data_job_04893
_audit_creation_date              2018-12-19
_audit_creation_method            'Materials Studio'
_symmetry_space_group_name_H-M    'P1'
_symmetry_Int_Tables_number       1
_symmetry_cell_setting            triclinic
loop_
_symmetry_equiv_pos_as_xyz
  x,y,z
_cell_length_a                    13.3146
_cell_length_b                    12.4577
_cell_length_c                    41.6840
_cell_angle_alpha                 90.0000
_cell_angle_beta                  94.3926
_cell_angle_gamma                 90.0000
loop_
_atom_site_label
_atom_site_type_symbol
_atom_site_fract_x
_atom_site_fract_y
_atom_site_fract_z
_atom_site_U_iso_or_equiv
_atom_site_adp_type
_atom_site_occupancy
C1     C     0.76454   0.45181   0.06541   0.00000  Uiso   1.00
C2     C     0.67890   0.37164   0.05880   0.00000  Uiso   1.00
C3     C     0.68395   0.27728   0.04130   0.00000  Uiso   1.00
C4     C     0.59741   0.21485   0.03797   0.00000  Uiso   1.00
C5     C     0.47786   0.08568   0.02562   0.00000  Uiso   1.00
C6     C     0.72423   0.55964   0.05281   0.00000  Uiso   1.00
C7     C     0.76741   0.62336   0.03027   0.00000  Uiso   1.00
C8     C     0.71903   0.71920   0.02189   0.00000  Uiso   1.00
C9     C     0.66990   0.88196   0.00025   0.00000  Uiso   1.00
C10    C     0.77900   0.46315   0.10190   0.00000  Uiso   1.00
C11    C     0.86822   0.44578   0.12063   0.00000  Uiso   1.00
C12    C     0.86595   0.46040   0.15359   0.00000  Uiso   1.00
C13    C     0.90185   0.47334   0.20816   0.00000  Uiso   1.00
C14    C     0.60186   0.50871   0.09062   0.00000  Uiso   1.00
C15    C     0.59054   0.40255   0.07250   0.00000  Uiso   1.00
C16    C     0.50396   0.34024   0.06920   0.00000  Uiso   1.00
C17    C     0.50889   0.24581   0.05169   0.00000  Uiso   1.00
C18    C     0.63587   0.59055   0.06650   0.00000  Uiso   1.00
C19    C     0.58742   0.68632   0.05816   0.00000  Uiso   1.00
C20    C     0.63050   0.75017   0.03561   0.00000  Uiso   1.00
C21    C     0.69063   0.49406   0.11559   0.00000  Uiso   1.00
C22    C     0.68823   0.50873   0.14853   0.00000  Uiso   1.00
C23    C     0.77743   0.49137   0.16731   0.00000  Uiso   1.00
H24    H     0.83334   0.42775   0.05475   0.00000  Uiso   1.00
H25    H     0.75235   0.25340   0.03070   0.00000  Uiso   1.00
H26    H     0.83580   0.59943   0.01967   0.00000  Uiso   1.00
H27    H     0.93659   0.42186   0.11003   0.00000  Uiso   1.00
H28    H     0.62358   0.07374   0.01008   0.00000  Uiso   1.00
H29    H     0.79955   0.80338   0.98683   0.00000  Uiso   1.00
H30    H     0.01210   0.42895   0.17735   0.00000  Uiso   1.00
H31    H     0.53306   0.53278   0.10128   0.00000  Uiso   1.00
H32    H     0.43559   0.36418   0.07980   0.00000  Uiso   1.00
H33    H     0.51904   0.71021   0.06876   0.00000  Uiso   1.00
H34    H     0.61983   0.53264   0.15912   0.00000  Uiso   1.00
H35    H     0.36649   0.16365   0.04992   0.00000  Uiso   1.00
H36    H     0.54247   0.89331   0.02667   0.00000  Uiso   1.00
H37    H     0.75500   0.51887   0.21719   0.00000  Uiso   1.00
O38    O     0.43633   0.00591   0.01502   0.00000  Uiso   1.00
O39    O     0.66721   0.96318   0.98452   0.00000  Uiso   1.00
O40    O     0.94606   0.47193   0.23448   0.00000  Uiso   1.00
N41    N     0.57646   0.11803   0.02241   0.00000  Uiso   1.00
N42    N     0.74097   0.80020   0.00067   0.00000  Uiso   1.00
N43    N     0.93969   0.45016   0.17879   0.00000  Uiso   1.00
N44    N     0.43812   0.16641   0.04385   0.00000  Uiso   1.00
N45    N     0.60263   0.84858   0.02211   0.00000  Uiso   1.00
N46    N     0.80135   0.49854   0.20023   0.00000  Uiso   1.00
C47    C     0.32514   0.37890   0.56837   0.00000  Uiso   1.00
C48    C     0.41299   0.45758   0.56892   0.00000  Uiso   1.00
C49    C     0.41601   0.55083   0.55081   0.00000  Uiso   1.00
C50    C     0.50326   0.61199   0.55475   0.00000  Uiso   1.00
C51    C     0.62732   0.73887   0.55236   0.00000  Uiso   1.00
C52    C     0.36803   0.26979   0.56002   0.00000  Uiso   1.00
C53    C     0.33323   0.20514   0.53442   0.00000  Uiso   1.00
C54    C     0.38263   0.10820   0.53087   0.00000  Uiso   1.00
C55    C     0.43685   0.94349   0.51466   0.00000  Uiso   1.00
C56    C     0.29691   0.37010   0.60304   0.00000  Uiso   1.00
C57    C     0.20231   0.38977   0.61362   0.00000  Uiso   1.00
C58    C     0.19182   0.37726   0.64629   0.00000  Uiso   1.00
C59    C     0.13561   0.36830   0.69689   0.00000  Uiso   1.00
C60    C     0.47472   0.32167   0.60758   0.00000  Uiso   1.00
C61    C     0.49423   0.42650   0.59022   0.00000  Uiso   1.00
C62    C     0.58150   0.48753   0.59420   0.00000  Uiso   1.00
C63    C     0.58464   0.58086   0.57609   0.00000  Uiso   1.00
C64    C     0.44927   0.23870   0.58131   0.00000  Uiso   1.00
C65    C     0.49872   0.14183   0.57780   0.00000  Uiso   1.00
C66    C     0.46402   0.07706   0.55220   0.00000  Uiso   1.00
C67    C     0.37815   0.33902   0.62434   0.00000  Uiso   1.00
C68    C     0.36780   0.32647   0.65700   0.00000  Uiso   1.00
C69    C     0.27321   0.34612   0.66763   0.00000  Uiso   1.00
H70    H     0.26189   0.40309   0.55179   0.00000  Uiso   1.00
H71    H     0.35312   0.57485   0.53433   0.00000  Uiso   1.00
H72    H     0.27036   0.22921   0.51794   0.00000  Uiso   1.00
H73    H     0.13946   0.41382   0.59713   0.00000  Uiso   1.00
H74    H     0.49011   0.75156   0.52436   0.00000  Uiso   1.00
H75    H     0.31558   0.02274   0.48981   0.00000  Uiso   1.00
H76    H     0.03954   0.41202   0.65679   0.00000  Uiso   1.00
H77    H     0.53797   0.29747   0.62417   0.00000  Uiso   1.00
H78    H     0.64436   0.46346   0.61068   0.00000  Uiso   1.00
H79    H     0.56159   0.11781   0.59429   0.00000  Uiso   1.00
H80    H     0.43069   0.30242   0.67348   0.00000  Uiso   1.00
H81    H     0.72649   0.66115   0.58632   0.00000  Uiso   1.00
H82    H     0.55195   0.93231   0.55178   0.00000  Uiso   1.00
H83    H     0.27592   0.32160   0.71876   0.00000  Uiso   1.00
O84    O     0.67332   0.81743   0.54515   0.00000  Uiso   1.00
O85    O     0.44431   0.86123   0.49983   0.00000  Uiso   1.00
O86    O     0.08217   0.37196   0.71891   0.00000  Uiso   1.00
N87    N     0.53114   0.70752   0.54080   0.00000  Uiso   1.00
N88    N     0.36796   0.02611   0.50849   0.00000  Uiso   1.00
N89    N     0.10989   0.39003   0.66461   0.00000  Uiso   1.00
N90    N     0.65833   0.65887   0.57414   0.00000  Uiso   1.00
N91    N     0.49516   0.97746   0.54184   0.00000  Uiso   1.00
N92    N     0.23708   0.34138   0.69795   0.00000  Uiso   1.00
C93    C     0.86800   0.56712   0.41767   0.00000  Uiso   1.00
C94    C     0.95376   0.64677   0.42483   0.00000  Uiso   1.00
C95    C     0.94836   0.74068   0.44252   0.00000  Uiso   1.00
C96    C     0.03510   0.80268   0.44637   0.00000  Uiso   1.00
C97    C     0.15476   0.93103   0.45953   0.00000  Uiso   1.00
C98    C     0.90739   0.45880   0.43016   0.00000  Uiso   1.00
C99    C     0.86298   0.39465   0.45234   0.00000  Uiso   1.00
C100   C     0.91068   0.29841   0.46067   0.00000  Uiso   1.00
C101   C     0.95830   0.13489   0.48209   0.00000  Uiso   1.00
C102   C     0.85500   0.55680   0.38114   0.00000  Uiso   1.00
C103   C     0.76654   0.57503   0.36209   0.00000  Uiso   1.00
C104   C     0.77012   0.56127   0.32914   0.00000  Uiso   1.00
C105   C     0.73640   0.54992   0.27445   0.00000  Uiso   1.00
C106   C     0.03165   0.51023   0.39303   0.00000  Uiso   1.00
C107   C     0.04265   0.61587   0.41145   0.00000  Uiso   1.00
C108   C     0.12942   0.67774   0.41526   0.00000  Uiso   1.00
C109   C     0.12415   0.77173   0.43296   0.00000  Uiso   1.00
C110   C     0.99627   0.42790   0.41678   0.00000  Uiso   1.00
C111   C     0.04404   0.33172   0.42508   0.00000  Uiso   1.00
C112   C     0.99973   0.26745   0.44726   0.00000  Uiso   1.00
C113   C     0.94389   0.52590   0.36775   0.00000  Uiso   1.00
C114   C     0.94760   0.51210   0.33483   0.00000  Uiso   1.00
C115   C     0.85917   0.53031   0.31574   0.00000  Uiso   1.00
H116   H     0.79880   0.59117   0.42809   0.00000  Uiso   1.00
H117   H     0.87956   0.76456   0.45288   0.00000  Uiso   1.00
H118   H     0.79419   0.41858   0.46269   0.00000  Uiso   1.00
H119   H     0.69777   0.59894   0.37245   0.00000  Uiso   1.00
H120   H     0.00831   0.94315   0.47447   0.00000  Uiso   1.00
H121   H     0.82829   0.21362   0.49514   0.00000  Uiso   1.00
H122   H     0.62495   0.59394   0.30487   0.00000  Uiso   1.00
H123   H     0.10086   0.48617   0.38261   0.00000  Uiso   1.00
H124   H     0.19820   0.65381   0.40491   0.00000  Uiso   1.00
H125   H     0.11283   0.30783   0.41472   0.00000  Uiso   1.00
H126   H     0.01640   0.48819   0.32448   0.00000  Uiso   1.00
H127   H     0.26693   0.85325   0.43553   0.00000  Uiso   1.00
H128   H     0.08690   0.12372   0.45621   0.00000  Uiso   1.00
H129   H     0.88357   0.50404   0.26593   0.00000  Uiso   1.00
O130   O     0.19621   0.01035   0.47050   0.00000  Uiso   1.00
O131   O     0.96002   0.05323   0.49761   0.00000  Uiso   1.00
O132   O     0.69325   0.55220   0.24798   0.00000  Uiso   1.00
N133   N     0.05581   0.89900   0.46224   0.00000  Uiso   1.00
N134   N     0.88751   0.21694   0.48157   0.00000  Uiso   1.00
N135   N     0.69740   0.57248   0.30368   0.00000  Uiso   1.00
N136   N     0.19497   0.85063   0.44129   0.00000  Uiso   1.00
N137   N     0.02667   0.16857   0.46062   0.00000  Uiso   1.00
N138   N     0.83656   0.52411   0.28273   0.00000  Uiso   1.00
C139   C     0.07018   0.26579   0.90598   0.00000  Uiso   1.00
C140   C     0.98529   0.18333   0.90428   0.00000  Uiso   1.00
C141   C     0.98487   0.08815   0.92157   0.00000  Uiso   1.00
C142   C     0.90009   0.02358   0.91664   0.00000  Uiso   1.00
C143   C     0.78064   0.89106   0.91729   0.00000  Uiso   1.00
C144   C     0.02275   0.37196   0.91499   0.00000  Uiso   1.00
C145   C     0.05383   0.43537   0.94127   0.00000  Uiso   1.00
C146   C     0.00059   0.52960   0.94534   0.00000  Uiso   1.00
C147   C     0.93934   0.68997   0.96259   0.00000  Uiso   1.00
C148   C     0.09985   0.27950   0.87160   0.00000  Uiso   1.00
C149   C     0.19575   0.26520   0.86141   0.00000  Uiso   1.00
C150   C     0.20743   0.28161   0.82896   0.00000  Uiso   1.00
C151   C     0.26588   0.29842   0.77884   0.00000  Uiso   1.00
C152   C     0.92039   0.32038   0.86648   0.00000  Uiso   1.00
C153   C     0.90394   0.21299   0.88283   0.00000  Uiso   1.00
C154   C     0.81914   0.14855   0.87787   0.00000  Uiso   1.00
C155   C     0.81859   0.05329   0.89515   0.00000  Uiso   1.00
C156   C     0.94140   0.40161   0.89353   0.00000  Uiso   1.00
C157   C     0.88811   0.49577   0.89757   0.00000  Uiso   1.00
C158   C     0.91909   0.55931   0.92385   0.00000  Uiso   1.00
C159   C     0.01849   0.30915   0.85015   0.00000  Uiso   1.00
C160   C     0.03003   0.32560   0.81771   0.00000  Uiso   1.00
C161   C     0.12593   0.31132   0.80747   0.00000  Uiso   1.00
H162   H     0.13352   0.24271   0.92268   0.00000  Uiso   1.00
H163   H     0.04784   0.06523   0.93817   0.00000  Uiso   1.00
H164   H     0.11680   0.41241   0.95786   0.00000  Uiso   1.00
H165   H     0.25869   0.24225   0.87801   0.00000  Uiso   1.00
H166   H     0.91695   0.88156   0.94590   0.00000  Uiso   1.00
H167   H     0.06237   0.61362   0.98741   0.00000  Uiso   1.00
H168   H     0.36160   0.25483   0.81903   0.00000  Uiso   1.00
H169   H     0.85705   0.34347   0.84978   0.00000  Uiso   1.00
H170   H     0.75619   0.17152   0.86127   0.00000  Uiso   1.00
H171   H     0.82515   0.51870   0.88096   0.00000  Uiso   1.00
H172   H     0.96705   0.34855   0.80111   0.00000  Uiso   1.00
H173   H     0.68023   0.96783   0.88348   0.00000  Uiso   1.00
H174   H     0.82566   0.69990   0.92499   0.00000  Uiso   1.00
H175   H     0.12488   0.34110   0.75662   0.00000  Uiso   1.00
O176   O     0.73722   0.80978   0.92357   0.00000  Uiso   1.00
O177   O     0.92803   0.77022   0.97803   0.00000  Uiso   1.00
O178   O     0.32059   0.29948   0.75713   0.00000  Uiso   1.00
N179   N     0.87509   0.92546   0.92963   0.00000  Uiso   1.00
N180   N     0.01104   0.60988   0.96844   0.00000  Uiso   1.00
N181   N     0.29079   0.27446   0.81102   0.00000  Uiso   1.00
N182   N     0.74771   0.97188   0.89604   0.00000  Uiso   1.00
N183   N     0.88367   0.65630   0.93486   0.00000  Uiso   1.00
N184   N     0.16342   0.32088   0.77744   0.00000  Uiso   1.00
C185   C     0.23546   0.95181   0.93459   0.00000  Uiso   1.00
C186   C     0.32110   0.87164   0.94120   0.00000  Uiso   1.00
C187   C     0.31605   0.77728   0.95870   0.00000  Uiso   1.00
C188   C     0.40259   0.71485   0.96203   0.00000  Uiso   1.00
C189   C     0.52214   0.58568   0.97438   0.00000  Uiso   1.00
C190   C     0.27577   0.05964   0.94719   0.00000  Uiso   1.00
C191   C     0.23259   0.12336   0.96973   0.00000  Uiso   1.00
C192   C     0.28097   0.21920   0.97811   0.00000  Uiso   1.00
C193   C     0.33010   0.38196   0.99975   0.00000  Uiso   1.00
C194   C     0.22100   0.96315   0.89810   0.00000  Uiso   1.00
C195   C     0.13178   0.94578   0.87937   0.00000  Uiso   1.00
C196   C     0.13405   0.96040   0.84641   0.00000  Uiso   1.00
C197   C     0.09815   0.97334   0.79184   0.00000  Uiso   1.00
C198   C     0.39814   0.00871   0.90938   0.00000  Uiso   1.00
C199   C     0.40946   0.90255   0.92750   0.00000  Uiso   1.00
C200   C     0.49604   0.84024   0.93080   0.00000  Uiso   1.00
C201   C     0.49111   0.74581   0.94831   0.00000  Uiso   1.00
C202   C     0.36413   0.09055   0.93350   0.00000  Uiso   1.00
C203   C     0.41258   0.18632   0.94184   0.00000  Uiso   1.00
C204   C     0.36950   0.25017   0.96439   0.00000  Uiso   1.00
C205   C     0.30937   0.99406   0.88441   0.00000  Uiso   1.00
C206   C     0.31177   0.00873   0.85147   0.00000  Uiso   1.00
C207   C     0.22257   0.99137   0.83269   0.00000  Uiso   1.00
H208   H     0.16666   0.92775   0.94525   0.00000  Uiso   1.00
H209   H     0.24765   0.75340   0.96930   0.00000  Uiso   1.00
H210   H     0.16420   0.09943   0.98033   0.00000  Uiso   1.00
H211   H     0.06341   0.92186   0.88997   0.00000  Uiso   1.00
H212   H     0.37642   0.57374   0.98992   0.00000  Uiso   1.00
H213   H     0.20045   0.30338   0.01317   0.00000  Uiso   1.00
H214   H     0.98790   0.92895   0.82265   0.00000  Uiso   1.00
H215   H     0.46694   0.03278   0.89872   0.00000  Uiso   1.00
H216   H     0.56441   0.86418   0.92020   0.00000  Uiso   1.00
H217   H     0.48096   0.21021   0.93124   0.00000  Uiso   1.00
H218   H     0.38017   0.03264   0.84088   0.00000  Uiso   1.00
H219   H     0.63351   0.66365   0.95008   0.00000  Uiso   1.00
H220   H     0.45753   0.39331   0.97333   0.00000  Uiso   1.00
H221   H     0.24500   0.01887   0.78281   0.00000  Uiso   1.00
O222   O     0.56367   0.50591   0.98498   0.00000  Uiso   1.00
O223   O     0.33279   0.46318   0.01548   0.00000  Uiso   1.00
O224   O     0.05394   0.97193   0.76552   0.00000  Uiso   1.00
N225   N     0.42354   0.61803   0.97759   0.00000  Uiso   1.00
N226   N     0.25903   0.30020   0.99933   0.00000  Uiso   1.00
N227   N     0.06031   0.95016   0.82121   0.00000  Uiso   1.00
N228   N     0.56188   0.66641   0.95615   0.00000  Uiso   1.00
N229   N     0.39737   0.34858   0.97789   0.00000  Uiso   1.00
N230   N     0.19865   0.99854   0.79977   0.00000  Uiso   1.00
C231   C     0.67486   0.87890   0.43163   0.00000  Uiso   1.00
C232   C     0.58701   0.95758   0.43108   0.00000  Uiso   1.00
C233   C     0.58399   0.05083   0.44919   0.00000  Uiso   1.00
C234   C     0.49674   0.11199   0.44525   0.00000  Uiso   1.00
C235   C     0.37268   0.23887   0.44764   0.00000  Uiso   1.00
C236   C     0.63197   0.76979   0.43998   0.00000  Uiso   1.00
C237   C     0.66677   0.70514   0.46558   0.00000  Uiso   1.00
C238   C     0.61737   0.60820   0.46913   0.00000  Uiso   1.00
C239   C     0.56315   0.44349   0.48534   0.00000  Uiso   1.00
C240   C     0.70309   0.87010   0.39696   0.00000  Uiso   1.00
C241   C     0.79769   0.88977   0.38638   0.00000  Uiso   1.00
C242   C     0.80818   0.87726   0.35371   0.00000  Uiso   1.00
C243   C     0.86439   0.86830   0.30311   0.00000  Uiso   1.00
C244   C     0.52528   0.82167   0.39242   0.00000  Uiso   1.00
C245   C     0.50577   0.92650   0.40978   0.00000  Uiso   1.00
C246   C     0.41850   0.98753   0.40580   0.00000  Uiso   1.00
C247   C     0.41536   0.08086   0.42391   0.00000  Uiso   1.00
C248   C     0.55073   0.73870   0.41869   0.00000  Uiso   1.00
C249   C     0.50128   0.64183   0.42220   0.00000  Uiso   1.00
C250   C     0.53598   0.57706   0.44780   0.00000  Uiso   1.00
C251   C     0.62185   0.83902   0.37566   0.00000  Uiso   1.00
C252   C     0.63220   0.82647   0.34300   0.00000  Uiso   1.00
C253   C     0.72679   0.84612   0.33237   0.00000  Uiso   1.00
H254   H     0.73811   0.90309   0.44821   0.00000  Uiso   1.00
H255   H     0.64688   0.07485   0.46567   0.00000  Uiso   1.00
H256   H     0.72964   0.72921   0.48206   0.00000  Uiso   1.00
H257   H     0.86054   0.91382   0.40287   0.00000  Uiso   1.00
H258   H     0.50989   0.25156   0.47564   0.00000  Uiso   1.00
H259   H     0.68442   0.52274   0.51019   0.00000  Uiso   1.00
H260   H     0.96046   0.91202   0.34321   0.00000  Uiso   1.00
H261   H     0.46203   0.79747   0.37583   0.00000  Uiso   1.00
H262   H     0.35564   0.96346   0.38932   0.00000  Uiso   1.00
H263   H     0.43841   0.61781   0.40571   0.00000  Uiso   1.00
H264   H     0.56931   0.80242   0.32652   0.00000  Uiso   1.00
H265   H     0.27351   0.16115   0.41368   0.00000  Uiso   1.00
H266   H     0.44805   0.43231   0.44822   0.00000  Uiso   1.00
H267   H     0.72408   0.82160   0.28124   0.00000  Uiso   1.00
O268   O     0.32668   0.31743   0.45485   0.00000  Uiso   1.00
O269   O     0.55569   0.36123   0.50017   0.00000  Uiso   1.00
O270   O     0.91783   0.87196   0.28109   0.00000  Uiso   1.00
N271   N     0.46886   0.20752   0.45920   0.00000  Uiso   1.00
N272   N     0.63204   0.52611   0.49151   0.00000  Uiso   1.00
N273   N     0.89011   0.89003   0.33539   0.00000  Uiso   1.00
N274   N     0.34167   0.15887   0.42586   0.00000  Uiso   1.00
N275   N     0.50484   0.47746   0.45816   0.00000  Uiso   1.00
N276   N     0.76292   0.84138   0.30205   0.00000  Uiso   1.00
C277   C     0.13200   0.06712   0.58233   0.00000  Uiso   1.00
C278   C     0.04624   0.14677   0.57517   0.00000  Uiso   1.00
C279   C     0.05164   0.24068   0.55748   0.00000  Uiso   1.00
C280   C     0.96490   0.30268   0.55363   0.00000  Uiso   1.00
C281   C     0.84524   0.43103   0.54047   0.00000  Uiso   1.00
C282   C     0.09261   0.95880   0.56984   0.00000  Uiso   1.00
C283   C     0.13702   0.89465   0.54766   0.00000  Uiso   1.00
C284   C     0.08932   0.79841   0.53933   0.00000  Uiso   1.00
C285   C     0.04170   0.63489   0.51791   0.00000  Uiso   1.00
C286   C     0.14500   0.05680   0.61886   0.00000  Uiso   1.00
C287   C     0.23346   0.07503   0.63791   0.00000  Uiso   1.00
C288   C     0.22988   0.06127   0.67086   0.00000  Uiso   1.00
C289   C     0.26360   0.04992   0.72555   0.00000  Uiso   1.00
C290   C     0.96835   0.01023   0.60697   0.00000  Uiso   1.00
C291   C     0.95735   0.11587   0.58855   0.00000  Uiso   1.00
C292   C     0.87058   0.17774   0.58474   0.00000  Uiso   1.00
C293   C     0.87585   0.27173   0.56704   0.00000  Uiso   1.00
C294   C     0.00373   0.92790   0.58322   0.00000  Uiso   1.00
C295   C     0.95596   0.83172   0.57492   0.00000  Uiso   1.00
C296   C     0.00027   0.76745   0.55274   0.00000  Uiso   1.00
C297   C     0.05611   0.02590   0.63225   0.00000  Uiso   1.00
C298   C     0.05240   0.01210   0.66517   0.00000  Uiso   1.00
C299   C     0.14083   0.03031   0.68426   0.00000  Uiso   1.00
H300   H     0.20120   0.09117   0.57191   0.00000  Uiso   1.00
H301   H     0.12044   0.26456   0.54712   0.00000  Uiso   1.00
H302   H     0.20581   0.91858   0.53731   0.00000  Uiso   1.00
H303   H     0.30223   0.09894   0.62755   0.00000  Uiso   1.00
H304   H     0.99169   0.44315   0.52553   0.00000  Uiso   1.00
H305   H     0.17171   0.71362   0.50486   0.00000  Uiso   1.00
H306   H     0.37505   0.09394   0.69513   0.00000  Uiso   1.00
H307   H     0.89914   0.98617   0.61739   0.00000  Uiso   1.00
H308   H     0.80180   0.15381   0.59509   0.00000  Uiso   1.00
H309   H     0.88717   0.80783   0.58528   0.00000  Uiso   1.00
H310   H     0.98360   0.98819   0.67552   0.00000  Uiso   1.00
H311   H     0.73307   0.35325   0.56447   0.00000  Uiso   1.00
H312   H     0.91310   0.62372   0.54379   0.00000  Uiso   1.00
H313   H     0.11643   0.00404   0.73407   0.00000  Uiso   1.00
O314   O     0.80379   0.51035   0.52950   0.00000  Uiso   1.00
O315   O     0.03998   0.55323   0.50239   0.00000  Uiso   1.00
O316   O     0.30675   0.05220   0.75202   0.00000  Uiso   1.00
N317   N     0.94419   0.39900   0.53776   0.00000  Uiso   1.00
N318   N     0.11249   0.71694   0.51843   0.00000  Uiso   1.00
N319   N     0.30260   0.07248   0.69632   0.00000  Uiso   1.00
N320   N     0.80503   0.35063   0.55871   0.00000  Uiso   1.00
N321   N     0.97333   0.66857   0.53938   0.00000  Uiso   1.00
N322   N     0.16344   0.02411   0.71727   0.00000  Uiso   1.00
C323   C     0.92982   0.76579   0.09402   0.00000  Uiso   1.00
C324   C     0.01471   0.68333   0.09572   0.00000  Uiso   1.00
C325   C     0.01513   0.58815   0.07843   0.00000  Uiso   1.00
C326   C     0.09991   0.52358   0.08336   0.00000  Uiso   1.00
C327   C     0.21936   0.39106   0.08271   0.00000  Uiso   1.00
C328   C     0.97725   0.87196   0.08501   0.00000  Uiso   1.00
C329   C     0.94617   0.93537   0.05873   0.00000  Uiso   1.00
C330   C     0.99941   0.02960   0.05466   0.00000  Uiso   1.00
C331   C     0.06066   0.18997   0.03741   0.00000  Uiso   1.00
C332   C     0.90015   0.77950   0.12840   0.00000  Uiso   1.00
C333   C     0.80425   0.76520   0.13859   0.00000  Uiso   1.00
C334   C     0.79257   0.78161   0.17104   0.00000  Uiso   1.00
C335   C     0.73412   0.79842   0.22116   0.00000  Uiso   1.00
C336   C     0.07961   0.82038   0.13352   0.00000  Uiso   1.00
C337   C     0.09606   0.71299   0.11717   0.00000  Uiso   1.00
C338   C     0.18086   0.64855   0.12213   0.00000  Uiso   1.00
C339   C     0.18141   0.55329   0.10485   0.00000  Uiso   1.00
C340   C     0.05860   0.90161   0.10647   0.00000  Uiso   1.00
C341   C     0.11189   0.99577   0.10243   0.00000  Uiso   1.00
C342   C     0.08091   0.05931   0.07615   0.00000  Uiso   1.00
C343   C     0.98151   0.80915   0.14985   0.00000  Uiso   1.00
C344   C     0.96997   0.82560   0.18229   0.00000  Uiso   1.00
C345   C     0.87407   0.81132   0.19253   0.00000  Uiso   1.00
H346   H     0.86648   0.74271   0.07732   0.00000  Uiso   1.00
H347   H     0.95216   0.56523   0.06183   0.00000  Uiso   1.00
H348   H     0.88320   0.91241   0.04214   0.00000  Uiso   1.00
H349   H     0.74131   0.74225   0.12199   0.00000  Uiso   1.00
H350   H     0.08305   0.38156   0.05410   0.00000  Uiso   1.00
H351   H     0.93763   0.11362   0.01259   0.00000  Uiso   1.00
H352   H     0.63840   0.75483   0.18097   0.00000  Uiso   1.00
H353   H     0.14295   0.84347   0.15022   0.00000  Uiso   1.00
H354   H     0.24381   0.67152   0.13873   0.00000  Uiso   1.00
H355   H     0.17485   0.01870   0.11904   0.00000  Uiso   1.00
H356   H     0.03295   0.84855   0.19889   0.00000  Uiso   1.00
H357   H     0.31977   0.46783   0.11652   0.00000  Uiso   1.00
H358   H     0.17434   0.19990   0.07501   0.00000  Uiso   1.00
H359   H     0.87512   0.84110   0.24338   0.00000  Uiso   1.00
O360   O     0.26278   0.30978   0.07643   0.00000  Uiso   1.00
O361   O     0.07197   0.27022   0.02197   0.00000  Uiso   1.00
O362   O     0.67941   0.79948   0.24287   0.00000  Uiso   1.00
N363   N     0.12491   0.42546   0.07037   0.00000  Uiso   1.00
N364   N     0.98896   0.10988   0.03156   0.00000  Uiso   1.00
N365   N     0.70921   0.77446   0.18898   0.00000  Uiso   1.00
N366   N     0.25229   0.47188   0.10396   0.00000  Uiso   1.00
N367   N     0.11633   0.15630   0.06514   0.00000  Uiso   1.00
N368   N     0.83658   0.82088   0.22256   0.00000  Uiso   1.00
