data_job_03988
_audit_creation_date              2018-12-19
_audit_creation_method            'Materials Studio'
_symmetry_space_group_name_H-M    'P1'
_symmetry_Int_Tables_number       1
_symmetry_cell_setting            triclinic
loop_
_symmetry_equiv_pos_as_xyz
  x,y,z
_cell_length_a                    13.2856
_cell_length_b                    13.5336
_cell_length_c                    15.2518
_cell_angle_alpha                 90.0000
_cell_angle_beta                  90.0000
_cell_angle_gamma                 90.0000
loop_
_atom_site_label
_atom_site_type_symbol
_atom_site_fract_x
_atom_site_fract_y
_atom_site_fract_z
_atom_site_U_iso_or_equiv
_atom_site_adp_type
_atom_site_occupancy
C1     C     0.09495   0.99867   0.00299   0.00000  Uiso   1.00
C2     C     0.99088   0.96670   0.03421   0.00000  Uiso   1.00
C3     C     0.96550   0.94098   0.11947   0.00000  Uiso   1.00
C4     C     0.86625   0.91382   0.13469   0.00000  Uiso   1.00
C5     C     0.71552   0.86432   0.19345   0.00000  Uiso   1.00
C6     C     0.12324   0.92801   0.92912   0.00000  Uiso   1.00
C7     C     0.20916   0.86978   0.92602   0.00000  Uiso   1.00
C8     C     0.22133   0.81006   0.85276   0.00000  Uiso   1.00
C9     C     0.27612   0.70056   0.74834   0.00000  Uiso   1.00
C10    C     0.08085   0.09959   0.96026   0.00000  Uiso   1.00
C11    C     0.13115   0.18563   0.98333   0.00000  Uiso   1.00
C12    C     0.10765   0.27037   0.93627   0.00000  Uiso   1.00
C13    C     0.09663   0.42728   0.88019   0.00000  Uiso   1.00
C14    C     0.96382   0.99617   0.87839   0.00000  Uiso   1.00
C15    C     0.91966   0.96533   0.96653   0.00000  Uiso   1.00
C16    C     0.82042   0.93821   0.98162   0.00000  Uiso   1.00
C17    C     0.79490   0.91246   0.06689   0.00000  Uiso   1.00
C18    C     0.05202   0.92665   0.86144   0.00000  Uiso   1.00
C19    C     0.06408   0.86701   0.78817   0.00000  Uiso   1.00
C20    C     0.14998   0.80870   0.78496   0.00000  Uiso   1.00
C21    C     0.00963   0.09824   0.89258   0.00000  Uiso   1.00
C22    C     0.98606   0.18286   0.84547   0.00000  Uiso   1.00
C23    C     0.03630   0.26901   0.86847   0.00000  Uiso   1.00
H24    H     0.15040   0.99973   0.05568   0.00000  Uiso   1.00
H25    H     0.02065   0.94203   0.17183   0.00000  Uiso   1.00
H26    H     0.26426   0.87085   0.97840   0.00000  Uiso   1.00
H27    H     0.18626   0.18665   0.03570   0.00000  Uiso   1.00
H28    H     0.84539   0.87743   0.27075   0.00000  Uiso   1.00
H29    H     0.35909   0.72737   0.86289   0.00000  Uiso   1.00
H30    H     0.19460   0.39330   0.98371   0.00000  Uiso   1.00
H31    H     0.90837   0.99511   0.82570   0.00000  Uiso   1.00
H32    H     0.76532   0.93716   0.92923   0.00000  Uiso   1.00
H33    H     0.00895   0.86598   0.73581   0.00000  Uiso   1.00
H34    H     0.93094   0.18178   0.79310   0.00000  Uiso   1.00
H35    H     0.63816   0.87348   0.07385   0.00000  Uiso   1.00
H36    H     0.15187   0.72341   0.66598   0.00000  Uiso   1.00
H37    H     0.98738   0.38934   0.78681   0.00000  Uiso   1.00
O38    O     0.65205   0.83739   0.24455   0.00000  Uiso   1.00
O39    O     0.32602   0.64052   0.70944   0.00000  Uiso   1.00
O40    O     0.11021   0.51421   0.86797   0.00000  Uiso   1.00
N41    N     0.81624   0.88447   0.21020   0.00000  Uiso   1.00
N42    N     0.29651   0.74416   0.82888   0.00000  Uiso   1.00
N43    N     0.14275   0.36674   0.94183   0.00000  Uiso   1.00
N44    N     0.70473   0.88235   0.10425   0.00000  Uiso   1.00
N45    N     0.18501   0.74203   0.72293   0.00000  Uiso   1.00
N46    N     0.03125   0.36462   0.83588   0.00000  Uiso   1.00
C47    C     0.90505   0.00133   0.50299   0.00000  Uiso   1.00
C48    C     0.00912   0.03330   0.53421   0.00000  Uiso   1.00
C49    C     0.03450   0.05902   0.61947   0.00000  Uiso   1.00
C50    C     0.13375   0.08618   0.63469   0.00000  Uiso   1.00
C51    C     0.28448   0.13568   0.69345   0.00000  Uiso   1.00
C52    C     0.87676   0.07199   0.42912   0.00000  Uiso   1.00
C53    C     0.79084   0.13022   0.42602   0.00000  Uiso   1.00
C54    C     0.77867   0.18994   0.35276   0.00000  Uiso   1.00
C55    C     0.72388   0.29944   0.24834   0.00000  Uiso   1.00
C56    C     0.91915   0.90041   0.46026   0.00000  Uiso   1.00
C57    C     0.86885   0.81437   0.48333   0.00000  Uiso   1.00
C58    C     0.89235   0.72963   0.43627   0.00000  Uiso   1.00
C59    C     0.90337   0.57272   0.38019   0.00000  Uiso   1.00
C60    C     0.03618   0.00383   0.37839   0.00000  Uiso   1.00
C61    C     0.08034   0.03467   0.46653   0.00000  Uiso   1.00
C62    C     0.17958   0.06179   0.48162   0.00000  Uiso   1.00
C63    C     0.20510   0.08754   0.56689   0.00000  Uiso   1.00
C64    C     0.94798   0.07335   0.36144   0.00000  Uiso   1.00
C65    C     0.93592   0.13299   0.28817   0.00000  Uiso   1.00
C66    C     0.85002   0.19130   0.28496   0.00000  Uiso   1.00
C67    C     0.99037   0.90176   0.39258   0.00000  Uiso   1.00
C68    C     0.01394   0.81714   0.34547   0.00000  Uiso   1.00
C69    C     0.96370   0.73099   0.36847   0.00000  Uiso   1.00
H70    H     0.84960   0.00027   0.55568   0.00000  Uiso   1.00
H71    H     0.97935   0.05797   0.67183   0.00000  Uiso   1.00
H72    H     0.73574   0.12915   0.47840   0.00000  Uiso   1.00
H73    H     0.81374   0.81335   0.53570   0.00000  Uiso   1.00
H74    H     0.15461   0.12257   0.77075   0.00000  Uiso   1.00
H75    H     0.64091   0.27263   0.36289   0.00000  Uiso   1.00
H76    H     0.80540   0.60670   0.48371   0.00000  Uiso   1.00
H77    H     0.09163   0.00489   0.32570   0.00000  Uiso   1.00
H78    H     0.23468   0.06284   0.42923   0.00000  Uiso   1.00
H79    H     0.99105   0.13402   0.23581   0.00000  Uiso   1.00
H80    H     0.06906   0.81822   0.29310   0.00000  Uiso   1.00
H81    H     0.36184   0.12652   0.57385   0.00000  Uiso   1.00
H82    H     0.84813   0.27659   0.16598   0.00000  Uiso   1.00
H83    H     0.01262   0.61066   0.28681   0.00000  Uiso   1.00
O84    O     0.34795   0.16261   0.74455   0.00000  Uiso   1.00
O85    O     0.67398   0.35948   0.20944   0.00000  Uiso   1.00
O86    O     0.88979   0.48579   0.36797   0.00000  Uiso   1.00
N87    N     0.18376   0.11553   0.71020   0.00000  Uiso   1.00
N88    N     0.70349   0.25584   0.32888   0.00000  Uiso   1.00
N89    N     0.85725   0.63326   0.44183   0.00000  Uiso   1.00
N90    N     0.29527   0.11765   0.60425   0.00000  Uiso   1.00
N91    N     0.81499   0.25797   0.22293   0.00000  Uiso   1.00
N92    N     0.96875   0.63538   0.33588   0.00000  Uiso   1.00
C93    C     0.59495   0.50133   0.00299   0.00000  Uiso   1.00
C94    C     0.49088   0.53330   0.03421   0.00000  Uiso   1.00
C95    C     0.46550   0.55902   0.11947   0.00000  Uiso   1.00
C96    C     0.36625   0.58618   0.13469   0.00000  Uiso   1.00
C97    C     0.21552   0.63568   0.19345   0.00000  Uiso   1.00
C98    C     0.62324   0.57199   0.92912   0.00000  Uiso   1.00
C99    C     0.70916   0.63022   0.92602   0.00000  Uiso   1.00
C100   C     0.72133   0.68994   0.85276   0.00000  Uiso   1.00
C101   C     0.77612   0.79944   0.74834   0.00000  Uiso   1.00
C102   C     0.58085   0.40041   0.96026   0.00000  Uiso   1.00
C103   C     0.63115   0.31437   0.98333   0.00000  Uiso   1.00
C104   C     0.60765   0.22963   0.93627   0.00000  Uiso   1.00
C105   C     0.59663   0.07272   0.88019   0.00000  Uiso   1.00
C106   C     0.46382   0.50383   0.87839   0.00000  Uiso   1.00
C107   C     0.41966   0.53467   0.96653   0.00000  Uiso   1.00
C108   C     0.32042   0.56179   0.98162   0.00000  Uiso   1.00
C109   C     0.29490   0.58754   0.06689   0.00000  Uiso   1.00
C110   C     0.55202   0.57335   0.86144   0.00000  Uiso   1.00
C111   C     0.56408   0.63299   0.78817   0.00000  Uiso   1.00
C112   C     0.64998   0.69130   0.78496   0.00000  Uiso   1.00
C113   C     0.50963   0.40176   0.89258   0.00000  Uiso   1.00
C114   C     0.48606   0.31714   0.84547   0.00000  Uiso   1.00
C115   C     0.53630   0.23099   0.86847   0.00000  Uiso   1.00
H116   H     0.65040   0.50027   0.05568   0.00000  Uiso   1.00
H117   H     0.52065   0.55797   0.17183   0.00000  Uiso   1.00
H118   H     0.76426   0.62915   0.97840   0.00000  Uiso   1.00
H119   H     0.68626   0.31335   0.03570   0.00000  Uiso   1.00
H120   H     0.34539   0.62257   0.27075   0.00000  Uiso   1.00
H121   H     0.85909   0.77263   0.86289   0.00000  Uiso   1.00
H122   H     0.69460   0.10670   0.98371   0.00000  Uiso   1.00
H123   H     0.40837   0.50489   0.82570   0.00000  Uiso   1.00
H124   H     0.26532   0.56284   0.92923   0.00000  Uiso   1.00
H125   H     0.50895   0.63402   0.73581   0.00000  Uiso   1.00
H126   H     0.43094   0.31822   0.79310   0.00000  Uiso   1.00
H127   H     0.13816   0.62652   0.07385   0.00000  Uiso   1.00
H128   H     0.65187   0.77659   0.66598   0.00000  Uiso   1.00
H129   H     0.48738   0.11066   0.78681   0.00000  Uiso   1.00
O130   O     0.15205   0.66261   0.24455   0.00000  Uiso   1.00
O131   O     0.82602   0.85948   0.70944   0.00000  Uiso   1.00
O132   O     0.61021   0.98579   0.86797   0.00000  Uiso   1.00
N133   N     0.31624   0.61553   0.21020   0.00000  Uiso   1.00
N134   N     0.79651   0.75584   0.82888   0.00000  Uiso   1.00
N135   N     0.64275   0.13326   0.94183   0.00000  Uiso   1.00
N136   N     0.20473   0.61765   0.10425   0.00000  Uiso   1.00
N137   N     0.68501   0.75797   0.72293   0.00000  Uiso   1.00
N138   N     0.53125   0.13538   0.83588   0.00000  Uiso   1.00
C139   C     0.40505   0.49867   0.50299   0.00000  Uiso   1.00
C140   C     0.50912   0.46670   0.53421   0.00000  Uiso   1.00
C141   C     0.53450   0.44098   0.61947   0.00000  Uiso   1.00
C142   C     0.63375   0.41382   0.63469   0.00000  Uiso   1.00
C143   C     0.78448   0.36432   0.69345   0.00000  Uiso   1.00
C144   C     0.37676   0.42801   0.42912   0.00000  Uiso   1.00
C145   C     0.29084   0.36978   0.42602   0.00000  Uiso   1.00
C146   C     0.27867   0.31006   0.35276   0.00000  Uiso   1.00
C147   C     0.22388   0.20056   0.24834   0.00000  Uiso   1.00
C148   C     0.41915   0.59959   0.46026   0.00000  Uiso   1.00
C149   C     0.36885   0.68563   0.48333   0.00000  Uiso   1.00
C150   C     0.39235   0.77037   0.43627   0.00000  Uiso   1.00
C151   C     0.40337   0.92728   0.38019   0.00000  Uiso   1.00
C152   C     0.53618   0.49617   0.37839   0.00000  Uiso   1.00
C153   C     0.58034   0.46533   0.46653   0.00000  Uiso   1.00
C154   C     0.67958   0.43821   0.48162   0.00000  Uiso   1.00
C155   C     0.70510   0.41246   0.56689   0.00000  Uiso   1.00
C156   C     0.44798   0.42665   0.36144   0.00000  Uiso   1.00
C157   C     0.43592   0.36701   0.28817   0.00000  Uiso   1.00
C158   C     0.35002   0.30870   0.28496   0.00000  Uiso   1.00
C159   C     0.49037   0.59824   0.39258   0.00000  Uiso   1.00
C160   C     0.51394   0.68286   0.34547   0.00000  Uiso   1.00
C161   C     0.46370   0.76901   0.36847   0.00000  Uiso   1.00
H162   H     0.34960   0.49973   0.55568   0.00000  Uiso   1.00
H163   H     0.47935   0.44203   0.67183   0.00000  Uiso   1.00
H164   H     0.23574   0.37085   0.47840   0.00000  Uiso   1.00
H165   H     0.31374   0.68665   0.53570   0.00000  Uiso   1.00
H166   H     0.65461   0.37743   0.77075   0.00000  Uiso   1.00
H167   H     0.14091   0.22737   0.36289   0.00000  Uiso   1.00
H168   H     0.30540   0.89330   0.48371   0.00000  Uiso   1.00
H169   H     0.59163   0.49511   0.32570   0.00000  Uiso   1.00
H170   H     0.73468   0.43716   0.42923   0.00000  Uiso   1.00
H171   H     0.49105   0.36598   0.23581   0.00000  Uiso   1.00
H172   H     0.56906   0.68178   0.29310   0.00000  Uiso   1.00
H173   H     0.86184   0.37348   0.57385   0.00000  Uiso   1.00
H174   H     0.34813   0.22341   0.16598   0.00000  Uiso   1.00
H175   H     0.51262   0.88934   0.28681   0.00000  Uiso   1.00
O176   O     0.84795   0.33739   0.74455   0.00000  Uiso   1.00
O177   O     0.17398   0.14052   0.20944   0.00000  Uiso   1.00
O178   O     0.38979   0.01421   0.36797   0.00000  Uiso   1.00
N179   N     0.68376   0.38447   0.71020   0.00000  Uiso   1.00
N180   N     0.20349   0.24416   0.32888   0.00000  Uiso   1.00
N181   N     0.35725   0.86674   0.44183   0.00000  Uiso   1.00
N182   N     0.79527   0.38235   0.60425   0.00000  Uiso   1.00
N183   N     0.31499   0.24203   0.22293   0.00000  Uiso   1.00
N184   N     0.46875   0.86462   0.33588   0.00000  Uiso   1.00
