data_job_04173
_audit_creation_date              2018-12-19
_audit_creation_method            'Materials Studio'
_symmetry_space_group_name_H-M    'P1'
_symmetry_Int_Tables_number       1
_symmetry_cell_setting            triclinic
loop_
_symmetry_equiv_pos_as_xyz
  x,y,z
_cell_length_a                    23.2065
_cell_length_b                    23.2065
_cell_length_c                    8.3755
_cell_angle_alpha                 90.0000
_cell_angle_beta                  90.0000
_cell_angle_gamma                 120.0000
loop_
_atom_site_label
_atom_site_type_symbol
_atom_site_fract_x
_atom_site_fract_y
_atom_site_fract_z
_atom_site_U_iso_or_equiv
_atom_site_adp_type
_atom_site_occupancy
C1     C     0.08158   0.44471   0.51549   0.00000  Uiso   1.00
C2     C     0.03939   0.42402   0.66682   0.00000  Uiso   1.00
C3     C     0.97127   0.39941   0.67371   0.00000  Uiso   1.00
C4     C     0.94188   0.38336   0.82368   0.00000  Uiso   1.00
C5     C     0.87069   0.35000   0.03768   0.00000  Uiso   1.00
C6     C     0.13608   0.51671   0.54154   0.00000  Uiso   1.00
C7     C     0.14924   0.57002   0.44307   0.00000  Uiso   1.00
C8     C     0.20125   0.63199   0.48758   0.00000  Uiso   1.00
C9     C     0.28018   0.74252   0.50700   0.00000  Uiso   1.00
C10    C     0.11652   0.40387   0.51223   0.00000  Uiso   1.00
C11    C     0.11326   0.36232   0.38910   0.00000  Uiso   1.00
C12    C     0.14881   0.32929   0.40890   0.00000  Uiso   1.00
C13    C     0.19738   0.26462   0.38282   0.00000  Uiso   1.00
C14    C     0.15052   0.45996   0.76957   0.00000  Uiso   1.00
C15    C     0.07684   0.43231   0.80483   0.00000  Uiso   1.00
C16    C     0.04755   0.41628   0.95483   0.00000  Uiso   1.00
C17    C     0.97939   0.39165   0.96194   0.00000  Uiso   1.00
C18    C     0.17352   0.52499   0.67954   0.00000  Uiso   1.00
C19    C     0.22552   0.58689   0.72419   0.00000  Uiso   1.00
C20    C     0.23876   0.64029   0.62583   0.00000  Uiso   1.00
C21    C     0.15397   0.41215   0.65024   0.00000  Uiso   1.00
C22    C     0.18953   0.37918   0.67023   0.00000  Uiso   1.00
C23    C     0.18633   0.33759   0.54716   0.00000  Uiso   1.00
H24    H     0.05243   0.43827   0.40804   0.00000  Uiso   1.00
H25    H     0.94231   0.39302   0.56688   0.00000  Uiso   1.00
H26    H     0.12026   0.56360   0.33628   0.00000  Uiso   1.00
H27    H     0.08428   0.35592   0.28232   0.00000  Uiso   1.00
H28    H     0.83674   0.34652   0.80386   0.00000  Uiso   1.00
H29    H     0.21197   0.70619   0.31758   0.00000  Uiso   1.00
H30    H     0.13610   0.26827   0.20379   0.00000  Uiso   1.00
H31    H     0.17968   0.46641   0.87702   0.00000  Uiso   1.00
H32    H     0.07654   0.42270   0.06161   0.00000  Uiso   1.00
H33    H     0.25449   0.59328   0.83100   0.00000  Uiso   1.00
H34    H     0.21851   0.38561   0.77704   0.00000  Uiso   1.00
H35    H     0.94569   0.37062   0.20540   0.00000  Uiso   1.00
H36    H     0.32092   0.73029   0.71911   0.00000  Uiso   1.00
H37    H     0.24504   0.29236   0.60533   0.00000  Uiso   1.00
O38    O     0.82107   0.32933   0.11759   0.00000  Uiso   1.00
O39    O     0.31337   0.80120   0.47960   0.00000  Uiso   1.00
O40    O     0.21382   0.22665   0.33032   0.00000  Uiso   1.00
N41    N     0.87653   0.35818   0.87302   0.00000  Uiso   1.00
N42    N     0.22735   0.69445   0.41840   0.00000  Uiso   1.00
N43    N     0.15642   0.28504   0.31200   0.00000  Uiso   1.00
N44    N     0.93516   0.37114   0.08909   0.00000  Uiso   1.00
N45    N     0.28597   0.70742   0.63446   0.00000  Uiso   1.00
N46    N     0.21504   0.29801   0.52806   0.00000  Uiso   1.00
C47    C     0.55529   0.63687   0.18215   0.00000  Uiso   1.00
C48    C     0.57598   0.61537   0.33349   0.00000  Uiso   1.00
C49    C     0.60059   0.57186   0.34038   0.00000  Uiso   1.00
C50    C     0.61664   0.55852   0.49035   0.00000  Uiso   1.00
C51    C     0.65000   0.52068   0.70435   0.00000  Uiso   1.00
C52    C     0.48329   0.61937   0.20821   0.00000  Uiso   1.00
C53    C     0.42998   0.57922   0.10974   0.00000  Uiso   1.00
C54    C     0.36801   0.56926   0.15424   0.00000  Uiso   1.00
C55    C     0.25748   0.53766   0.17367   0.00000  Uiso   1.00
C56    C     0.59613   0.71265   0.17889   0.00000  Uiso   1.00
C57    C     0.63768   0.75094   0.05576   0.00000  Uiso   1.00
C58    C     0.67071   0.81952   0.07557   0.00000  Uiso   1.00
C59    C     0.73538   0.93276   0.04949   0.00000  Uiso   1.00
C60    C     0.54004   0.69056   0.43624   0.00000  Uiso   1.00
C61    C     0.56769   0.64454   0.47150   0.00000  Uiso   1.00
C62    C     0.58372   0.63126   0.62150   0.00000  Uiso   1.00
C63    C     0.60835   0.58774   0.62861   0.00000  Uiso   1.00
C64    C     0.47501   0.64853   0.34621   0.00000  Uiso   1.00
C65    C     0.41311   0.63863   0.39086   0.00000  Uiso   1.00
C66    C     0.35971   0.59847   0.29250   0.00000  Uiso   1.00
C67    C     0.58785   0.74182   0.31690   0.00000  Uiso   1.00
C68    C     0.62082   0.81035   0.33689   0.00000  Uiso   1.00
C69    C     0.66241   0.84874   0.21383   0.00000  Uiso   1.00
H70    H     0.56173   0.61416   0.07471   0.00000  Uiso   1.00
H71    H     0.60698   0.54929   0.23355   0.00000  Uiso   1.00
H72    H     0.43640   0.55666   0.00294   0.00000  Uiso   1.00
H73    H     0.64408   0.72836   0.94898   0.00000  Uiso   1.00
H74    H     0.65348   0.49022   0.47052   0.00000  Uiso   1.00
H75    H     0.29381   0.50578   0.98425   0.00000  Uiso   1.00
H76    H     0.73173   0.86783   0.87046   0.00000  Uiso   1.00
H77    H     0.53359   0.71327   0.54369   0.00000  Uiso   1.00
H78    H     0.57730   0.65384   0.72828   0.00000  Uiso   1.00
H79    H     0.40672   0.66121   0.49766   0.00000  Uiso   1.00
H80    H     0.61439   0.83290   0.44371   0.00000  Uiso   1.00
H81    H     0.62938   0.57507   0.87206   0.00000  Uiso   1.00
H82    H     0.26971   0.59063   0.38578   0.00000  Uiso   1.00
H83    H     0.70764   0.95268   0.27200   0.00000  Uiso   1.00
O84    O     0.67067   0.49175   0.78426   0.00000  Uiso   1.00
O85    O     0.19880   0.51217   0.14627   0.00000  Uiso   1.00
O86    O     0.77335   0.98717   0.99699   0.00000  Uiso   1.00
N87    N     0.64182   0.51835   0.53969   0.00000  Uiso   1.00
N88    N     0.30555   0.53289   0.08506   0.00000  Uiso   1.00
N89    N     0.71496   0.87138   0.97866   0.00000  Uiso   1.00
N90    N     0.62886   0.56401   0.75576   0.00000  Uiso   1.00
N91    N     0.29258   0.57855   0.30113   0.00000  Uiso   1.00
N92    N     0.70199   0.91704   0.19473   0.00000  Uiso   1.00
C93    C     0.36313   0.91842   0.84882   0.00000  Uiso   1.00
C94    C     0.38463   0.96061   0.00016   0.00000  Uiso   1.00
C95    C     0.42814   0.02873   0.00705   0.00000  Uiso   1.00
C96    C     0.44148   0.05812   0.15701   0.00000  Uiso   1.00
C97    C     0.47932   0.12931   0.37101   0.00000  Uiso   1.00
C98    C     0.38063   0.86392   0.87487   0.00000  Uiso   1.00
C99    C     0.42078   0.85076   0.77641   0.00000  Uiso   1.00
C100   C     0.43074   0.79875   0.82091   0.00000  Uiso   1.00
C101   C     0.46234   0.71982   0.84034   0.00000  Uiso   1.00
C102   C     0.28735   0.88348   0.84556   0.00000  Uiso   1.00
C103   C     0.24906   0.88674   0.72243   0.00000  Uiso   1.00
C104   C     0.18048   0.85119   0.74224   0.00000  Uiso   1.00
C105   C     0.06724   0.80262   0.71615   0.00000  Uiso   1.00
C106   C     0.30944   0.84948   0.10291   0.00000  Uiso   1.00
C107   C     0.35546   0.92316   0.13816   0.00000  Uiso   1.00
C108   C     0.36874   0.95245   0.28816   0.00000  Uiso   1.00
C109   C     0.41226   0.02061   0.29527   0.00000  Uiso   1.00
C110   C     0.35147   0.82648   0.01288   0.00000  Uiso   1.00
C111   C     0.36137   0.77448   0.05753   0.00000  Uiso   1.00
C112   C     0.40153   0.76124   0.95917   0.00000  Uiso   1.00
C113   C     0.25818   0.84603   0.98357   0.00000  Uiso   1.00
C114   C     0.18965   0.81047   0.00356   0.00000  Uiso   1.00
C115   C     0.15126   0.81367   0.88049   0.00000  Uiso   1.00
H116   H     0.38584   0.94757   0.74137   0.00000  Uiso   1.00
H117   H     0.45071   0.05769   0.90021   0.00000  Uiso   1.00
H118   H     0.44334   0.87974   0.66961   0.00000  Uiso   1.00
H119   H     0.27164   0.91572   0.61565   0.00000  Uiso   1.00
H120   H     0.50978   0.16326   0.13719   0.00000  Uiso   1.00
H121   H     0.49422   0.78803   0.65091   0.00000  Uiso   1.00
H122   H     0.13217   0.86390   0.53713   0.00000  Uiso   1.00
H123   H     0.28673   0.82032   0.21036   0.00000  Uiso   1.00
H124   H     0.34616   0.92346   0.39494   0.00000  Uiso   1.00
H125   H     0.33879   0.74551   0.16433   0.00000  Uiso   1.00
H126   H     0.16710   0.78149   0.11037   0.00000  Uiso   1.00
H127   H     0.42493   0.05431   0.53873   0.00000  Uiso   1.00
H128   H     0.40937   0.67908   0.05245   0.00000  Uiso   1.00
H129   H     0.04732   0.75496   0.93867   0.00000  Uiso   1.00
O130   O     0.50825   0.17893   0.45093   0.00000  Uiso   1.00
O131   O     0.48783   0.68663   0.81293   0.00000  Uiso   1.00
O132   O     0.01283   0.78618   0.66365   0.00000  Uiso   1.00
N133   N     0.48165   0.12347   0.20636   0.00000  Uiso   1.00
N134   N     0.46711   0.77265   0.75173   0.00000  Uiso   1.00
N135   N     0.12862   0.84358   0.64533   0.00000  Uiso   1.00
N136   N     0.43599   0.06484   0.42242   0.00000  Uiso   1.00
N137   N     0.42145   0.71403   0.96780   0.00000  Uiso   1.00
N138   N     0.08296   0.78496   0.86140   0.00000  Uiso   1.00
C139   C     0.91842   0.55529   0.51549   0.00000  Uiso   1.00
C140   C     0.96061   0.57598   0.66682   0.00000  Uiso   1.00
C141   C     0.02873   0.60059   0.67371   0.00000  Uiso   1.00
C142   C     0.05812   0.61664   0.82368   0.00000  Uiso   1.00
C143   C     0.12931   0.65000   0.03768   0.00000  Uiso   1.00
C144   C     0.86392   0.48329   0.54154   0.00000  Uiso   1.00
C145   C     0.85076   0.42998   0.44307   0.00000  Uiso   1.00
C146   C     0.79875   0.36801   0.48758   0.00000  Uiso   1.00
C147   C     0.71982   0.25748   0.50700   0.00000  Uiso   1.00
C148   C     0.88348   0.59613   0.51223   0.00000  Uiso   1.00
C149   C     0.88674   0.63768   0.38910   0.00000  Uiso   1.00
C150   C     0.85119   0.67071   0.40890   0.00000  Uiso   1.00
C151   C     0.80262   0.73538   0.38282   0.00000  Uiso   1.00
C152   C     0.84948   0.54004   0.76957   0.00000  Uiso   1.00
C153   C     0.92316   0.56769   0.80483   0.00000  Uiso   1.00
C154   C     0.95245   0.58372   0.95483   0.00000  Uiso   1.00
C155   C     0.02061   0.60835   0.96194   0.00000  Uiso   1.00
C156   C     0.82648   0.47501   0.67954   0.00000  Uiso   1.00
C157   C     0.77448   0.41311   0.72419   0.00000  Uiso   1.00
C158   C     0.76124   0.35971   0.62583   0.00000  Uiso   1.00
C159   C     0.84603   0.58785   0.65024   0.00000  Uiso   1.00
C160   C     0.81047   0.62082   0.67023   0.00000  Uiso   1.00
C161   C     0.81367   0.66241   0.54716   0.00000  Uiso   1.00
H162   H     0.94757   0.56173   0.40804   0.00000  Uiso   1.00
H163   H     0.05769   0.60698   0.56688   0.00000  Uiso   1.00
H164   H     0.87974   0.43640   0.33628   0.00000  Uiso   1.00
H165   H     0.91572   0.64408   0.28232   0.00000  Uiso   1.00
H166   H     0.16326   0.65348   0.80386   0.00000  Uiso   1.00
H167   H     0.78803   0.29381   0.31758   0.00000  Uiso   1.00
H168   H     0.86390   0.73173   0.20379   0.00000  Uiso   1.00
H169   H     0.82032   0.53359   0.87702   0.00000  Uiso   1.00
H170   H     0.92346   0.57730   0.06161   0.00000  Uiso   1.00
H171   H     0.74551   0.40672   0.83100   0.00000  Uiso   1.00
H172   H     0.78149   0.61439   0.77704   0.00000  Uiso   1.00
H173   H     0.05431   0.62938   0.20540   0.00000  Uiso   1.00
H174   H     0.67908   0.26971   0.71911   0.00000  Uiso   1.00
H175   H     0.75496   0.70764   0.60533   0.00000  Uiso   1.00
O176   O     0.17893   0.67067   0.11759   0.00000  Uiso   1.00
O177   O     0.68663   0.19880   0.47960   0.00000  Uiso   1.00
O178   O     0.78618   0.77335   0.33032   0.00000  Uiso   1.00
N179   N     0.12347   0.64182   0.87302   0.00000  Uiso   1.00
N180   N     0.77265   0.30555   0.41840   0.00000  Uiso   1.00
N181   N     0.84358   0.71496   0.31200   0.00000  Uiso   1.00
N182   N     0.06484   0.62886   0.08909   0.00000  Uiso   1.00
N183   N     0.71403   0.29258   0.63446   0.00000  Uiso   1.00
N184   N     0.78496   0.70199   0.52806   0.00000  Uiso   1.00
C185   C     0.44471   0.36313   0.18215   0.00000  Uiso   1.00
C186   C     0.42402   0.38463   0.33349   0.00000  Uiso   1.00
C187   C     0.39941   0.42814   0.34038   0.00000  Uiso   1.00
C188   C     0.38336   0.44148   0.49035   0.00000  Uiso   1.00
C189   C     0.35000   0.47932   0.70435   0.00000  Uiso   1.00
C190   C     0.51671   0.38063   0.20821   0.00000  Uiso   1.00
C191   C     0.57002   0.42078   0.10974   0.00000  Uiso   1.00
C192   C     0.63199   0.43074   0.15424   0.00000  Uiso   1.00
C193   C     0.74252   0.46234   0.17367   0.00000  Uiso   1.00
C194   C     0.40387   0.28735   0.17889   0.00000  Uiso   1.00
C195   C     0.36232   0.24906   0.05576   0.00000  Uiso   1.00
C196   C     0.32929   0.18048   0.07557   0.00000  Uiso   1.00
C197   C     0.26462   0.06724   0.04949   0.00000  Uiso   1.00
C198   C     0.45996   0.30944   0.43624   0.00000  Uiso   1.00
C199   C     0.43231   0.35546   0.47150   0.00000  Uiso   1.00
C200   C     0.41628   0.36874   0.62150   0.00000  Uiso   1.00
C201   C     0.39165   0.41226   0.62861   0.00000  Uiso   1.00
C202   C     0.52499   0.35147   0.34621   0.00000  Uiso   1.00
C203   C     0.58689   0.36137   0.39086   0.00000  Uiso   1.00
C204   C     0.64029   0.40153   0.29250   0.00000  Uiso   1.00
C205   C     0.41215   0.25818   0.31690   0.00000  Uiso   1.00
C206   C     0.37918   0.18965   0.33689   0.00000  Uiso   1.00
C207   C     0.33759   0.15126   0.21383   0.00000  Uiso   1.00
H208   H     0.43827   0.38584   0.07471   0.00000  Uiso   1.00
H209   H     0.39302   0.45071   0.23355   0.00000  Uiso   1.00
H210   H     0.56360   0.44334   0.00294   0.00000  Uiso   1.00
H211   H     0.35592   0.27164   0.94898   0.00000  Uiso   1.00
H212   H     0.34652   0.50978   0.47052   0.00000  Uiso   1.00
H213   H     0.70619   0.49422   0.98425   0.00000  Uiso   1.00
H214   H     0.26827   0.13217   0.87046   0.00000  Uiso   1.00
H215   H     0.46641   0.28673   0.54369   0.00000  Uiso   1.00
H216   H     0.42270   0.34616   0.72828   0.00000  Uiso   1.00
H217   H     0.59328   0.33879   0.49766   0.00000  Uiso   1.00
H218   H     0.38561   0.16710   0.44371   0.00000  Uiso   1.00
H219   H     0.37062   0.42493   0.87206   0.00000  Uiso   1.00
H220   H     0.73029   0.40937   0.38578   0.00000  Uiso   1.00
H221   H     0.29236   0.04732   0.27200   0.00000  Uiso   1.00
O222   O     0.32933   0.50825   0.78426   0.00000  Uiso   1.00
O223   O     0.80120   0.48783   0.14627   0.00000  Uiso   1.00
O224   O     0.22665   0.01283   0.99699   0.00000  Uiso   1.00
N225   N     0.35818   0.48165   0.53969   0.00000  Uiso   1.00
N226   N     0.69445   0.46711   0.08506   0.00000  Uiso   1.00
N227   N     0.28504   0.12862   0.97866   0.00000  Uiso   1.00
N228   N     0.37114   0.43599   0.75576   0.00000  Uiso   1.00
N229   N     0.70742   0.42145   0.30113   0.00000  Uiso   1.00
N230   N     0.29801   0.08296   0.19473   0.00000  Uiso   1.00
C231   C     0.63687   0.08158   0.84882   0.00000  Uiso   1.00
C232   C     0.61537   0.03939   0.00016   0.00000  Uiso   1.00
C233   C     0.57186   0.97127   0.00705   0.00000  Uiso   1.00
C234   C     0.55852   0.94188   0.15701   0.00000  Uiso   1.00
C235   C     0.52068   0.87069   0.37101   0.00000  Uiso   1.00
C236   C     0.61937   0.13608   0.87487   0.00000  Uiso   1.00
C237   C     0.57922   0.14924   0.77641   0.00000  Uiso   1.00
C238   C     0.56926   0.20125   0.82091   0.00000  Uiso   1.00
C239   C     0.53766   0.28018   0.84034   0.00000  Uiso   1.00
C240   C     0.71265   0.11652   0.84556   0.00000  Uiso   1.00
C241   C     0.75094   0.11326   0.72243   0.00000  Uiso   1.00
C242   C     0.81952   0.14881   0.74224   0.00000  Uiso   1.00
C243   C     0.93276   0.19738   0.71615   0.00000  Uiso   1.00
C244   C     0.69056   0.15052   0.10291   0.00000  Uiso   1.00
C245   C     0.64454   0.07684   0.13816   0.00000  Uiso   1.00
C246   C     0.63126   0.04755   0.28816   0.00000  Uiso   1.00
C247   C     0.58774   0.97939   0.29527   0.00000  Uiso   1.00
C248   C     0.64853   0.17352   0.01288   0.00000  Uiso   1.00
C249   C     0.63863   0.22552   0.05753   0.00000  Uiso   1.00
C250   C     0.59847   0.23876   0.95917   0.00000  Uiso   1.00
C251   C     0.74182   0.15397   0.98357   0.00000  Uiso   1.00
C252   C     0.81035   0.18953   0.00356   0.00000  Uiso   1.00
C253   C     0.84874   0.18633   0.88049   0.00000  Uiso   1.00
H254   H     0.61416   0.05243   0.74137   0.00000  Uiso   1.00
H255   H     0.54929   0.94231   0.90021   0.00000  Uiso   1.00
H256   H     0.55666   0.12026   0.66961   0.00000  Uiso   1.00
H257   H     0.72836   0.08428   0.61565   0.00000  Uiso   1.00
H258   H     0.49022   0.83674   0.13719   0.00000  Uiso   1.00
H259   H     0.50578   0.21197   0.65091   0.00000  Uiso   1.00
H260   H     0.86783   0.13610   0.53713   0.00000  Uiso   1.00
H261   H     0.71327   0.17968   0.21036   0.00000  Uiso   1.00
H262   H     0.65384   0.07654   0.39494   0.00000  Uiso   1.00
H263   H     0.66121   0.25449   0.16433   0.00000  Uiso   1.00
H264   H     0.83290   0.21851   0.11037   0.00000  Uiso   1.00
H265   H     0.57507   0.94569   0.53873   0.00000  Uiso   1.00
H266   H     0.59063   0.32092   0.05245   0.00000  Uiso   1.00
H267   H     0.95268   0.24504   0.93867   0.00000  Uiso   1.00
O268   O     0.49175   0.82107   0.45093   0.00000  Uiso   1.00
O269   O     0.51217   0.31337   0.81293   0.00000  Uiso   1.00
O270   O     0.98717   0.21382   0.66365   0.00000  Uiso   1.00
N271   N     0.51835   0.87653   0.20636   0.00000  Uiso   1.00
N272   N     0.53289   0.22735   0.75173   0.00000  Uiso   1.00
N273   N     0.87138   0.15642   0.64533   0.00000  Uiso   1.00
N274   N     0.56401   0.93516   0.42242   0.00000  Uiso   1.00
N275   N     0.57855   0.28597   0.96780   0.00000  Uiso   1.00
N276   N     0.91704   0.21504   0.86140   0.00000  Uiso   1.00
