data_job_05079
_audit_creation_date              2018-12-19
_audit_creation_method            'Materials Studio'
_symmetry_space_group_name_H-M    'P1'
_symmetry_Int_Tables_number       1
_symmetry_cell_setting            triclinic
loop_
_symmetry_equiv_pos_as_xyz
  x,y,z
_cell_length_a                    26.1630
_cell_length_b                    12.3593
_cell_length_c                    14.0852
_cell_angle_alpha                 90.0000
_cell_angle_beta                  90.0000
_cell_angle_gamma                 90.0000
loop_
_atom_site_label
_atom_site_type_symbol
_atom_site_fract_x
_atom_site_fract_y
_atom_site_fract_z
_atom_site_U_iso_or_equiv
_atom_site_adp_type
_atom_site_occupancy
C1     C     0.83539   0.22354   0.20243   0.00000  Uiso   1.00
C2     C     0.83721   0.32759   0.26052   0.00000  Uiso   1.00
C3     C     0.79519   0.38742   0.28981   0.00000  Uiso   1.00
C4     C     0.80489   0.48021   0.34237   0.00000  Uiso   1.00
C5     C     0.80013   0.63697   0.42912   0.00000  Uiso   1.00
C6     C     0.86800   0.24429   0.11456   0.00000  Uiso   1.00
C7     C     0.85186   0.23406   0.02113   0.00000  Uiso   1.00
C8     C     0.88749   0.25671   0.95082   0.00000  Uiso   1.00
C9     C     0.93053   0.28406   0.81097   0.00000  Uiso   1.00
C10    C     0.86397   0.13878   0.26047   0.00000  Uiso   1.00
C11    C     0.84445   0.03982   0.28970   0.00000  Uiso   1.00
C12    C     0.87669   0.97363   0.34221   0.00000  Uiso   1.00
C13    C     0.91348   0.83716   0.42891   0.00000  Uiso   1.00
C14    C     0.92735   0.28193   0.24369   0.00000  Uiso   1.00
C15    C     0.88717   0.35930   0.28293   0.00000  Uiso   1.00
C16    C     0.89694   0.45202   0.33546   0.00000  Uiso   1.00
C17    C     0.85493   0.51198   0.36482   0.00000  Uiso   1.00
C18    C     0.91795   0.27600   0.13697   0.00000  Uiso   1.00
C19    C     0.95361   0.29866   0.06678   0.00000  Uiso   1.00
C20    C     0.93753   0.28848   0.97327   0.00000  Uiso   1.00
C21    C     0.91392   0.17049   0.28288   0.00000  Uiso   1.00
C22    C     0.94620   0.10443   0.33536   0.00000  Uiso   1.00
C23    C     0.92673   0.00540   0.36466   0.00000  Uiso   1.00
H24    H     0.79650   0.19885   0.18497   0.00000  Uiso   1.00
H25    H     0.75654   0.36286   0.27244   0.00000  Uiso   1.00
H26    H     0.81321   0.20951   0.00381   0.00000  Uiso   1.00
H27    H     0.80580   0.01531   0.27234   0.00000  Uiso   1.00
H28    H     0.73426   0.55870   0.37927   0.00000  Uiso   1.00
H29    H     0.85375   0.23531   0.81284   0.00000  Uiso   1.00
H30    H     0.83813   0.82580   0.37909   0.00000  Uiso   1.00
H31    H     0.96624   0.30662   0.26114   0.00000  Uiso   1.00
H32    H     0.93560   0.47654   0.35279   0.00000  Uiso   1.00
H33    H     0.99226   0.32319   0.08415   0.00000  Uiso   1.00
H34    H     0.98485   0.12899   0.35269   0.00000  Uiso   1.00
H35    H     0.87959   0.65097   0.44448   0.00000  Uiso   1.00
H36    H     0.99908   0.32758   0.87805   0.00000  Uiso   1.00
H37    H     0.98346   0.91807   0.44430   0.00000  Uiso   1.00
O38    O     0.78371   0.71469   0.47077   0.00000  Uiso   1.00
O39    O     0.94047   0.29039   0.72763   0.00000  Uiso   1.00
O40    O     0.91997   0.75313   0.47055   0.00000  Uiso   1.00
N41    N     0.77267   0.55708   0.38206   0.00000  Uiso   1.00
N42    N     0.88438   0.25475   0.85248   0.00000  Uiso   1.00
N43    N     0.86978   0.87188   0.38185   0.00000  Uiso   1.00
N44    N     0.85087   0.60673   0.41715   0.00000  Uiso   1.00
N45    N     0.96258   0.30440   0.88757   0.00000  Uiso   1.00
N46    N     0.94798   0.92153   0.41694   0.00000  Uiso   1.00
C47    C     0.33539   0.72354   0.20243   0.00000  Uiso   1.00
C48    C     0.33721   0.82759   0.26052   0.00000  Uiso   1.00
C49    C     0.29519   0.88742   0.28981   0.00000  Uiso   1.00
C50    C     0.30489   0.98021   0.34237   0.00000  Uiso   1.00
C51    C     0.30013   0.13697   0.42912   0.00000  Uiso   1.00
C52    C     0.36800   0.74429   0.11456   0.00000  Uiso   1.00
C53    C     0.35186   0.73406   0.02113   0.00000  Uiso   1.00
C54    C     0.38749   0.75671   0.95082   0.00000  Uiso   1.00
C55    C     0.43053   0.78406   0.81097   0.00000  Uiso   1.00
C56    C     0.36397   0.63878   0.26047   0.00000  Uiso   1.00
C57    C     0.34445   0.53982   0.28970   0.00000  Uiso   1.00
C58    C     0.37669   0.47363   0.34221   0.00000  Uiso   1.00
C59    C     0.41348   0.33716   0.42891   0.00000  Uiso   1.00
C60    C     0.42735   0.78193   0.24369   0.00000  Uiso   1.00
C61    C     0.38717   0.85930   0.28293   0.00000  Uiso   1.00
C62    C     0.39694   0.95202   0.33546   0.00000  Uiso   1.00
C63    C     0.35493   0.01198   0.36482   0.00000  Uiso   1.00
C64    C     0.41795   0.77600   0.13697   0.00000  Uiso   1.00
C65    C     0.45361   0.79866   0.06678   0.00000  Uiso   1.00
C66    C     0.43753   0.78848   0.97327   0.00000  Uiso   1.00
C67    C     0.41392   0.67049   0.28288   0.00000  Uiso   1.00
C68    C     0.44620   0.60443   0.33536   0.00000  Uiso   1.00
C69    C     0.42673   0.50540   0.36466   0.00000  Uiso   1.00
H70    H     0.29650   0.69885   0.18497   0.00000  Uiso   1.00
H71    H     0.25654   0.86286   0.27244   0.00000  Uiso   1.00
H72    H     0.31321   0.70951   0.00381   0.00000  Uiso   1.00
H73    H     0.30580   0.51531   0.27234   0.00000  Uiso   1.00
H74    H     0.23426   0.05870   0.37927   0.00000  Uiso   1.00
H75    H     0.35375   0.73531   0.81284   0.00000  Uiso   1.00
H76    H     0.33813   0.32580   0.37909   0.00000  Uiso   1.00
H77    H     0.46624   0.80662   0.26114   0.00000  Uiso   1.00
H78    H     0.43560   0.97654   0.35279   0.00000  Uiso   1.00
H79    H     0.49226   0.82319   0.08415   0.00000  Uiso   1.00
H80    H     0.48485   0.62899   0.35269   0.00000  Uiso   1.00
H81    H     0.37959   0.15097   0.44448   0.00000  Uiso   1.00
H82    H     0.49908   0.82758   0.87805   0.00000  Uiso   1.00
H83    H     0.48346   0.41807   0.44430   0.00000  Uiso   1.00
O84    O     0.28371   0.21469   0.47077   0.00000  Uiso   1.00
O85    O     0.44047   0.79039   0.72763   0.00000  Uiso   1.00
O86    O     0.41997   0.25313   0.47055   0.00000  Uiso   1.00
N87    N     0.27267   0.05708   0.38206   0.00000  Uiso   1.00
N88    N     0.38438   0.75475   0.85248   0.00000  Uiso   1.00
N89    N     0.36978   0.37188   0.38185   0.00000  Uiso   1.00
N90    N     0.35087   0.10673   0.41715   0.00000  Uiso   1.00
N91    N     0.46258   0.80440   0.88757   0.00000  Uiso   1.00
N92    N     0.44798   0.42153   0.41694   0.00000  Uiso   1.00
C93    C     0.16461   0.77646   0.70243   0.00000  Uiso   1.00
C94    C     0.16279   0.67241   0.76052   0.00000  Uiso   1.00
C95    C     0.20481   0.61258   0.78981   0.00000  Uiso   1.00
C96    C     0.19511   0.51979   0.84237   0.00000  Uiso   1.00
C97    C     0.19987   0.36303   0.92912   0.00000  Uiso   1.00
C98    C     0.13200   0.75571   0.61456   0.00000  Uiso   1.00
C99    C     0.14814   0.76594   0.52113   0.00000  Uiso   1.00
C100   C     0.11251   0.74329   0.45082   0.00000  Uiso   1.00
C101   C     0.06947   0.71594   0.31097   0.00000  Uiso   1.00
C102   C     0.13603   0.86122   0.76047   0.00000  Uiso   1.00
C103   C     0.15555   0.96018   0.78970   0.00000  Uiso   1.00
C104   C     0.12331   0.02637   0.84221   0.00000  Uiso   1.00
C105   C     0.08652   0.16284   0.92891   0.00000  Uiso   1.00
C106   C     0.07265   0.71807   0.74369   0.00000  Uiso   1.00
C107   C     0.11283   0.64070   0.78293   0.00000  Uiso   1.00
C108   C     0.10306   0.54798   0.83546   0.00000  Uiso   1.00
C109   C     0.14507   0.48802   0.86482   0.00000  Uiso   1.00
C110   C     0.08205   0.72400   0.63697   0.00000  Uiso   1.00
C111   C     0.04639   0.70134   0.56678   0.00000  Uiso   1.00
C112   C     0.06247   0.71152   0.47327   0.00000  Uiso   1.00
C113   C     0.08608   0.82951   0.78288   0.00000  Uiso   1.00
C114   C     0.05380   0.89557   0.83536   0.00000  Uiso   1.00
C115   C     0.07327   0.99460   0.86466   0.00000  Uiso   1.00
H116   H     0.20350   0.80115   0.68497   0.00000  Uiso   1.00
H117   H     0.24346   0.63714   0.77244   0.00000  Uiso   1.00
H118   H     0.18679   0.79049   0.50381   0.00000  Uiso   1.00
H119   H     0.19420   0.98469   0.77234   0.00000  Uiso   1.00
H120   H     0.26574   0.44130   0.87927   0.00000  Uiso   1.00
H121   H     0.14625   0.76469   0.31284   0.00000  Uiso   1.00
H122   H     0.16187   0.17420   0.87909   0.00000  Uiso   1.00
H123   H     0.03376   0.69338   0.76114   0.00000  Uiso   1.00
H124   H     0.06440   0.52346   0.85279   0.00000  Uiso   1.00
H125   H     0.00774   0.67681   0.58415   0.00000  Uiso   1.00
H126   H     0.01515   0.87101   0.85269   0.00000  Uiso   1.00
H127   H     0.12041   0.34903   0.94448   0.00000  Uiso   1.00
H128   H     0.00092   0.67242   0.37805   0.00000  Uiso   1.00
H129   H     0.01654   0.08193   0.94430   0.00000  Uiso   1.00
O130   O     0.21629   0.28531   0.97077   0.00000  Uiso   1.00
O131   O     0.05953   0.70961   0.22763   0.00000  Uiso   1.00
O132   O     0.08003   0.24687   0.97055   0.00000  Uiso   1.00
N133   N     0.22733   0.44292   0.88206   0.00000  Uiso   1.00
N134   N     0.11562   0.74525   0.35248   0.00000  Uiso   1.00
N135   N     0.13022   0.12812   0.88185   0.00000  Uiso   1.00
N136   N     0.14913   0.39327   0.91715   0.00000  Uiso   1.00
N137   N     0.03742   0.69560   0.38757   0.00000  Uiso   1.00
N138   N     0.05202   0.07847   0.91694   0.00000  Uiso   1.00
C139   C     0.66461   0.27646   0.70243   0.00000  Uiso   1.00
C140   C     0.66279   0.17241   0.76052   0.00000  Uiso   1.00
C141   C     0.70481   0.11258   0.78981   0.00000  Uiso   1.00
C142   C     0.69511   0.01979   0.84237   0.00000  Uiso   1.00
C143   C     0.69987   0.86303   0.92912   0.00000  Uiso   1.00
C144   C     0.63200   0.25571   0.61456   0.00000  Uiso   1.00
C145   C     0.64814   0.26594   0.52113   0.00000  Uiso   1.00
C146   C     0.61251   0.24329   0.45082   0.00000  Uiso   1.00
C147   C     0.56947   0.21594   0.31097   0.00000  Uiso   1.00
C148   C     0.63603   0.36122   0.76047   0.00000  Uiso   1.00
C149   C     0.65555   0.46018   0.78970   0.00000  Uiso   1.00
C150   C     0.62331   0.52637   0.84221   0.00000  Uiso   1.00
C151   C     0.58652   0.66284   0.92891   0.00000  Uiso   1.00
C152   C     0.57265   0.21807   0.74369   0.00000  Uiso   1.00
C153   C     0.61283   0.14070   0.78293   0.00000  Uiso   1.00
C154   C     0.60306   0.04798   0.83546   0.00000  Uiso   1.00
C155   C     0.64507   0.98802   0.86482   0.00000  Uiso   1.00
C156   C     0.58205   0.22400   0.63697   0.00000  Uiso   1.00
C157   C     0.54639   0.20134   0.56678   0.00000  Uiso   1.00
C158   C     0.56247   0.21152   0.47327   0.00000  Uiso   1.00
C159   C     0.58608   0.32951   0.78288   0.00000  Uiso   1.00
C160   C     0.55380   0.39557   0.83536   0.00000  Uiso   1.00
C161   C     0.57327   0.49460   0.86466   0.00000  Uiso   1.00
H162   H     0.70350   0.30115   0.68497   0.00000  Uiso   1.00
H163   H     0.74346   0.13714   0.77244   0.00000  Uiso   1.00
H164   H     0.68679   0.29049   0.50381   0.00000  Uiso   1.00
H165   H     0.69420   0.48469   0.77234   0.00000  Uiso   1.00
H166   H     0.76574   0.94130   0.87927   0.00000  Uiso   1.00
H167   H     0.64625   0.26469   0.31284   0.00000  Uiso   1.00
H168   H     0.66187   0.67420   0.87909   0.00000  Uiso   1.00
H169   H     0.53376   0.19338   0.76114   0.00000  Uiso   1.00
H170   H     0.56440   0.02346   0.85279   0.00000  Uiso   1.00
H171   H     0.50774   0.17681   0.58415   0.00000  Uiso   1.00
H172   H     0.51515   0.37101   0.85269   0.00000  Uiso   1.00
H173   H     0.62041   0.84903   0.94448   0.00000  Uiso   1.00
H174   H     0.50092   0.17242   0.37805   0.00000  Uiso   1.00
H175   H     0.51654   0.58193   0.94430   0.00000  Uiso   1.00
O176   O     0.71629   0.78531   0.97077   0.00000  Uiso   1.00
O177   O     0.55953   0.20961   0.22763   0.00000  Uiso   1.00
O178   O     0.58003   0.74687   0.97055   0.00000  Uiso   1.00
N179   N     0.72733   0.94292   0.88206   0.00000  Uiso   1.00
N180   N     0.61562   0.24525   0.35248   0.00000  Uiso   1.00
N181   N     0.63022   0.62812   0.88185   0.00000  Uiso   1.00
N182   N     0.64913   0.89327   0.91715   0.00000  Uiso   1.00
N183   N     0.53742   0.19560   0.38757   0.00000  Uiso   1.00
N184   N     0.55202   0.57847   0.91694   0.00000  Uiso   1.00
C185   C     0.16461   0.22354   0.29757   0.00000  Uiso   1.00
C186   C     0.16279   0.32759   0.23948   0.00000  Uiso   1.00
C187   C     0.20481   0.38742   0.21019   0.00000  Uiso   1.00
C188   C     0.19511   0.48021   0.15763   0.00000  Uiso   1.00
C189   C     0.19987   0.63697   0.07088   0.00000  Uiso   1.00
C190   C     0.13200   0.24429   0.38544   0.00000  Uiso   1.00
C191   C     0.14814   0.23406   0.47887   0.00000  Uiso   1.00
C192   C     0.11251   0.25671   0.54918   0.00000  Uiso   1.00
C193   C     0.06947   0.28406   0.68903   0.00000  Uiso   1.00
C194   C     0.13603   0.13878   0.23953   0.00000  Uiso   1.00
C195   C     0.15555   0.03982   0.21030   0.00000  Uiso   1.00
C196   C     0.12331   0.97363   0.15779   0.00000  Uiso   1.00
C197   C     0.08652   0.83716   0.07109   0.00000  Uiso   1.00
C198   C     0.07265   0.28193   0.25631   0.00000  Uiso   1.00
C199   C     0.11283   0.35930   0.21707   0.00000  Uiso   1.00
C200   C     0.10306   0.45202   0.16454   0.00000  Uiso   1.00
C201   C     0.14507   0.51198   0.13518   0.00000  Uiso   1.00
C202   C     0.08205   0.27600   0.36303   0.00000  Uiso   1.00
C203   C     0.04639   0.29866   0.43322   0.00000  Uiso   1.00
C204   C     0.06247   0.28848   0.52673   0.00000  Uiso   1.00
C205   C     0.08608   0.17049   0.21712   0.00000  Uiso   1.00
C206   C     0.05380   0.10443   0.16464   0.00000  Uiso   1.00
C207   C     0.07327   0.00540   0.13534   0.00000  Uiso   1.00
H208   H     0.20350   0.19885   0.31503   0.00000  Uiso   1.00
H209   H     0.24346   0.36286   0.22756   0.00000  Uiso   1.00
H210   H     0.18679   0.20951   0.49619   0.00000  Uiso   1.00
H211   H     0.19420   0.01531   0.22766   0.00000  Uiso   1.00
H212   H     0.26574   0.55870   0.12073   0.00000  Uiso   1.00
H213   H     0.14625   0.23531   0.68716   0.00000  Uiso   1.00
H214   H     0.16187   0.82580   0.12091   0.00000  Uiso   1.00
H215   H     0.03376   0.30662   0.23886   0.00000  Uiso   1.00
H216   H     0.06440   0.47654   0.14721   0.00000  Uiso   1.00
H217   H     0.00774   0.32319   0.41585   0.00000  Uiso   1.00
H218   H     0.01515   0.12899   0.14731   0.00000  Uiso   1.00
H219   H     0.12041   0.65097   0.05552   0.00000  Uiso   1.00
H220   H     0.00092   0.32758   0.62195   0.00000  Uiso   1.00
H221   H     0.01654   0.91807   0.05570   0.00000  Uiso   1.00
O222   O     0.21629   0.71469   0.02923   0.00000  Uiso   1.00
O223   O     0.05953   0.29039   0.77237   0.00000  Uiso   1.00
O224   O     0.08003   0.75313   0.02945   0.00000  Uiso   1.00
N225   N     0.22733   0.55708   0.11794   0.00000  Uiso   1.00
N226   N     0.11562   0.25475   0.64752   0.00000  Uiso   1.00
N227   N     0.13022   0.87188   0.11815   0.00000  Uiso   1.00
N228   N     0.14913   0.60673   0.08285   0.00000  Uiso   1.00
N229   N     0.03742   0.30440   0.61243   0.00000  Uiso   1.00
N230   N     0.05202   0.92153   0.08306   0.00000  Uiso   1.00
C231   C     0.66461   0.72354   0.29757   0.00000  Uiso   1.00
C232   C     0.66279   0.82759   0.23948   0.00000  Uiso   1.00
C233   C     0.70481   0.88742   0.21019   0.00000  Uiso   1.00
C234   C     0.69511   0.98021   0.15763   0.00000  Uiso   1.00
C235   C     0.69987   0.13697   0.07088   0.00000  Uiso   1.00
C236   C     0.63200   0.74429   0.38544   0.00000  Uiso   1.00
C237   C     0.64814   0.73406   0.47887   0.00000  Uiso   1.00
C238   C     0.61251   0.75671   0.54918   0.00000  Uiso   1.00
C239   C     0.56947   0.78406   0.68903   0.00000  Uiso   1.00
C240   C     0.63603   0.63878   0.23953   0.00000  Uiso   1.00
C241   C     0.65555   0.53982   0.21030   0.00000  Uiso   1.00
C242   C     0.62331   0.47363   0.15779   0.00000  Uiso   1.00
C243   C     0.58652   0.33716   0.07109   0.00000  Uiso   1.00
C244   C     0.57265   0.78193   0.25631   0.00000  Uiso   1.00
C245   C     0.61283   0.85930   0.21707   0.00000  Uiso   1.00
C246   C     0.60306   0.95202   0.16454   0.00000  Uiso   1.00
C247   C     0.64507   0.01198   0.13518   0.00000  Uiso   1.00
C248   C     0.58205   0.77600   0.36303   0.00000  Uiso   1.00
C249   C     0.54639   0.79866   0.43322   0.00000  Uiso   1.00
C250   C     0.56247   0.78848   0.52673   0.00000  Uiso   1.00
C251   C     0.58608   0.67049   0.21712   0.00000  Uiso   1.00
C252   C     0.55380   0.60443   0.16464   0.00000  Uiso   1.00
C253   C     0.57327   0.50540   0.13534   0.00000  Uiso   1.00
H254   H     0.70350   0.69885   0.31503   0.00000  Uiso   1.00
H255   H     0.74346   0.86286   0.22756   0.00000  Uiso   1.00
H256   H     0.68679   0.70951   0.49619   0.00000  Uiso   1.00
H257   H     0.69420   0.51531   0.22766   0.00000  Uiso   1.00
H258   H     0.76574   0.05870   0.12073   0.00000  Uiso   1.00
H259   H     0.64625   0.73531   0.68716   0.00000  Uiso   1.00
H260   H     0.66187   0.32580   0.12091   0.00000  Uiso   1.00
H261   H     0.53376   0.80662   0.23886   0.00000  Uiso   1.00
H262   H     0.56440   0.97654   0.14721   0.00000  Uiso   1.00
H263   H     0.50774   0.82319   0.41585   0.00000  Uiso   1.00
H264   H     0.51515   0.62899   0.14731   0.00000  Uiso   1.00
H265   H     0.62041   0.15097   0.05552   0.00000  Uiso   1.00
H266   H     0.50092   0.82758   0.62195   0.00000  Uiso   1.00
H267   H     0.51654   0.41807   0.05570   0.00000  Uiso   1.00
O268   O     0.71629   0.21469   0.02923   0.00000  Uiso   1.00
O269   O     0.55953   0.79039   0.77237   0.00000  Uiso   1.00
O270   O     0.58003   0.25313   0.02945   0.00000  Uiso   1.00
N271   N     0.72733   0.05708   0.11794   0.00000  Uiso   1.00
N272   N     0.61562   0.75475   0.64752   0.00000  Uiso   1.00
N273   N     0.63022   0.37188   0.11815   0.00000  Uiso   1.00
N274   N     0.64913   0.10673   0.08285   0.00000  Uiso   1.00
N275   N     0.53742   0.80440   0.61243   0.00000  Uiso   1.00
N276   N     0.55202   0.42153   0.08306   0.00000  Uiso   1.00
C277   C     0.83539   0.77646   0.79757   0.00000  Uiso   1.00
C278   C     0.83721   0.67241   0.73948   0.00000  Uiso   1.00
C279   C     0.79519   0.61258   0.71019   0.00000  Uiso   1.00
C280   C     0.80489   0.51979   0.65763   0.00000  Uiso   1.00
C281   C     0.80013   0.36303   0.57088   0.00000  Uiso   1.00
C282   C     0.86800   0.75571   0.88544   0.00000  Uiso   1.00
C283   C     0.85186   0.76594   0.97887   0.00000  Uiso   1.00
C284   C     0.88749   0.74329   0.04918   0.00000  Uiso   1.00
C285   C     0.93053   0.71594   0.18903   0.00000  Uiso   1.00
C286   C     0.86397   0.86122   0.73953   0.00000  Uiso   1.00
C287   C     0.84445   0.96018   0.71030   0.00000  Uiso   1.00
C288   C     0.87669   0.02637   0.65779   0.00000  Uiso   1.00
C289   C     0.91348   0.16284   0.57109   0.00000  Uiso   1.00
C290   C     0.92735   0.71807   0.75631   0.00000  Uiso   1.00
C291   C     0.88717   0.64070   0.71707   0.00000  Uiso   1.00
C292   C     0.89694   0.54798   0.66454   0.00000  Uiso   1.00
C293   C     0.85493   0.48802   0.63518   0.00000  Uiso   1.00
C294   C     0.91795   0.72400   0.86303   0.00000  Uiso   1.00
C295   C     0.95361   0.70134   0.93322   0.00000  Uiso   1.00
C296   C     0.93753   0.71152   0.02673   0.00000  Uiso   1.00
C297   C     0.91392   0.82951   0.71712   0.00000  Uiso   1.00
C298   C     0.94620   0.89557   0.66464   0.00000  Uiso   1.00
C299   C     0.92673   0.99460   0.63534   0.00000  Uiso   1.00
H300   H     0.79650   0.80115   0.81503   0.00000  Uiso   1.00
H301   H     0.75654   0.63714   0.72756   0.00000  Uiso   1.00
H302   H     0.81321   0.79049   0.99619   0.00000  Uiso   1.00
H303   H     0.80580   0.98469   0.72766   0.00000  Uiso   1.00
H304   H     0.73426   0.44130   0.62073   0.00000  Uiso   1.00
H305   H     0.85375   0.76469   0.18716   0.00000  Uiso   1.00
H306   H     0.83813   0.17420   0.62091   0.00000  Uiso   1.00
H307   H     0.96624   0.69338   0.73886   0.00000  Uiso   1.00
H308   H     0.93560   0.52346   0.64721   0.00000  Uiso   1.00
H309   H     0.99226   0.67681   0.91585   0.00000  Uiso   1.00
H310   H     0.98485   0.87101   0.64731   0.00000  Uiso   1.00
H311   H     0.87959   0.34903   0.55552   0.00000  Uiso   1.00
H312   H     0.99908   0.67242   0.12195   0.00000  Uiso   1.00
H313   H     0.98346   0.08193   0.55570   0.00000  Uiso   1.00
O314   O     0.78371   0.28531   0.52923   0.00000  Uiso   1.00
O315   O     0.94047   0.70961   0.27237   0.00000  Uiso   1.00
O316   O     0.91997   0.24687   0.52945   0.00000  Uiso   1.00
N317   N     0.77267   0.44292   0.61794   0.00000  Uiso   1.00
N318   N     0.88438   0.74525   0.14752   0.00000  Uiso   1.00
N319   N     0.86978   0.12812   0.61815   0.00000  Uiso   1.00
N320   N     0.85087   0.39327   0.58285   0.00000  Uiso   1.00
N321   N     0.96258   0.69560   0.11243   0.00000  Uiso   1.00
N322   N     0.94798   0.07847   0.58306   0.00000  Uiso   1.00
C323   C     0.33539   0.27646   0.79757   0.00000  Uiso   1.00
C324   C     0.33721   0.17241   0.73948   0.00000  Uiso   1.00
C325   C     0.29519   0.11258   0.71019   0.00000  Uiso   1.00
C326   C     0.30489   0.01979   0.65763   0.00000  Uiso   1.00
C327   C     0.30013   0.86303   0.57088   0.00000  Uiso   1.00
C328   C     0.36800   0.25571   0.88544   0.00000  Uiso   1.00
C329   C     0.35186   0.26594   0.97887   0.00000  Uiso   1.00
C330   C     0.38749   0.24329   0.04918   0.00000  Uiso   1.00
C331   C     0.43053   0.21594   0.18903   0.00000  Uiso   1.00
C332   C     0.36397   0.36122   0.73953   0.00000  Uiso   1.00
C333   C     0.34445   0.46018   0.71030   0.00000  Uiso   1.00
C334   C     0.37669   0.52637   0.65779   0.00000  Uiso   1.00
C335   C     0.41348   0.66284   0.57109   0.00000  Uiso   1.00
C336   C     0.42735   0.21807   0.75631   0.00000  Uiso   1.00
C337   C     0.38717   0.14070   0.71707   0.00000  Uiso   1.00
C338   C     0.39694   0.04798   0.66454   0.00000  Uiso   1.00
C339   C     0.35493   0.98802   0.63518   0.00000  Uiso   1.00
C340   C     0.41795   0.22400   0.86303   0.00000  Uiso   1.00
C341   C     0.45361   0.20134   0.93322   0.00000  Uiso   1.00
C342   C     0.43753   0.21152   0.02673   0.00000  Uiso   1.00
C343   C     0.41392   0.32951   0.71712   0.00000  Uiso   1.00
C344   C     0.44620   0.39557   0.66464   0.00000  Uiso   1.00
C345   C     0.42673   0.49460   0.63534   0.00000  Uiso   1.00
H346   H     0.29650   0.30115   0.81503   0.00000  Uiso   1.00
H347   H     0.25654   0.13714   0.72756   0.00000  Uiso   1.00
H348   H     0.31321   0.29049   0.99619   0.00000  Uiso   1.00
H349   H     0.30580   0.48469   0.72766   0.00000  Uiso   1.00
H350   H     0.23426   0.94130   0.62073   0.00000  Uiso   1.00
H351   H     0.35375   0.26469   0.18716   0.00000  Uiso   1.00
H352   H     0.33813   0.67420   0.62091   0.00000  Uiso   1.00
H353   H     0.46624   0.19338   0.73886   0.00000  Uiso   1.00
H354   H     0.43560   0.02346   0.64721   0.00000  Uiso   1.00
H355   H     0.49226   0.17681   0.91585   0.00000  Uiso   1.00
H356   H     0.48485   0.37101   0.64731   0.00000  Uiso   1.00
H357   H     0.37959   0.84903   0.55552   0.00000  Uiso   1.00
H358   H     0.49908   0.17242   0.12195   0.00000  Uiso   1.00
H359   H     0.48346   0.58193   0.55570   0.00000  Uiso   1.00
O360   O     0.28371   0.78531   0.52923   0.00000  Uiso   1.00
O361   O     0.44047   0.20961   0.27237   0.00000  Uiso   1.00
O362   O     0.41997   0.74687   0.52945   0.00000  Uiso   1.00
N363   N     0.27267   0.94292   0.61794   0.00000  Uiso   1.00
N364   N     0.38438   0.24525   0.14752   0.00000  Uiso   1.00
N365   N     0.36978   0.62812   0.61815   0.00000  Uiso   1.00
N366   N     0.35087   0.89327   0.58285   0.00000  Uiso   1.00
N367   N     0.46258   0.19560   0.11243   0.00000  Uiso   1.00
N368   N     0.44798   0.57847   0.58306   0.00000  Uiso   1.00
