data_job_01114
_audit_creation_date              2018-12-19
_audit_creation_method            'Materials Studio'
_symmetry_space_group_name_H-M    'P1'
_symmetry_Int_Tables_number       1
_symmetry_cell_setting            triclinic
loop_
_symmetry_equiv_pos_as_xyz
  x,y,z
_cell_length_a                    7.3090
_cell_length_b                    12.3692
_cell_length_c                    29.4374
_cell_angle_alpha                 90.0000
_cell_angle_beta                  100.8490
_cell_angle_gamma                 90.0000
loop_
_atom_site_label
_atom_site_type_symbol
_atom_site_fract_x
_atom_site_fract_y
_atom_site_fract_z
_atom_site_U_iso_or_equiv
_atom_site_adp_type
_atom_site_occupancy
C1     C     0.60841   0.40010   0.35265   0.00000  Uiso   1.00
C2     C     0.62932   0.37650   0.30304   0.00000  Uiso   1.00
C3     C     0.48910   0.38433   0.26420   0.00000  Uiso   1.00
C4     C     0.53628   0.35924   0.22190   0.00000  Uiso   1.00
C5     C     0.54121   0.32737   0.14537   0.00000  Uiso   1.00
C6     C     0.67042   0.29776   0.38016   0.00000  Uiso   1.00
C7     C     0.56475   0.23940   0.40616   0.00000  Uiso   1.00
C8     C     0.64655   0.14804   0.42878   0.00000  Uiso   1.00
C9     C     0.71532   0.99397   0.47200   0.00000  Uiso   1.00
C10    C     0.75378   0.48598   0.37060   0.00000  Uiso   1.00
C11    C     0.71822   0.58587   0.38858   0.00000  Uiso   1.00
C12    C     0.87021   0.65297   0.40317   0.00000  Uiso   1.00
C13    C     0.06843   0.79114   0.43156   0.00000  Uiso   1.00
C14    C     0.94156   0.34165   0.34659   0.00000  Uiso   1.00
C15    C     0.81028   0.34474   0.29975   0.00000  Uiso   1.00
C16    C     0.85769   0.31965   0.25749   0.00000  Uiso   1.00
C17    C     0.71756   0.32744   0.21860   0.00000  Uiso   1.00
C18    C     0.85137   0.26601   0.37686   0.00000  Uiso   1.00
C19    C     0.93335   0.17472   0.39945   0.00000  Uiso   1.00
C20    C     0.82783   0.11623   0.42548   0.00000  Uiso   1.00
C21    C     0.93474   0.45423   0.36731   0.00000  Uiso   1.00
C22    C     0.08682   0.52119   0.38187   0.00000  Uiso   1.00
C23    C     0.05150   0.62116   0.39987   0.00000  Uiso   1.00
H24    H     0.46753   0.42482   0.35522   0.00000  Uiso   1.00
H25    H     0.34907   0.40889   0.26676   0.00000  Uiso   1.00
H26    H     0.42473   0.26399   0.40870   0.00000  Uiso   1.00
H27    H     0.57817   0.61041   0.39113   0.00000  Uiso   1.00
H28    H     0.29752   0.37719   0.16725   0.00000  Uiso   1.00
H29    H     0.45707   0.07169   0.46655   0.00000  Uiso   1.00
H30    H     0.78064   0.80217   0.42949   0.00000  Uiso   1.00
H31    H     0.08245   0.31692   0.34403   0.00000  Uiso   1.00
H32    H     0.99774   0.29508   0.25496   0.00000  Uiso   1.00
H33    H     0.07339   0.15018   0.39690   0.00000  Uiso   1.00
H34    H     0.22683   0.49659   0.37932   0.00000  Uiso   1.00
H35    H     0.82401   0.28481   0.15766   0.00000  Uiso   1.00
H36    H     0.98355   0.97931   0.45697   0.00000  Uiso   1.00
H37    H     0.30712   0.70980   0.41990   0.00000  Uiso   1.00
O38    O     0.49393   0.31854   0.10407   0.00000  Uiso   1.00
O39    O     0.70325   0.91775   0.49675   0.00000  Uiso   1.00
O40    O     0.12777   0.87613   0.44812   0.00000  Uiso   1.00
N41    N     0.43307   0.35847   0.17721   0.00000  Uiso   1.00
N42    N     0.58222   0.07283   0.45704   0.00000  Uiso   1.00
N43    N     0.88474   0.75576   0.42240   0.00000  Uiso   1.00
N44    N     0.71636   0.30876   0.17206   0.00000  Uiso   1.00
N45    N     0.86552   0.02313   0.45188   0.00000  Uiso   1.00
N46    N     0.16803   0.70606   0.41724   0.00000  Uiso   1.00
C47    C     0.39159   0.90010   0.14735   0.00000  Uiso   1.00
C48    C     0.37068   0.87650   0.19696   0.00000  Uiso   1.00
C49    C     0.51090   0.88433   0.23580   0.00000  Uiso   1.00
C50    C     0.46372   0.85924   0.27810   0.00000  Uiso   1.00
C51    C     0.45879   0.82737   0.35463   0.00000  Uiso   1.00
C52    C     0.32958   0.79776   0.11984   0.00000  Uiso   1.00
C53    C     0.43525   0.73940   0.09384   0.00000  Uiso   1.00
C54    C     0.35345   0.64804   0.07122   0.00000  Uiso   1.00
C55    C     0.28468   0.49397   0.02800   0.00000  Uiso   1.00
C56    C     0.24622   0.98598   0.12940   0.00000  Uiso   1.00
C57    C     0.28178   0.08587   0.11142   0.00000  Uiso   1.00
C58    C     0.12979   0.15297   0.09683   0.00000  Uiso   1.00
C59    C     0.93157   0.29114   0.06844   0.00000  Uiso   1.00
C60    C     0.05844   0.84165   0.15341   0.00000  Uiso   1.00
C61    C     0.18972   0.84474   0.20025   0.00000  Uiso   1.00
C62    C     0.14231   0.81965   0.24251   0.00000  Uiso   1.00
C63    C     0.28244   0.82744   0.28140   0.00000  Uiso   1.00
C64    C     0.14863   0.76601   0.12314   0.00000  Uiso   1.00
C65    C     0.06665   0.67472   0.10055   0.00000  Uiso   1.00
C66    C     0.17217   0.61623   0.07452   0.00000  Uiso   1.00
C67    C     0.06526   0.95423   0.13269   0.00000  Uiso   1.00
C68    C     0.91318   0.02119   0.11813   0.00000  Uiso   1.00
C69    C     0.94850   0.12116   0.10013   0.00000  Uiso   1.00
H70    H     0.53247   0.92482   0.14478   0.00000  Uiso   1.00
H71    H     0.65093   0.90889   0.23324   0.00000  Uiso   1.00
H72    H     0.57527   0.76399   0.09130   0.00000  Uiso   1.00
H73    H     0.42183   0.11041   0.10887   0.00000  Uiso   1.00
H74    H     0.70248   0.87719   0.33275   0.00000  Uiso   1.00
H75    H     0.54293   0.57169   0.03345   0.00000  Uiso   1.00
H76    H     0.21936   0.30217   0.07051   0.00000  Uiso   1.00
H77    H     0.91755   0.81692   0.15597   0.00000  Uiso   1.00
H78    H     0.00226   0.79508   0.24504   0.00000  Uiso   1.00
H79    H     0.92661   0.65018   0.10310   0.00000  Uiso   1.00
H80    H     0.77317   0.99659   0.12068   0.00000  Uiso   1.00
H81    H     0.17599   0.78481   0.34234   0.00000  Uiso   1.00
H82    H     0.01645   0.47931   0.04303   0.00000  Uiso   1.00
H83    H     0.69288   0.20980   0.08010   0.00000  Uiso   1.00
O84    O     0.50607   0.81854   0.39593   0.00000  Uiso   1.00
O85    O     0.29675   0.41775   0.00325   0.00000  Uiso   1.00
O86    O     0.87223   0.37613   0.05188   0.00000  Uiso   1.00
N87    N     0.56693   0.85847   0.32279   0.00000  Uiso   1.00
N88    N     0.41778   0.57283   0.04296   0.00000  Uiso   1.00
N89    N     0.11526   0.25576   0.07760   0.00000  Uiso   1.00
N90    N     0.28364   0.80876   0.32794   0.00000  Uiso   1.00
N91    N     0.13448   0.52313   0.04812   0.00000  Uiso   1.00
N92    N     0.83197   0.20606   0.08276   0.00000  Uiso   1.00
C93    C     0.39159   0.59990   0.64735   0.00000  Uiso   1.00
C94    C     0.37068   0.62350   0.69696   0.00000  Uiso   1.00
C95    C     0.51090   0.61567   0.73580   0.00000  Uiso   1.00
C96    C     0.46372   0.64076   0.77810   0.00000  Uiso   1.00
C97    C     0.45879   0.67263   0.85463   0.00000  Uiso   1.00
C98    C     0.32958   0.70224   0.61984   0.00000  Uiso   1.00
C99    C     0.43525   0.76060   0.59384   0.00000  Uiso   1.00
C100   C     0.35345   0.85196   0.57122   0.00000  Uiso   1.00
C101   C     0.28468   0.00603   0.52800   0.00000  Uiso   1.00
C102   C     0.24622   0.51402   0.62940   0.00000  Uiso   1.00
C103   C     0.28178   0.41413   0.61142   0.00000  Uiso   1.00
C104   C     0.12979   0.34703   0.59683   0.00000  Uiso   1.00
C105   C     0.93157   0.20886   0.56844   0.00000  Uiso   1.00
C106   C     0.05844   0.65835   0.65341   0.00000  Uiso   1.00
C107   C     0.18972   0.65526   0.70025   0.00000  Uiso   1.00
C108   C     0.14231   0.68035   0.74251   0.00000  Uiso   1.00
C109   C     0.28244   0.67256   0.78140   0.00000  Uiso   1.00
C110   C     0.14863   0.73399   0.62314   0.00000  Uiso   1.00
C111   C     0.06665   0.82528   0.60055   0.00000  Uiso   1.00
C112   C     0.17217   0.88377   0.57452   0.00000  Uiso   1.00
C113   C     0.06526   0.54577   0.63269   0.00000  Uiso   1.00
C114   C     0.91318   0.47881   0.61813   0.00000  Uiso   1.00
C115   C     0.94850   0.37884   0.60013   0.00000  Uiso   1.00
H116   H     0.53247   0.57518   0.64478   0.00000  Uiso   1.00
H117   H     0.65093   0.59111   0.73324   0.00000  Uiso   1.00
H118   H     0.57527   0.73601   0.59130   0.00000  Uiso   1.00
H119   H     0.42183   0.38959   0.60887   0.00000  Uiso   1.00
H120   H     0.70248   0.62281   0.83275   0.00000  Uiso   1.00
H121   H     0.54293   0.92831   0.53345   0.00000  Uiso   1.00
H122   H     0.21936   0.19783   0.57051   0.00000  Uiso   1.00
H123   H     0.91755   0.68308   0.65597   0.00000  Uiso   1.00
H124   H     0.00226   0.70492   0.74504   0.00000  Uiso   1.00
H125   H     0.92661   0.84982   0.60310   0.00000  Uiso   1.00
H126   H     0.77317   0.50341   0.62068   0.00000  Uiso   1.00
H127   H     0.17599   0.71519   0.84234   0.00000  Uiso   1.00
H128   H     0.01645   0.02069   0.54303   0.00000  Uiso   1.00
H129   H     0.69288   0.29020   0.58010   0.00000  Uiso   1.00
O130   O     0.50607   0.68146   0.89593   0.00000  Uiso   1.00
O131   O     0.29675   0.08225   0.50325   0.00000  Uiso   1.00
O132   O     0.87223   0.12387   0.55188   0.00000  Uiso   1.00
N133   N     0.56693   0.64153   0.82279   0.00000  Uiso   1.00
N134   N     0.41778   0.92717   0.54296   0.00000  Uiso   1.00
N135   N     0.11526   0.24424   0.57760   0.00000  Uiso   1.00
N136   N     0.28364   0.69124   0.82794   0.00000  Uiso   1.00
N137   N     0.13448   0.97687   0.54812   0.00000  Uiso   1.00
N138   N     0.83197   0.29394   0.58276   0.00000  Uiso   1.00
C139   C     0.60841   0.09990   0.85265   0.00000  Uiso   1.00
C140   C     0.62932   0.12350   0.80304   0.00000  Uiso   1.00
C141   C     0.48910   0.11567   0.76420   0.00000  Uiso   1.00
C142   C     0.53628   0.14076   0.72190   0.00000  Uiso   1.00
C143   C     0.54121   0.17263   0.64537   0.00000  Uiso   1.00
C144   C     0.67042   0.20224   0.88016   0.00000  Uiso   1.00
C145   C     0.56475   0.26060   0.90616   0.00000  Uiso   1.00
C146   C     0.64655   0.35196   0.92878   0.00000  Uiso   1.00
C147   C     0.71532   0.50603   0.97200   0.00000  Uiso   1.00
C148   C     0.75378   0.01402   0.87060   0.00000  Uiso   1.00
C149   C     0.71822   0.91413   0.88858   0.00000  Uiso   1.00
C150   C     0.87021   0.84703   0.90317   0.00000  Uiso   1.00
C151   C     0.06843   0.70886   0.93156   0.00000  Uiso   1.00
C152   C     0.94156   0.15835   0.84659   0.00000  Uiso   1.00
C153   C     0.81028   0.15526   0.79975   0.00000  Uiso   1.00
C154   C     0.85769   0.18035   0.75749   0.00000  Uiso   1.00
C155   C     0.71756   0.17256   0.71860   0.00000  Uiso   1.00
C156   C     0.85137   0.23399   0.87686   0.00000  Uiso   1.00
C157   C     0.93335   0.32528   0.89945   0.00000  Uiso   1.00
C158   C     0.82783   0.38377   0.92548   0.00000  Uiso   1.00
C159   C     0.93474   0.04577   0.86731   0.00000  Uiso   1.00
C160   C     0.08682   0.97881   0.88187   0.00000  Uiso   1.00
C161   C     0.05150   0.87884   0.89987   0.00000  Uiso   1.00
H162   H     0.46753   0.07518   0.85522   0.00000  Uiso   1.00
H163   H     0.34907   0.09111   0.76676   0.00000  Uiso   1.00
H164   H     0.42473   0.23601   0.90870   0.00000  Uiso   1.00
H165   H     0.57817   0.88959   0.89113   0.00000  Uiso   1.00
H166   H     0.29752   0.12281   0.66725   0.00000  Uiso   1.00
H167   H     0.45707   0.42831   0.96655   0.00000  Uiso   1.00
H168   H     0.78064   0.69783   0.92949   0.00000  Uiso   1.00
H169   H     0.08245   0.18308   0.84403   0.00000  Uiso   1.00
H170   H     0.99774   0.20492   0.75496   0.00000  Uiso   1.00
H171   H     0.07339   0.34982   0.89690   0.00000  Uiso   1.00
H172   H     0.22683   0.00341   0.87932   0.00000  Uiso   1.00
H173   H     0.82401   0.21519   0.65766   0.00000  Uiso   1.00
H174   H     0.98355   0.52069   0.95697   0.00000  Uiso   1.00
H175   H     0.30712   0.79020   0.91990   0.00000  Uiso   1.00
O176   O     0.49393   0.18146   0.60407   0.00000  Uiso   1.00
O177   O     0.70325   0.58225   0.99675   0.00000  Uiso   1.00
O178   O     0.12777   0.62387   0.94812   0.00000  Uiso   1.00
N179   N     0.43307   0.14153   0.67721   0.00000  Uiso   1.00
N180   N     0.58222   0.42717   0.95704   0.00000  Uiso   1.00
N181   N     0.88474   0.74424   0.92240   0.00000  Uiso   1.00
N182   N     0.71636   0.19124   0.67206   0.00000  Uiso   1.00
N183   N     0.86552   0.47687   0.95188   0.00000  Uiso   1.00
N184   N     0.16803   0.79394   0.91724   0.00000  Uiso   1.00
