data_job_01384
_audit_creation_date              2018-12-19
_audit_creation_method            'Materials Studio'
_symmetry_space_group_name_H-M    'P1'
_symmetry_Int_Tables_number       1
_symmetry_cell_setting            triclinic
loop_
_symmetry_equiv_pos_as_xyz
  x,y,z
_cell_length_a                    30.4422
_cell_length_b                    15.3197
_cell_length_c                    11.2159
_cell_angle_alpha                 90.0000
_cell_angle_beta                  98.8724
_cell_angle_gamma                 90.0000
loop_
_atom_site_label
_atom_site_type_symbol
_atom_site_fract_x
_atom_site_fract_y
_atom_site_fract_z
_atom_site_U_iso_or_equiv
_atom_site_adp_type
_atom_site_occupancy
C1     C     0.62857   0.23411   0.23045   0.00000  Uiso   1.00
C2     C     0.60806   0.32249   0.25168   0.00000  Uiso   1.00
C3     C     0.57977   0.33962   0.33474   0.00000  Uiso   1.00
C4     C     0.56457   0.42474   0.34038   0.00000  Uiso   1.00
C5     C     0.53079   0.55199   0.38469   0.00000  Uiso   1.00
C6     C     0.61489   0.21407   0.09669   0.00000  Uiso   1.00
C7     C     0.59235   0.14003   0.04944   0.00000  Uiso   1.00
C8     C     0.58291   0.13389   0.92460   0.00000  Uiso   1.00
C9     C     0.55977   0.09278   0.72828   0.00000  Uiso   1.00
C10    C     0.67872   0.24850   0.24860   0.00000  Uiso   1.00
C11    C     0.70985   0.20339   0.32905   0.00000  Uiso   1.00
C12    C     0.75415   0.22621   0.33209   0.00000  Uiso   1.00
C13    C     0.83010   0.23855   0.37164   0.00000  Uiso   1.00
C14    C     0.65189   0.35484   0.09276   0.00000  Uiso   1.00
C15    C     0.62073   0.38806   0.17689   0.00000  Uiso   1.00
C16    C     0.60557   0.47319   0.18241   0.00000  Uiso   1.00
C17    C     0.57727   0.49043   0.26547   0.00000  Uiso   1.00
C18    C     0.62756   0.27964   0.02190   0.00000  Uiso   1.00
C19    C     0.61815   0.27360   0.89711   0.00000  Uiso   1.00
C20    C     0.59560   0.19958   0.84968   0.00000  Uiso   1.00
C21    C     0.69139   0.31407   0.17382   0.00000  Uiso   1.00
C22    C     0.73565   0.33696   0.17672   0.00000  Uiso   1.00
C23    C     0.76684   0.29190   0.25717   0.00000  Uiso   1.00
H24    H     0.61870   0.18306   0.28866   0.00000  Uiso   1.00
H25    H     0.56997   0.28885   0.39260   0.00000  Uiso   1.00
H26    H     0.58256   0.08930   0.10734   0.00000  Uiso   1.00
H27    H     0.70003   0.15265   0.38691   0.00000  Uiso   1.00
H28    H     0.52152   0.43505   0.47481   0.00000  Uiso   1.00
H29    H     0.54807   0.01427   0.87333   0.00000  Uiso   1.00
H30    H     0.79579   0.14785   0.46287   0.00000  Uiso   1.00
H31    H     0.66175   0.40589   0.03453   0.00000  Uiso   1.00
H32    H     0.61538   0.52392   0.12453   0.00000  Uiso   1.00
H33    H     0.62796   0.32436   0.83926   0.00000  Uiso   1.00
H34    H     0.74544   0.38771   0.11884   0.00000  Uiso   1.00
H35    H     0.55837   0.62584   0.25723   0.00000  Uiso   1.00
H36    H     0.58492   0.20505   0.65575   0.00000  Uiso   1.00
H37    H     0.83264   0.33864   0.24529   0.00000  Uiso   1.00
O38    O     0.50866   0.60406   0.42978   0.00000  Uiso   1.00
O39    O     0.54349   0.05200   0.64066   0.00000  Uiso   1.00
O40    O     0.86849   0.22726   0.41412   0.00000  Uiso   1.00
N41    N     0.53656   0.46376   0.41127   0.00000  Uiso   1.00
N42    N     0.56138   0.07036   0.84892   0.00000  Uiso   1.00
N43    N     0.79298   0.19523   0.40007   0.00000  Uiso   1.00
N44    N     0.55639   0.56642   0.29420   0.00000  Uiso   1.00
N45    N     0.58121   0.17302   0.73184   0.00000  Uiso   1.00
N46    N     0.81281   0.29789   0.28299   0.00000  Uiso   1.00
C47    C     0.12857   0.73411   0.23045   0.00000  Uiso   1.00
C48    C     0.10806   0.82249   0.25168   0.00000  Uiso   1.00
C49    C     0.07977   0.83962   0.33474   0.00000  Uiso   1.00
C50    C     0.06457   0.92474   0.34038   0.00000  Uiso   1.00
C51    C     0.03079   0.05199   0.38469   0.00000  Uiso   1.00
C52    C     0.11489   0.71407   0.09669   0.00000  Uiso   1.00
C53    C     0.09235   0.64003   0.04944   0.00000  Uiso   1.00
C54    C     0.08291   0.63389   0.92460   0.00000  Uiso   1.00
C55    C     0.05977   0.59278   0.72828   0.00000  Uiso   1.00
C56    C     0.17872   0.74850   0.24860   0.00000  Uiso   1.00
C57    C     0.20985   0.70339   0.32905   0.00000  Uiso   1.00
C58    C     0.25415   0.72621   0.33209   0.00000  Uiso   1.00
C59    C     0.33010   0.73855   0.37164   0.00000  Uiso   1.00
C60    C     0.15189   0.85484   0.09276   0.00000  Uiso   1.00
C61    C     0.12073   0.88806   0.17689   0.00000  Uiso   1.00
C62    C     0.10557   0.97319   0.18241   0.00000  Uiso   1.00
C63    C     0.07727   0.99043   0.26547   0.00000  Uiso   1.00
C64    C     0.12756   0.77964   0.02190   0.00000  Uiso   1.00
C65    C     0.11815   0.77360   0.89711   0.00000  Uiso   1.00
C66    C     0.09560   0.69958   0.84968   0.00000  Uiso   1.00
C67    C     0.19139   0.81407   0.17382   0.00000  Uiso   1.00
C68    C     0.23565   0.83696   0.17672   0.00000  Uiso   1.00
C69    C     0.26684   0.79190   0.25717   0.00000  Uiso   1.00
H70    H     0.11870   0.68306   0.28866   0.00000  Uiso   1.00
H71    H     0.06997   0.78885   0.39260   0.00000  Uiso   1.00
H72    H     0.08256   0.58930   0.10734   0.00000  Uiso   1.00
H73    H     0.20003   0.65265   0.38691   0.00000  Uiso   1.00
H74    H     0.02152   0.93505   0.47481   0.00000  Uiso   1.00
H75    H     0.04807   0.51427   0.87333   0.00000  Uiso   1.00
H76    H     0.29579   0.64785   0.46287   0.00000  Uiso   1.00
H77    H     0.16175   0.90589   0.03453   0.00000  Uiso   1.00
H78    H     0.11538   0.02392   0.12453   0.00000  Uiso   1.00
H79    H     0.12796   0.82436   0.83926   0.00000  Uiso   1.00
H80    H     0.24544   0.88771   0.11884   0.00000  Uiso   1.00
H81    H     0.05837   0.12584   0.25723   0.00000  Uiso   1.00
H82    H     0.08492   0.70505   0.65575   0.00000  Uiso   1.00
H83    H     0.33264   0.83864   0.24529   0.00000  Uiso   1.00
O84    O     0.00866   0.10406   0.42978   0.00000  Uiso   1.00
O85    O     0.04349   0.55200   0.64066   0.00000  Uiso   1.00
O86    O     0.36849   0.72726   0.41412   0.00000  Uiso   1.00
N87    N     0.03656   0.96376   0.41127   0.00000  Uiso   1.00
N88    N     0.06138   0.57036   0.84892   0.00000  Uiso   1.00
N89    N     0.29298   0.69523   0.40007   0.00000  Uiso   1.00
N90    N     0.05639   0.06642   0.29420   0.00000  Uiso   1.00
N91    N     0.08121   0.67302   0.73184   0.00000  Uiso   1.00
N92    N     0.31281   0.79789   0.28299   0.00000  Uiso   1.00
C93    C     0.37143   0.23411   0.26955   0.00000  Uiso   1.00
C94    C     0.39194   0.32249   0.24832   0.00000  Uiso   1.00
C95    C     0.42023   0.33962   0.16526   0.00000  Uiso   1.00
C96    C     0.43543   0.42474   0.15962   0.00000  Uiso   1.00
C97    C     0.46921   0.55199   0.11531   0.00000  Uiso   1.00
C98    C     0.38511   0.21407   0.40331   0.00000  Uiso   1.00
C99    C     0.40765   0.14003   0.45056   0.00000  Uiso   1.00
C100   C     0.41709   0.13389   0.57540   0.00000  Uiso   1.00
C101   C     0.44023   0.09278   0.77172   0.00000  Uiso   1.00
C102   C     0.32128   0.24850   0.25140   0.00000  Uiso   1.00
C103   C     0.29015   0.20339   0.17095   0.00000  Uiso   1.00
C104   C     0.24585   0.22621   0.16791   0.00000  Uiso   1.00
C105   C     0.16990   0.23855   0.12836   0.00000  Uiso   1.00
C106   C     0.34811   0.35484   0.40724   0.00000  Uiso   1.00
C107   C     0.37927   0.38806   0.32311   0.00000  Uiso   1.00
C108   C     0.39443   0.47319   0.31759   0.00000  Uiso   1.00
C109   C     0.42273   0.49043   0.23453   0.00000  Uiso   1.00
C110   C     0.37244   0.27964   0.47810   0.00000  Uiso   1.00
C111   C     0.38185   0.27360   0.60289   0.00000  Uiso   1.00
C112   C     0.40440   0.19958   0.65032   0.00000  Uiso   1.00
C113   C     0.30861   0.31407   0.32618   0.00000  Uiso   1.00
C114   C     0.26435   0.33696   0.32328   0.00000  Uiso   1.00
C115   C     0.23316   0.29190   0.24283   0.00000  Uiso   1.00
H116   H     0.38130   0.18306   0.21134   0.00000  Uiso   1.00
H117   H     0.43003   0.28885   0.10740   0.00000  Uiso   1.00
H118   H     0.41744   0.08930   0.39266   0.00000  Uiso   1.00
H119   H     0.29997   0.15265   0.11309   0.00000  Uiso   1.00
H120   H     0.47848   0.43505   0.02519   0.00000  Uiso   1.00
H121   H     0.45193   0.01427   0.62667   0.00000  Uiso   1.00
H122   H     0.20421   0.14785   0.03713   0.00000  Uiso   1.00
H123   H     0.33825   0.40589   0.46547   0.00000  Uiso   1.00
H124   H     0.38462   0.52392   0.37547   0.00000  Uiso   1.00
H125   H     0.37204   0.32436   0.66074   0.00000  Uiso   1.00
H126   H     0.25456   0.38771   0.38116   0.00000  Uiso   1.00
H127   H     0.44163   0.62584   0.24277   0.00000  Uiso   1.00
H128   H     0.41508   0.20505   0.84425   0.00000  Uiso   1.00
H129   H     0.16736   0.33864   0.25471   0.00000  Uiso   1.00
O130   O     0.49134   0.60406   0.07022   0.00000  Uiso   1.00
O131   O     0.45651   0.05200   0.85934   0.00000  Uiso   1.00
O132   O     0.13151   0.22726   0.08588   0.00000  Uiso   1.00
N133   N     0.46344   0.46376   0.08873   0.00000  Uiso   1.00
N134   N     0.43862   0.07036   0.65108   0.00000  Uiso   1.00
N135   N     0.20702   0.19523   0.09993   0.00000  Uiso   1.00
N136   N     0.44361   0.56642   0.20580   0.00000  Uiso   1.00
N137   N     0.41879   0.17302   0.76816   0.00000  Uiso   1.00
N138   N     0.18719   0.29789   0.21701   0.00000  Uiso   1.00
C139   C     0.87143   0.73411   0.26955   0.00000  Uiso   1.00
C140   C     0.89194   0.82249   0.24832   0.00000  Uiso   1.00
C141   C     0.92023   0.83962   0.16526   0.00000  Uiso   1.00
C142   C     0.93543   0.92474   0.15962   0.00000  Uiso   1.00
C143   C     0.96921   0.05199   0.11531   0.00000  Uiso   1.00
C144   C     0.88511   0.71407   0.40331   0.00000  Uiso   1.00
C145   C     0.90765   0.64003   0.45056   0.00000  Uiso   1.00
C146   C     0.91709   0.63389   0.57540   0.00000  Uiso   1.00
C147   C     0.94023   0.59278   0.77172   0.00000  Uiso   1.00
C148   C     0.82128   0.74850   0.25140   0.00000  Uiso   1.00
C149   C     0.79015   0.70339   0.17095   0.00000  Uiso   1.00
C150   C     0.74585   0.72621   0.16791   0.00000  Uiso   1.00
C151   C     0.66990   0.73855   0.12836   0.00000  Uiso   1.00
C152   C     0.84811   0.85484   0.40724   0.00000  Uiso   1.00
C153   C     0.87927   0.88806   0.32311   0.00000  Uiso   1.00
C154   C     0.89443   0.97319   0.31759   0.00000  Uiso   1.00
C155   C     0.92273   0.99043   0.23453   0.00000  Uiso   1.00
C156   C     0.87244   0.77964   0.47810   0.00000  Uiso   1.00
C157   C     0.88185   0.77360   0.60289   0.00000  Uiso   1.00
C158   C     0.90440   0.69958   0.65032   0.00000  Uiso   1.00
C159   C     0.80861   0.81407   0.32618   0.00000  Uiso   1.00
C160   C     0.76435   0.83696   0.32328   0.00000  Uiso   1.00
C161   C     0.73316   0.79190   0.24283   0.00000  Uiso   1.00
H162   H     0.88130   0.68306   0.21134   0.00000  Uiso   1.00
H163   H     0.93003   0.78885   0.10740   0.00000  Uiso   1.00
H164   H     0.91744   0.58930   0.39266   0.00000  Uiso   1.00
H165   H     0.79997   0.65265   0.11309   0.00000  Uiso   1.00
H166   H     0.97848   0.93505   0.02519   0.00000  Uiso   1.00
H167   H     0.95193   0.51427   0.62667   0.00000  Uiso   1.00
H168   H     0.70421   0.64785   0.03713   0.00000  Uiso   1.00
H169   H     0.83825   0.90589   0.46547   0.00000  Uiso   1.00
H170   H     0.88462   0.02392   0.37547   0.00000  Uiso   1.00
H171   H     0.87204   0.82436   0.66074   0.00000  Uiso   1.00
H172   H     0.75456   0.88771   0.38116   0.00000  Uiso   1.00
H173   H     0.94163   0.12584   0.24277   0.00000  Uiso   1.00
H174   H     0.91508   0.70505   0.84425   0.00000  Uiso   1.00
H175   H     0.66736   0.83864   0.25471   0.00000  Uiso   1.00
O176   O     0.99134   0.10406   0.07022   0.00000  Uiso   1.00
O177   O     0.95651   0.55200   0.85934   0.00000  Uiso   1.00
O178   O     0.63151   0.72726   0.08588   0.00000  Uiso   1.00
N179   N     0.96344   0.96376   0.08873   0.00000  Uiso   1.00
N180   N     0.93862   0.57036   0.65108   0.00000  Uiso   1.00
N181   N     0.70702   0.69523   0.09993   0.00000  Uiso   1.00
N182   N     0.94361   0.06642   0.20580   0.00000  Uiso   1.00
N183   N     0.91879   0.67302   0.76816   0.00000  Uiso   1.00
N184   N     0.68719   0.79789   0.21701   0.00000  Uiso   1.00
C185   C     0.37143   0.76589   0.76955   0.00000  Uiso   1.00
C186   C     0.39194   0.67751   0.74832   0.00000  Uiso   1.00
C187   C     0.42023   0.66038   0.66526   0.00000  Uiso   1.00
C188   C     0.43543   0.57526   0.65962   0.00000  Uiso   1.00
C189   C     0.46921   0.44801   0.61531   0.00000  Uiso   1.00
C190   C     0.38511   0.78593   0.90331   0.00000  Uiso   1.00
C191   C     0.40765   0.85997   0.95056   0.00000  Uiso   1.00
C192   C     0.41709   0.86611   0.07540   0.00000  Uiso   1.00
C193   C     0.44023   0.90722   0.27172   0.00000  Uiso   1.00
C194   C     0.32128   0.75150   0.75140   0.00000  Uiso   1.00
C195   C     0.29015   0.79661   0.67095   0.00000  Uiso   1.00
C196   C     0.24585   0.77379   0.66791   0.00000  Uiso   1.00
C197   C     0.16990   0.76145   0.62836   0.00000  Uiso   1.00
C198   C     0.34811   0.64516   0.90724   0.00000  Uiso   1.00
C199   C     0.37927   0.61194   0.82311   0.00000  Uiso   1.00
C200   C     0.39443   0.52681   0.81759   0.00000  Uiso   1.00
C201   C     0.42273   0.50957   0.73453   0.00000  Uiso   1.00
C202   C     0.37244   0.72036   0.97810   0.00000  Uiso   1.00
C203   C     0.38185   0.72640   0.10289   0.00000  Uiso   1.00
C204   C     0.40440   0.80042   0.15032   0.00000  Uiso   1.00
C205   C     0.30861   0.68593   0.82618   0.00000  Uiso   1.00
C206   C     0.26435   0.66304   0.82328   0.00000  Uiso   1.00
C207   C     0.23316   0.70810   0.74283   0.00000  Uiso   1.00
H208   H     0.38130   0.81694   0.71134   0.00000  Uiso   1.00
H209   H     0.43003   0.71115   0.60740   0.00000  Uiso   1.00
H210   H     0.41744   0.91070   0.89266   0.00000  Uiso   1.00
H211   H     0.29997   0.84735   0.61309   0.00000  Uiso   1.00
H212   H     0.47848   0.56495   0.52519   0.00000  Uiso   1.00
H213   H     0.45193   0.98573   0.12667   0.00000  Uiso   1.00
H214   H     0.20421   0.85215   0.53713   0.00000  Uiso   1.00
H215   H     0.33825   0.59411   0.96547   0.00000  Uiso   1.00
H216   H     0.38462   0.47608   0.87547   0.00000  Uiso   1.00
H217   H     0.37204   0.67564   0.16074   0.00000  Uiso   1.00
H218   H     0.25456   0.61229   0.88116   0.00000  Uiso   1.00
H219   H     0.44163   0.37416   0.74277   0.00000  Uiso   1.00
H220   H     0.41508   0.79495   0.34425   0.00000  Uiso   1.00
H221   H     0.16736   0.66136   0.75471   0.00000  Uiso   1.00
O222   O     0.49134   0.39594   0.57022   0.00000  Uiso   1.00
O223   O     0.45651   0.94800   0.35934   0.00000  Uiso   1.00
O224   O     0.13151   0.77274   0.58588   0.00000  Uiso   1.00
N225   N     0.46344   0.53624   0.58873   0.00000  Uiso   1.00
N226   N     0.43862   0.92964   0.15108   0.00000  Uiso   1.00
N227   N     0.20702   0.80477   0.59993   0.00000  Uiso   1.00
N228   N     0.44361   0.43358   0.70580   0.00000  Uiso   1.00
N229   N     0.41879   0.82698   0.26816   0.00000  Uiso   1.00
N230   N     0.18719   0.70211   0.71701   0.00000  Uiso   1.00
C231   C     0.87143   0.26589   0.76955   0.00000  Uiso   1.00
C232   C     0.89194   0.17751   0.74832   0.00000  Uiso   1.00
C233   C     0.92023   0.16038   0.66526   0.00000  Uiso   1.00
C234   C     0.93543   0.07526   0.65962   0.00000  Uiso   1.00
C235   C     0.96921   0.94801   0.61531   0.00000  Uiso   1.00
C236   C     0.88511   0.28593   0.90331   0.00000  Uiso   1.00
C237   C     0.90765   0.35997   0.95056   0.00000  Uiso   1.00
C238   C     0.91709   0.36611   0.07540   0.00000  Uiso   1.00
C239   C     0.94023   0.40722   0.27172   0.00000  Uiso   1.00
C240   C     0.82128   0.25150   0.75140   0.00000  Uiso   1.00
C241   C     0.79015   0.29661   0.67095   0.00000  Uiso   1.00
C242   C     0.74585   0.27379   0.66791   0.00000  Uiso   1.00
C243   C     0.66990   0.26145   0.62836   0.00000  Uiso   1.00
C244   C     0.84811   0.14516   0.90724   0.00000  Uiso   1.00
C245   C     0.87927   0.11194   0.82311   0.00000  Uiso   1.00
C246   C     0.89443   0.02681   0.81759   0.00000  Uiso   1.00
C247   C     0.92273   0.00957   0.73453   0.00000  Uiso   1.00
C248   C     0.87244   0.22036   0.97810   0.00000  Uiso   1.00
C249   C     0.88185   0.22640   0.10289   0.00000  Uiso   1.00
C250   C     0.90440   0.30042   0.15032   0.00000  Uiso   1.00
C251   C     0.80861   0.18593   0.82618   0.00000  Uiso   1.00
C252   C     0.76435   0.16304   0.82328   0.00000  Uiso   1.00
C253   C     0.73316   0.20810   0.74283   0.00000  Uiso   1.00
H254   H     0.88130   0.31694   0.71134   0.00000  Uiso   1.00
H255   H     0.93003   0.21115   0.60740   0.00000  Uiso   1.00
H256   H     0.91744   0.41070   0.89266   0.00000  Uiso   1.00
H257   H     0.79997   0.34735   0.61309   0.00000  Uiso   1.00
H258   H     0.97848   0.06495   0.52519   0.00000  Uiso   1.00
H259   H     0.95193   0.48573   0.12667   0.00000  Uiso   1.00
H260   H     0.70421   0.35215   0.53713   0.00000  Uiso   1.00
H261   H     0.83825   0.09411   0.96547   0.00000  Uiso   1.00
H262   H     0.88462   0.97608   0.87547   0.00000  Uiso   1.00
H263   H     0.87204   0.17564   0.16074   0.00000  Uiso   1.00
H264   H     0.75456   0.11229   0.88116   0.00000  Uiso   1.00
H265   H     0.94163   0.87416   0.74277   0.00000  Uiso   1.00
H266   H     0.91508   0.29495   0.34425   0.00000  Uiso   1.00
H267   H     0.66736   0.16136   0.75471   0.00000  Uiso   1.00
O268   O     0.99134   0.89594   0.57022   0.00000  Uiso   1.00
O269   O     0.95651   0.44800   0.35934   0.00000  Uiso   1.00
O270   O     0.63151   0.27274   0.58588   0.00000  Uiso   1.00
N271   N     0.96344   0.03624   0.58873   0.00000  Uiso   1.00
N272   N     0.93862   0.42964   0.15108   0.00000  Uiso   1.00
N273   N     0.70702   0.30477   0.59993   0.00000  Uiso   1.00
N274   N     0.94361   0.93358   0.70580   0.00000  Uiso   1.00
N275   N     0.91879   0.32698   0.26816   0.00000  Uiso   1.00
N276   N     0.68719   0.20211   0.71701   0.00000  Uiso   1.00
C277   C     0.62857   0.76589   0.73045   0.00000  Uiso   1.00
C278   C     0.60806   0.67751   0.75168   0.00000  Uiso   1.00
C279   C     0.57977   0.66038   0.83474   0.00000  Uiso   1.00
C280   C     0.56457   0.57526   0.84038   0.00000  Uiso   1.00
C281   C     0.53079   0.44801   0.88469   0.00000  Uiso   1.00
C282   C     0.61489   0.78593   0.59669   0.00000  Uiso   1.00
C283   C     0.59235   0.85997   0.54944   0.00000  Uiso   1.00
C284   C     0.58291   0.86611   0.42460   0.00000  Uiso   1.00
C285   C     0.55977   0.90722   0.22828   0.00000  Uiso   1.00
C286   C     0.67872   0.75150   0.74860   0.00000  Uiso   1.00
C287   C     0.70985   0.79661   0.82905   0.00000  Uiso   1.00
C288   C     0.75415   0.77379   0.83209   0.00000  Uiso   1.00
C289   C     0.83010   0.76145   0.87164   0.00000  Uiso   1.00
C290   C     0.65189   0.64516   0.59276   0.00000  Uiso   1.00
C291   C     0.62073   0.61194   0.67689   0.00000  Uiso   1.00
C292   C     0.60557   0.52681   0.68241   0.00000  Uiso   1.00
C293   C     0.57727   0.50957   0.76547   0.00000  Uiso   1.00
C294   C     0.62756   0.72036   0.52190   0.00000  Uiso   1.00
C295   C     0.61815   0.72640   0.39711   0.00000  Uiso   1.00
C296   C     0.59560   0.80042   0.34968   0.00000  Uiso   1.00
C297   C     0.69139   0.68593   0.67382   0.00000  Uiso   1.00
C298   C     0.73565   0.66304   0.67672   0.00000  Uiso   1.00
C299   C     0.76684   0.70810   0.75717   0.00000  Uiso   1.00
H300   H     0.61870   0.81694   0.78866   0.00000  Uiso   1.00
H301   H     0.56997   0.71115   0.89260   0.00000  Uiso   1.00
H302   H     0.58256   0.91070   0.60734   0.00000  Uiso   1.00
H303   H     0.70003   0.84735   0.88691   0.00000  Uiso   1.00
H304   H     0.52152   0.56495   0.97481   0.00000  Uiso   1.00
H305   H     0.54807   0.98573   0.37333   0.00000  Uiso   1.00
H306   H     0.79579   0.85215   0.96287   0.00000  Uiso   1.00
H307   H     0.66175   0.59411   0.53453   0.00000  Uiso   1.00
H308   H     0.61538   0.47608   0.62453   0.00000  Uiso   1.00
H309   H     0.62796   0.67564   0.33926   0.00000  Uiso   1.00
H310   H     0.74544   0.61229   0.61884   0.00000  Uiso   1.00
H311   H     0.55837   0.37416   0.75723   0.00000  Uiso   1.00
H312   H     0.58492   0.79495   0.15575   0.00000  Uiso   1.00
H313   H     0.83264   0.66136   0.74529   0.00000  Uiso   1.00
O314   O     0.50866   0.39594   0.92978   0.00000  Uiso   1.00
O315   O     0.54349   0.94800   0.14066   0.00000  Uiso   1.00
O316   O     0.86849   0.77274   0.91412   0.00000  Uiso   1.00
N317   N     0.53656   0.53624   0.91127   0.00000  Uiso   1.00
N318   N     0.56138   0.92964   0.34892   0.00000  Uiso   1.00
N319   N     0.79298   0.80477   0.90007   0.00000  Uiso   1.00
N320   N     0.55639   0.43358   0.79420   0.00000  Uiso   1.00
N321   N     0.58121   0.82698   0.23184   0.00000  Uiso   1.00
N322   N     0.81281   0.70211   0.78299   0.00000  Uiso   1.00
C323   C     0.12857   0.26589   0.73045   0.00000  Uiso   1.00
C324   C     0.10806   0.17751   0.75168   0.00000  Uiso   1.00
C325   C     0.07977   0.16038   0.83474   0.00000  Uiso   1.00
C326   C     0.06457   0.07526   0.84038   0.00000  Uiso   1.00
C327   C     0.03079   0.94801   0.88469   0.00000  Uiso   1.00
C328   C     0.11489   0.28593   0.59669   0.00000  Uiso   1.00
C329   C     0.09235   0.35997   0.54944   0.00000  Uiso   1.00
C330   C     0.08291   0.36611   0.42460   0.00000  Uiso   1.00
C331   C     0.05977   0.40722   0.22828   0.00000  Uiso   1.00
C332   C     0.17872   0.25150   0.74860   0.00000  Uiso   1.00
C333   C     0.20985   0.29661   0.82905   0.00000  Uiso   1.00
C334   C     0.25415   0.27379   0.83209   0.00000  Uiso   1.00
C335   C     0.33010   0.26145   0.87164   0.00000  Uiso   1.00
C336   C     0.15189   0.14516   0.59276   0.00000  Uiso   1.00
C337   C     0.12073   0.11194   0.67689   0.00000  Uiso   1.00
C338   C     0.10557   0.02681   0.68241   0.00000  Uiso   1.00
C339   C     0.07727   0.00957   0.76547   0.00000  Uiso   1.00
C340   C     0.12756   0.22036   0.52190   0.00000  Uiso   1.00
C341   C     0.11815   0.22640   0.39711   0.00000  Uiso   1.00
C342   C     0.09560   0.30042   0.34968   0.00000  Uiso   1.00
C343   C     0.19139   0.18593   0.67382   0.00000  Uiso   1.00
C344   C     0.23565   0.16304   0.67672   0.00000  Uiso   1.00
C345   C     0.26684   0.20810   0.75717   0.00000  Uiso   1.00
H346   H     0.11870   0.31694   0.78866   0.00000  Uiso   1.00
H347   H     0.06997   0.21115   0.89260   0.00000  Uiso   1.00
H348   H     0.08256   0.41070   0.60734   0.00000  Uiso   1.00
H349   H     0.20003   0.34735   0.88691   0.00000  Uiso   1.00
H350   H     0.02152   0.06495   0.97481   0.00000  Uiso   1.00
H351   H     0.04807   0.48573   0.37333   0.00000  Uiso   1.00
H352   H     0.29579   0.35215   0.96287   0.00000  Uiso   1.00
H353   H     0.16175   0.09411   0.53453   0.00000  Uiso   1.00
H354   H     0.11538   0.97608   0.62453   0.00000  Uiso   1.00
H355   H     0.12796   0.17564   0.33926   0.00000  Uiso   1.00
H356   H     0.24544   0.11229   0.61884   0.00000  Uiso   1.00
H357   H     0.05837   0.87416   0.75723   0.00000  Uiso   1.00
H358   H     0.08492   0.29495   0.15575   0.00000  Uiso   1.00
H359   H     0.33264   0.16136   0.74529   0.00000  Uiso   1.00
O360   O     0.00866   0.89594   0.92978   0.00000  Uiso   1.00
O361   O     0.04349   0.44800   0.14066   0.00000  Uiso   1.00
O362   O     0.36849   0.27274   0.91412   0.00000  Uiso   1.00
N363   N     0.03656   0.03624   0.91127   0.00000  Uiso   1.00
N364   N     0.06138   0.42964   0.34892   0.00000  Uiso   1.00
N365   N     0.29298   0.30477   0.90007   0.00000  Uiso   1.00
N366   N     0.05639   0.93358   0.79420   0.00000  Uiso   1.00
N367   N     0.08121   0.32698   0.23184   0.00000  Uiso   1.00
N368   N     0.31281   0.20211   0.78299   0.00000  Uiso   1.00
