data_job_06107
_audit_creation_date              2018-12-19
_audit_creation_method            'Materials Studio'
_symmetry_space_group_name_H-M    'P1'
_symmetry_Int_Tables_number       1
_symmetry_cell_setting            triclinic
loop_
_symmetry_equiv_pos_as_xyz
  x,y,z
_cell_length_a                    16.1903
_cell_length_b                    15.9985
_cell_length_c                    15.5023
_cell_angle_alpha                 88.7085
_cell_angle_beta                  88.6316
_cell_angle_gamma                 87.7403
loop_
_atom_site_label
_atom_site_type_symbol
_atom_site_fract_x
_atom_site_fract_y
_atom_site_fract_z
_atom_site_U_iso_or_equiv
_atom_site_adp_type
_atom_site_occupancy
C1     C     0.71115   0.00850   0.59276   0.00000  Uiso   1.00
C2     C     0.79289   0.03867   0.62494   0.00000  Uiso   1.00
C3     C     0.82637   0.01934   0.70486   0.00000  Uiso   1.00
C4     C     0.90177   0.05312   0.72205   0.00000  Uiso   1.00
C5     C     0.02251   0.09220   0.78125   0.00000  Uiso   1.00
C6     C     0.65980   0.08713   0.56857   0.00000  Uiso   1.00
C7     C     0.58138   0.10853   0.60107   0.00000  Uiso   1.00
C8     C     0.54475   0.18311   0.57079   0.00000  Uiso   1.00
C9     C     0.45884   0.29738   0.54243   0.00000  Uiso   1.00
C10    C     0.73174   0.96439   0.50831   0.00000  Uiso   1.00
C11    C     0.71380   0.88261   0.49015   0.00000  Uiso   1.00
C12    C     0.73773   0.85386   0.40913   0.00000  Uiso   1.00
C13    C     0.76353   0.77757   0.28721   0.00000  Uiso   1.00
C14    C     0.78553   0.10287   0.48118   0.00000  Uiso   1.00
C15    C     0.83328   0.08992   0.56433   0.00000  Uiso   1.00
C16    C     0.90865   0.12374   0.58140   0.00000  Uiso   1.00
C17    C     0.94224   0.10447   0.66133   0.00000  Uiso   1.00
C18    C     0.70019   0.13838   0.50796   0.00000  Uiso   1.00
C19    C     0.66366   0.21294   0.47762   0.00000  Uiso   1.00
C20    C     0.58521   0.23446   0.51008   0.00000  Uiso   1.00
C21    C     0.77214   0.01565   0.44770   0.00000  Uiso   1.00
C22    C     0.79609   0.98702   0.36669   0.00000  Uiso   1.00
C23    C     0.77819   0.90521   0.34841   0.00000  Uiso   1.00
H24    H     0.67970   0.96860   0.63995   0.00000  Uiso   1.00
H25    H     0.79508   0.97967   0.75175   0.00000  Uiso   1.00
H26    H     0.55013   0.06885   0.64797   0.00000  Uiso   1.00
H27    H     0.68254   0.84297   0.53706   0.00000  Uiso   1.00
H28    H     0.94081   0.01458   0.84898   0.00000  Uiso   1.00
H29    H     0.42430   0.20260   0.63014   0.00000  Uiso   1.00
H30    H     0.70350   0.72628   0.39627   0.00000  Uiso   1.00
H31    H     0.81698   0.14278   0.43399   0.00000  Uiso   1.00
H32    H     0.93990   0.16341   0.53449   0.00000  Uiso   1.00
H33    H     0.69494   0.25259   0.43071   0.00000  Uiso   1.00
H34    H     0.82735   0.02670   0.31981   0.00000  Uiso   1.00
H35    H     0.05834   0.16371   0.67265   0.00000  Uiso   1.00
H36    H     0.54183   0.35173   0.45381   0.00000  Uiso   1.00
H37    H     0.82104   0.87540   0.21994   0.00000  Uiso   1.00
O38    O     0.07795   0.09960   0.83065   0.00000  Uiso   1.00
O39    O     0.40030   0.34626   0.54353   0.00000  Uiso   1.00
O40    O     0.76662   0.72133   0.23671   0.00000  Uiso   1.00
N41    N     0.95161   0.04683   0.79368   0.00000  Uiso   1.00
N42    N     0.46871   0.22262   0.58909   0.00000  Uiso   1.00
N43    N     0.72972   0.77731   0.37044   0.00000  Uiso   1.00
N44    N     0.01485   0.12708   0.69880   0.00000  Uiso   1.00
N45    N     0.53195   0.30287   0.49421   0.00000  Uiso   1.00
N46    N     0.79297   0.85755   0.27555   0.00000  Uiso   1.00
C47    C     0.59606   0.70944   0.00208   0.00000  Uiso   1.00
C48    C     0.62561   0.79227   0.03430   0.00000  Uiso   1.00
C49    C     0.70184   0.82578   0.01520   0.00000  Uiso   1.00
C50    C     0.71708   0.90228   0.05100   0.00000  Uiso   1.00
C51    C     0.77193   0.02456   0.09301   0.00000  Uiso   1.00
C52    C     0.57297   0.65808   0.08251   0.00000  Uiso   1.00
C53    C     0.60494   0.57875   0.10393   0.00000  Uiso   1.00
C54    C     0.57587   0.54228   0.18030   0.00000  Uiso   1.00
C55    C     0.54896   0.45620   0.29712   0.00000  Uiso   1.00
C56    C     0.51527   0.73024   0.95628   0.00000  Uiso   1.00
C57    C     0.49871   0.71158   0.87158   0.00000  Uiso   1.00
C58    C     0.42104   0.73585   0.84169   0.00000  Uiso   1.00
C59    C     0.30454   0.76183   0.76253   0.00000  Uiso   1.00
C60    C     0.48757   0.78571   0.09962   0.00000  Uiso   1.00
C61    C     0.56668   0.83369   0.08728   0.00000  Uiso   1.00
C62    C     0.58181   0.91016   0.12312   0.00000  Uiso   1.00
C63    C     0.65805   0.94378   0.10407   0.00000  Uiso   1.00
C64    C     0.51405   0.69950   0.13549   0.00000  Uiso   1.00
C65    C     0.48491   0.66313   0.21184   0.00000  Uiso   1.00
C66    C     0.51684   0.58378   0.23338   0.00000  Uiso   1.00
C67    C     0.45634   0.77167   0.00926   0.00000  Uiso   1.00
C68    C     0.37868   0.79597   0.97950   0.00000  Uiso   1.00
C69    C     0.36201   0.77735   0.89477   0.00000  Uiso   1.00
H70    H     0.64194   0.67719   0.96084   0.00000  Uiso   1.00
H71    H     0.74742   0.79370   0.97420   0.00000  Uiso   1.00
H72    H     0.65054   0.54671   0.06291   0.00000  Uiso   1.00
H73    H     0.54432   0.67952   0.83060   0.00000  Uiso   1.00
H74    H     0.83840   0.94113   0.01241   0.00000  Uiso   1.00
H75    H     0.63409   0.42032   0.19944   0.00000  Uiso   1.00
H76    H     0.41011   0.70038   0.70957   0.00000  Uiso   1.00
H77    H     0.44170   0.81796   0.14087   0.00000  Uiso   1.00
H78    H     0.53620   0.94220   0.16412   0.00000  Uiso   1.00
H79    H     0.43931   0.69520   0.25283   0.00000  Uiso   1.00
H80    H     0.33310   0.82802   0.02052   0.00000  Uiso   1.00
H81    H     0.66696   0.06166   0.16656   0.00000  Uiso   1.00
H82    H     0.46265   0.54084   0.35359   0.00000  Uiso   1.00
H83    H     0.23867   0.82091   0.86372   0.00000  Uiso   1.00
O84    O     0.81847   0.08057   0.10155   0.00000  Uiso   1.00
O85    O     0.55041   0.39728   0.34692   0.00000  Uiso   1.00
O86    O     0.25656   0.76472   0.70422   0.00000  Uiso   1.00
N87    N     0.78508   0.95245   0.04549   0.00000  Uiso   1.00
N88    N     0.59407   0.46553   0.22036   0.00000  Uiso   1.00
N89    N     0.38466   0.72735   0.76238   0.00000  Uiso   1.00
N90    N     0.69283   0.01731   0.12843   0.00000  Uiso   1.00
N91    N     0.50182   0.53039   0.30330   0.00000  Uiso   1.00
N92    N     0.29241   0.79220   0.84532   0.00000  Uiso   1.00
C93    C     0.01051   0.59571   0.70608   0.00000  Uiso   1.00
C94    C     0.04037   0.62608   0.79207   0.00000  Uiso   1.00
C95    C     0.02086   0.70352   0.82738   0.00000  Uiso   1.00
C96    C     0.05437   0.71936   0.90670   0.00000  Uiso   1.00
C97    C     0.09299   0.77559   0.03375   0.00000  Uiso   1.00
C98    C     0.08819   0.57174   0.65329   0.00000  Uiso   1.00
C99    C     0.10887   0.60349   0.57191   0.00000  Uiso   1.00
C100   C     0.18264   0.57357   0.53440   0.00000  Uiso   1.00
C101   C     0.29547   0.54539   0.44597   0.00000  Uiso   1.00
C102   C     0.96754   0.51422   0.72638   0.00000  Uiso   1.00
C103   C     0.88679   0.49759   0.70643   0.00000  Uiso   1.00
C104   C     0.85899   0.41925   0.73044   0.00000  Uiso   1.00
C105   C     0.78449   0.30176   0.75549   0.00000  Uiso   1.00
C106   C     0.10473   0.48613   0.78416   0.00000  Uiso   1.00
C107   C     0.09155   0.56655   0.83448   0.00000  Uiso   1.00
C108   C     0.12510   0.58228   0.91377   0.00000  Uiso   1.00
C109   C     0.10564   0.65973   0.94920   0.00000  Uiso   1.00
C110   C     0.13936   0.51222   0.69570   0.00000  Uiso   1.00
C111   C     0.21311   0.48225   0.65831   0.00000  Uiso   1.00
C112   C     0.23391   0.51394   0.57689   0.00000  Uiso   1.00
C113   C     0.01871   0.45470   0.76879   0.00000  Uiso   1.00
C114   C     0.99103   0.37636   0.79283   0.00000  Uiso   1.00
C115   C     0.91025   0.35962   0.77293   0.00000  Uiso   1.00
H116   H     0.97067   0.64205   0.67305   0.00000  Uiso   1.00
H117   H     0.98126   0.74957   0.79453   0.00000  Uiso   1.00
H118   H     0.06926   0.64954   0.53910   0.00000  Uiso   1.00
H119   H     0.84721   0.54367   0.67361   0.00000  Uiso   1.00
H120   H     0.01559   0.84254   0.94790   0.00000  Uiso   1.00
H121   H     0.20112   0.63161   0.40930   0.00000  Uiso   1.00
H122   H     0.73289   0.40835   0.69293   0.00000  Uiso   1.00
H123   H     0.14457   0.43978   0.81718   0.00000  Uiso   1.00
H124   H     0.16470   0.53621   0.94658   0.00000  Uiso   1.00
H125   H     0.25270   0.43618   0.69115   0.00000  Uiso   1.00
H126   H     0.03065   0.33031   0.82565   0.00000  Uiso   1.00
H127   H     0.16448   0.66937   0.07131   0.00000  Uiso   1.00
H128   H     0.35001   0.45843   0.53270   0.00000  Uiso   1.00
H129   H     0.88178   0.23518   0.81634   0.00000  Uiso   1.00
O130   O     0.10016   0.82304   0.09211   0.00000  Uiso   1.00
O131   O     0.34357   0.54630   0.38548   0.00000  Uiso   1.00
O132   O     0.72925   0.25340   0.75760   0.00000  Uiso   1.00
N133   N     0.04786   0.78854   0.95920   0.00000  Uiso   1.00
N134   N     0.22133   0.59135   0.45564   0.00000  Uiso   1.00
N135   N     0.78357   0.38261   0.72079   0.00000  Uiso   1.00
N136   N     0.12797   0.69536   0.02560   0.00000  Uiso   1.00
N137   N     0.30144   0.49816   0.52205   0.00000  Uiso   1.00
N138   N     0.86369   0.28943   0.78720   0.00000  Uiso   1.00
C139   C     0.28885   0.99150   0.40724   0.00000  Uiso   1.00
C140   C     0.20711   0.96133   0.37506   0.00000  Uiso   1.00
C141   C     0.17363   0.98066   0.29514   0.00000  Uiso   1.00
C142   C     0.09823   0.94688   0.27795   0.00000  Uiso   1.00
C143   C     0.97749   0.90780   0.21875   0.00000  Uiso   1.00
C144   C     0.34020   0.91287   0.43143   0.00000  Uiso   1.00
C145   C     0.41862   0.89147   0.39893   0.00000  Uiso   1.00
C146   C     0.45525   0.81689   0.42921   0.00000  Uiso   1.00
C147   C     0.54116   0.70262   0.45757   0.00000  Uiso   1.00
C148   C     0.26826   0.03561   0.49169   0.00000  Uiso   1.00
C149   C     0.28620   0.11739   0.50985   0.00000  Uiso   1.00
C150   C     0.26227   0.14614   0.59087   0.00000  Uiso   1.00
C151   C     0.23647   0.22243   0.71279   0.00000  Uiso   1.00
C152   C     0.21447   0.89713   0.51882   0.00000  Uiso   1.00
C153   C     0.16672   0.91007   0.43567   0.00000  Uiso   1.00
C154   C     0.09135   0.87625   0.41860   0.00000  Uiso   1.00
C155   C     0.05776   0.89553   0.33867   0.00000  Uiso   1.00
C156   C     0.29981   0.86162   0.49204   0.00000  Uiso   1.00
C157   C     0.33634   0.78706   0.52238   0.00000  Uiso   1.00
C158   C     0.41479   0.76554   0.48992   0.00000  Uiso   1.00
C159   C     0.22786   0.98435   0.55230   0.00000  Uiso   1.00
C160   C     0.20391   0.01298   0.63330   0.00000  Uiso   1.00
C161   C     0.22181   0.09479   0.65159   0.00000  Uiso   1.00
H162   H     0.32030   0.03140   0.36005   0.00000  Uiso   1.00
H163   H     0.20492   0.02033   0.24825   0.00000  Uiso   1.00
H164   H     0.44987   0.93115   0.35203   0.00000  Uiso   1.00
H165   H     0.31746   0.15703   0.46294   0.00000  Uiso   1.00
H166   H     0.05919   0.98542   0.15102   0.00000  Uiso   1.00
H167   H     0.57570   0.79740   0.36986   0.00000  Uiso   1.00
H168   H     0.29650   0.27372   0.60373   0.00000  Uiso   1.00
H169   H     0.18303   0.85722   0.56601   0.00000  Uiso   1.00
H170   H     0.06010   0.83659   0.46551   0.00000  Uiso   1.00
H171   H     0.30506   0.74741   0.56929   0.00000  Uiso   1.00
H172   H     0.17265   0.97330   0.68019   0.00000  Uiso   1.00
H173   H     0.94166   0.83629   0.32735   0.00000  Uiso   1.00
H174   H     0.45817   0.64827   0.54619   0.00000  Uiso   1.00
H175   H     0.17896   0.12460   0.78006   0.00000  Uiso   1.00
O176   O     0.92205   0.90040   0.16935   0.00000  Uiso   1.00
O177   O     0.59970   0.65374   0.45647   0.00000  Uiso   1.00
O178   O     0.23338   0.27867   0.76329   0.00000  Uiso   1.00
N179   N     0.04839   0.95317   0.20632   0.00000  Uiso   1.00
N180   N     0.53129   0.77738   0.41091   0.00000  Uiso   1.00
N181   N     0.27028   0.22269   0.62956   0.00000  Uiso   1.00
N182   N     0.98515   0.87292   0.30120   0.00000  Uiso   1.00
N183   N     0.46805   0.69713   0.50579   0.00000  Uiso   1.00
N184   N     0.20703   0.14245   0.72445   0.00000  Uiso   1.00
C185   C     0.40394   0.29056   0.99792   0.00000  Uiso   1.00
C186   C     0.37439   0.20773   0.96570   0.00000  Uiso   1.00
C187   C     0.29816   0.17422   0.98480   0.00000  Uiso   1.00
C188   C     0.28292   0.09772   0.94900   0.00000  Uiso   1.00
C189   C     0.22807   0.97543   0.90699   0.00000  Uiso   1.00
C190   C     0.42703   0.34192   0.91749   0.00000  Uiso   1.00
C191   C     0.39506   0.42125   0.89607   0.00000  Uiso   1.00
C192   C     0.42413   0.45772   0.81970   0.00000  Uiso   1.00
C193   C     0.45104   0.54380   0.70288   0.00000  Uiso   1.00
C194   C     0.48473   0.26976   0.04372   0.00000  Uiso   1.00
C195   C     0.50129   0.28842   0.12842   0.00000  Uiso   1.00
C196   C     0.57896   0.26415   0.15831   0.00000  Uiso   1.00
C197   C     0.69546   0.23817   0.23747   0.00000  Uiso   1.00
C198   C     0.51243   0.21429   0.90038   0.00000  Uiso   1.00
C199   C     0.43332   0.16631   0.91272   0.00000  Uiso   1.00
C200   C     0.41819   0.08984   0.87688   0.00000  Uiso   1.00
C201   C     0.34195   0.05622   0.89593   0.00000  Uiso   1.00
C202   C     0.48595   0.30050   0.86451   0.00000  Uiso   1.00
C203   C     0.51509   0.33687   0.78816   0.00000  Uiso   1.00
C204   C     0.48316   0.41622   0.76662   0.00000  Uiso   1.00
C205   C     0.54366   0.22833   0.99074   0.00000  Uiso   1.00
C206   C     0.62132   0.20403   0.02050   0.00000  Uiso   1.00
C207   C     0.63799   0.22265   0.10523   0.00000  Uiso   1.00
H208   H     0.35806   0.32281   0.03916   0.00000  Uiso   1.00
H209   H     0.25258   0.20630   0.02580   0.00000  Uiso   1.00
H210   H     0.34946   0.45329   0.93709   0.00000  Uiso   1.00
H211   H     0.45568   0.32048   0.16940   0.00000  Uiso   1.00
H212   H     0.16160   0.05887   0.98759   0.00000  Uiso   1.00
H213   H     0.36591   0.57968   0.80056   0.00000  Uiso   1.00
H214   H     0.58989   0.29962   0.29043   0.00000  Uiso   1.00
H215   H     0.55830   0.18204   0.85913   0.00000  Uiso   1.00
H216   H     0.46380   0.05780   0.83588   0.00000  Uiso   1.00
H217   H     0.56069   0.30480   0.74717   0.00000  Uiso   1.00
H218   H     0.66690   0.17198   0.97948   0.00000  Uiso   1.00
H219   H     0.33304   0.93834   0.83344   0.00000  Uiso   1.00
H220   H     0.53735   0.45916   0.64641   0.00000  Uiso   1.00
H221   H     0.76133   0.17909   0.13628   0.00000  Uiso   1.00
O222   O     0.18153   0.91943   0.89845   0.00000  Uiso   1.00
O223   O     0.44959   0.60272   0.65308   0.00000  Uiso   1.00
O224   O     0.74344   0.23528   0.29578   0.00000  Uiso   1.00
N225   N     0.21492   0.04755   0.95451   0.00000  Uiso   1.00
N226   N     0.40593   0.53447   0.77964   0.00000  Uiso   1.00
N227   N     0.61534   0.27265   0.23762   0.00000  Uiso   1.00
N228   N     0.30717   0.98269   0.87157   0.00000  Uiso   1.00
N229   N     0.49818   0.46961   0.69670   0.00000  Uiso   1.00
N230   N     0.70759   0.20780   0.15468   0.00000  Uiso   1.00
C231   C     0.98949   0.40429   0.29392   0.00000  Uiso   1.00
C232   C     0.95963   0.37392   0.20793   0.00000  Uiso   1.00
C233   C     0.97914   0.29648   0.17262   0.00000  Uiso   1.00
C234   C     0.94563   0.28064   0.09330   0.00000  Uiso   1.00
C235   C     0.90701   0.22441   0.96625   0.00000  Uiso   1.00
C236   C     0.91181   0.42826   0.34671   0.00000  Uiso   1.00
C237   C     0.89113   0.39651   0.42809   0.00000  Uiso   1.00
C238   C     0.81736   0.42643   0.46560   0.00000  Uiso   1.00
C239   C     0.70453   0.45461   0.55403   0.00000  Uiso   1.00
C240   C     0.03246   0.48578   0.27362   0.00000  Uiso   1.00
C241   C     0.11321   0.50240   0.29357   0.00000  Uiso   1.00
C242   C     0.14101   0.58075   0.26956   0.00000  Uiso   1.00
C243   C     0.21551   0.69824   0.24451   0.00000  Uiso   1.00
C244   C     0.89528   0.51387   0.21584   0.00000  Uiso   1.00
C245   C     0.90845   0.43345   0.16552   0.00000  Uiso   1.00
C246   C     0.87490   0.41772   0.08623   0.00000  Uiso   1.00
C247   C     0.89436   0.34027   0.05081   0.00000  Uiso   1.00
C248   C     0.86064   0.48778   0.30430   0.00000  Uiso   1.00
C249   C     0.78689   0.51775   0.34169   0.00000  Uiso   1.00
C250   C     0.76609   0.48606   0.42311   0.00000  Uiso   1.00
C251   C     0.98129   0.54530   0.23121   0.00000  Uiso   1.00
C252   C     0.00897   0.62364   0.20717   0.00000  Uiso   1.00
C253   C     0.08975   0.64038   0.22707   0.00000  Uiso   1.00
H254   H     0.02933   0.35795   0.32695   0.00000  Uiso   1.00
H255   H     0.01874   0.25043   0.20547   0.00000  Uiso   1.00
H256   H     0.93074   0.35046   0.46090   0.00000  Uiso   1.00
H257   H     0.15279   0.45633   0.32639   0.00000  Uiso   1.00
H258   H     0.98441   0.15746   0.05210   0.00000  Uiso   1.00
H259   H     0.79888   0.36839   0.59070   0.00000  Uiso   1.00
H260   H     0.26711   0.59165   0.30707   0.00000  Uiso   1.00
H261   H     0.85543   0.56022   0.18282   0.00000  Uiso   1.00
H262   H     0.83530   0.46379   0.05342   0.00000  Uiso   1.00
H263   H     0.74730   0.56382   0.30885   0.00000  Uiso   1.00
H264   H     0.96935   0.66969   0.17435   0.00000  Uiso   1.00
H265   H     0.83552   0.33063   0.92869   0.00000  Uiso   1.00
H266   H     0.64999   0.54157   0.46730   0.00000  Uiso   1.00
H267   H     0.11822   0.76482   0.18366   0.00000  Uiso   1.00
O268   O     0.89984   0.17696   0.90789   0.00000  Uiso   1.00
O269   O     0.65643   0.45370   0.61452   0.00000  Uiso   1.00
O270   O     0.27075   0.74660   0.24240   0.00000  Uiso   1.00
N271   N     0.95214   0.21146   0.04080   0.00000  Uiso   1.00
N272   N     0.77867   0.40865   0.54436   0.00000  Uiso   1.00
N273   N     0.21643   0.61739   0.27921   0.00000  Uiso   1.00
N274   N     0.87203   0.30464   0.97440   0.00000  Uiso   1.00
N275   N     0.69856   0.50184   0.47795   0.00000  Uiso   1.00
N276   N     0.13631   0.71057   0.21280   0.00000  Uiso   1.00
