data_job_06651
_audit_creation_date              2018-12-19
_audit_creation_method            'Materials Studio'
_symmetry_space_group_name_H-M    'P1'
_symmetry_Int_Tables_number       1
_symmetry_cell_setting            triclinic
loop_
_symmetry_equiv_pos_as_xyz
  x,y,z
_cell_length_a                    13.7150
_cell_length_b                    23.1090
_cell_length_c                    27.1325
_cell_angle_alpha                 102.7708
_cell_angle_beta                  78.8766
_cell_angle_gamma                 99.9554
loop_
_atom_site_label
_atom_site_type_symbol
_atom_site_fract_x
_atom_site_fract_y
_atom_site_fract_z
_atom_site_U_iso_or_equiv
_atom_site_adp_type
_atom_site_occupancy
C1     C     0.83823   0.74898   0.08426   0.00000  Uiso   1.00
C2     C     0.81035   0.75779   0.03492   0.00000  Uiso   1.00
C3     C     0.74512   0.79595   0.03157   0.00000  Uiso   1.00
C4     C     0.72946   0.79760   0.98288   0.00000  Uiso   1.00
C5     C     0.67884   0.81662   0.91291   0.00000  Uiso   1.00
C6     C     0.81252   0.68212   0.08443   0.00000  Uiso   1.00
C7     C     0.74913   0.65667   0.12272   0.00000  Uiso   1.00
C8     C     0.73532   0.59461   0.11571   0.00000  Uiso   1.00
C9     C     0.68813   0.49617   0.12263   0.00000  Uiso   1.00
C10    C     0.95226   0.76252   0.07826   0.00000  Uiso   1.00
C11    C     0.00636   0.80465   0.11137   0.00000  Uiso   1.00
C12    C     0.11020   0.81027   0.09916   0.00000  Uiso   1.00
C13    C     0.27998   0.83665   0.09650   0.00000  Uiso   1.00
C14    C     0.92644   0.68404   0.00374   0.00000  Uiso   1.00
C15    C     0.85826   0.72252   0.99118   0.00000  Uiso   1.00
C16    C     0.84270   0.72411   0.94247   0.00000  Uiso   1.00
C17    C     0.77746   0.76226   0.93906   0.00000  Uiso   1.00
C18    C     0.86043   0.64685   0.04069   0.00000  Uiso   1.00
C19    C     0.84672   0.58482   0.03363   0.00000  Uiso   1.00
C20    C     0.78331   0.55928   0.07189   0.00000  Uiso   1.00
C21    C     0.00017   0.72725   0.03452   0.00000  Uiso   1.00
C22    C     0.10395   0.73280   0.02227   0.00000  Uiso   1.00
C23    C     0.15820   0.77493   0.05534   0.00000  Uiso   1.00
H24    H     0.80093   0.77644   0.11832   0.00000  Uiso   1.00
H25    H     0.70805   0.82324   0.06543   0.00000  Uiso   1.00
H26    H     0.71207   0.68397   0.15657   0.00000  Uiso   1.00
H27    H     0.96926   0.83193   0.14521   0.00000  Uiso   1.00
H28    H     0.62617   0.85955   0.98751   0.00000  Uiso   1.00
H29    H     0.63468   0.56591   0.17968   0.00000  Uiso   1.00
H30    H     0.17702   0.87791   0.15573   0.00000  Uiso   1.00
H31    H     0.96374   0.65658   0.96968   0.00000  Uiso   1.00
H32    H     0.87979   0.69680   0.90863   0.00000  Uiso   1.00
H33    H     0.88381   0.55754   0.99977   0.00000  Uiso   1.00
H34    H     0.14100   0.70550   0.98841   0.00000  Uiso   1.00
H35    H     0.76555   0.75693   0.86024   0.00000  Uiso   1.00
H36    H     0.77407   0.46329   0.05242   0.00000  Uiso   1.00
H37    H     0.31640   0.77529   0.02847   0.00000  Uiso   1.00
O38    O     0.63767   0.83685   0.88640   0.00000  Uiso   1.00
O39    O     0.64885   0.45161   0.13853   0.00000  Uiso   1.00
O40    O     0.36039   0.86094   0.10711   0.00000  Uiso   1.00
N41    N     0.67051   0.82989   0.96593   0.00000  Uiso   1.00
N42    N     0.67845   0.55535   0.14560   0.00000  Uiso   1.00
N43    N     0.18550   0.84703   0.12322   0.00000  Uiso   1.00
N44    N     0.74551   0.77467   0.89745   0.00000  Uiso   1.00
N45    N     0.75346   0.50013   0.07712   0.00000  Uiso   1.00
N46    N     0.26050   0.79182   0.05474   0.00000  Uiso   1.00
C47    C     0.99615   0.17818   0.12892   0.00000  Uiso   1.00
C48    C     0.92775   0.13223   0.09688   0.00000  Uiso   1.00
C49    C     0.95606   0.10173   0.04739   0.00000  Uiso   1.00
C50    C     0.88238   0.06153   0.02464   0.00000  Uiso   1.00
C51    C     0.79113   0.99162   0.97094   0.00000  Uiso   1.00
C52    C     0.94651   0.23510   0.14427   0.00000  Uiso   1.00
C53    C     0.99059   0.29109   0.13462   0.00000  Uiso   1.00
C54    C     0.93271   0.33749   0.15177   0.00000  Uiso   1.00
C55    C     0.87061   0.42730   0.17167   0.00000  Uiso   1.00
C56    C     0.99002   0.15546   0.17824   0.00000  Uiso   1.00
C57    C     0.07070   0.14450   0.19717   0.00000  Uiso   1.00
C58    C     0.04945   0.12386   0.24293   0.00000  Uiso   1.00
C59    C     0.05492   0.09002   0.31558   0.00000  Uiso   1.00
C60    C     0.81496   0.16104   0.17653   0.00000  Uiso   1.00
C61    C     0.82934   0.12292   0.12274   0.00000  Uiso   1.00
C62    C     0.75560   0.08276   0.10006   0.00000  Uiso   1.00
C63    C     0.78379   0.05220   0.05054   0.00000  Uiso   1.00
C64    C     0.84810   0.22580   0.17012   0.00000  Uiso   1.00
C65    C     0.79014   0.27212   0.18729   0.00000  Uiso   1.00
C66    C     0.83412   0.32817   0.17767   0.00000  Uiso   1.00
C67    C     0.89161   0.14615   0.20410   0.00000  Uiso   1.00
C68    C     0.87024   0.12553   0.24984   0.00000  Uiso   1.00
C69    C     0.95086   0.11454   0.26883   0.00000  Uiso   1.00
H70    H     0.07276   0.18543   0.10879   0.00000  Uiso   1.00
H71    H     0.03222   0.10895   0.02739   0.00000  Uiso   1.00
H72    H     0.06676   0.29828   0.11462   0.00000  Uiso   1.00
H73    H     0.14684   0.15171   0.17715   0.00000  Uiso   1.00
H74    H     0.94386   0.02006   0.94853   0.00000  Uiso   1.00
H75    H     0.01669   0.41929   0.13247   0.00000  Uiso   1.00
H76    H     0.18558   0.11022   0.26434   0.00000  Uiso   1.00
H77    H     0.73834   0.15379   0.19666   0.00000  Uiso   1.00
H78    H     0.67945   0.07557   0.12008   0.00000  Uiso   1.00
H79    H     0.71398   0.26490   0.20730   0.00000  Uiso   1.00
H80    H     0.79407   0.11833   0.26984   0.00000  Uiso   1.00
H81    H     0.65754   0.99297   0.02376   0.00000  Uiso   1.00
H82    H     0.73037   0.39220   0.20770   0.00000  Uiso   1.00
H83    H     0.89925   0.08312   0.33957   0.00000  Uiso   1.00
O84    O     0.76798   0.95564   0.93418   0.00000  Uiso   1.00
O85    O     0.86354   0.47941   0.17550   0.00000  Uiso   1.00
O86    O     0.08512   0.07392   0.34851   0.00000  Uiso   1.00
N87    N     0.88456   0.02441   0.97675   0.00000  Uiso   1.00
N88    N     0.95265   0.39766   0.14872   0.00000  Uiso   1.00
N89    N     0.11055   0.10872   0.27201   0.00000  Uiso   1.00
N90    N     0.73050   0.00983   0.01723   0.00000  Uiso   1.00
N91    N     0.79858   0.38308   0.18920   0.00000  Uiso   1.00
N92    N     0.95648   0.09414   0.31249   0.00000  Uiso   1.00
C93    C     0.44660   0.09487   0.93785   0.00000  Uiso   1.00
C94    C     0.35507   0.06142   0.96634   0.00000  Uiso   1.00
C95    C     0.34731   0.04890   0.01478   0.00000  Uiso   1.00
C96    C     0.25728   0.01780   0.03417   0.00000  Uiso   1.00
C97    C     0.12723   0.96855   0.08267   0.00000  Uiso   1.00
C98    C     0.47466   0.05307   0.88689   0.00000  Uiso   1.00
C99    C     0.56746   0.03355   0.86854   0.00000  Uiso   1.00
C100   C     0.57810   0.99543   0.82104   0.00000  Uiso   1.00
C101   C     0.63375   0.93327   0.74618   0.00000  Uiso   1.00
C102   C     0.40997   0.14752   0.92489   0.00000  Uiso   1.00
C103   C     0.44840   0.20741   0.93846   0.00000  Uiso   1.00
C104   C     0.40459   0.24881   0.92294   0.00000  Uiso   1.00
C105   C     0.35980   0.33328   0.90707   0.00000  Uiso   1.00
C106   C     0.30051   0.06190   0.88615   0.00000  Uiso   1.00
C107   C     0.27572   0.04351   0.93825   0.00000  Uiso   1.00
C108   C     0.18567   0.01242   0.95758   0.00000  Uiso   1.00
C109   C     0.17778   0.99986   0.00604   0.00000  Uiso   1.00
C110   C     0.39531   0.03516   0.85881   0.00000  Uiso   1.00
C111   C     0.40582   0.99707   0.81133   0.00000  Uiso   1.00
C112   C     0.49861   0.97749   0.79291   0.00000  Uiso   1.00
C113   C     0.33062   0.12961   0.89680   0.00000  Uiso   1.00
C114   C     0.28675   0.17093   0.88126   0.00000  Uiso   1.00
C115   C     0.32510   0.23086   0.89480   0.00000  Uiso   1.00
H116   H     0.50839   0.10881   0.95971   0.00000  Uiso   1.00
H117   H     0.40874   0.06276   0.03650   0.00000  Uiso   1.00
H118   H     0.62886   0.04742   0.89028   0.00000  Uiso   1.00
H119   H     0.50980   0.22125   0.96019   0.00000  Uiso   1.00
H120   H     0.26328   0.00379   0.10924   0.00000  Uiso   1.00
H121   H     0.72742   0.97146   0.80091   0.00000  Uiso   1.00
H122   H     0.47638   0.33801   0.94834   0.00000  Uiso   1.00
H123   H     0.23873   0.04795   0.86428   0.00000  Uiso   1.00
H124   H     0.12428   0.99857   0.93583   0.00000  Uiso   1.00
H125   H     0.34440   0.98322   0.78961   0.00000  Uiso   1.00
H126   H     0.22535   0.15705   0.85952   0.00000  Uiso   1.00
H127   H     0.03240   0.95168   0.02753   0.00000  Uiso   1.00
H128   H     0.49655   0.91936   0.71920   0.00000  Uiso   1.00
H129   H     0.24550   0.28590   0.86663   0.00000  Uiso   1.00
O130   O     0.07743   0.94633   0.11717   0.00000  Uiso   1.00
O131   O     0.68637   0.90393   0.71265   0.00000  Uiso   1.00
O132   O     0.35701   0.38483   0.90608   0.00000  Uiso   1.00
N133   N     0.22464   0.99831   0.08020   0.00000  Uiso   1.00
N134   N     0.65858   0.96808   0.79193   0.00000  Uiso   1.00
N135   N     0.42390   0.31077   0.92975   0.00000  Uiso   1.00
N136   N     0.10041   0.97028   0.03623   0.00000  Uiso   1.00
N137   N     0.53435   0.94005   0.74796   0.00000  Uiso   1.00
N138   N     0.29966   0.28274   0.88578   0.00000  Uiso   1.00
C139   C     0.88335   0.69427   0.55953   0.00000  Uiso   1.00
C140   C     0.85944   0.65401   0.50947   0.00000  Uiso   1.00
C141   C     0.86837   0.59345   0.49474   0.00000  Uiso   1.00
C142   C     0.84278   0.56456   0.44748   0.00000  Uiso   1.00
C143   C     0.81068   0.49737   0.37454   0.00000  Uiso   1.00
C144   C     0.78806   0.72148   0.58507   0.00000  Uiso   1.00
C145   C     0.73698   0.71766   0.63390   0.00000  Uiso   1.00
C146   C     0.65131   0.74557   0.65027   0.00000  Uiso   1.00
C147   C     0.50843   0.78317   0.69471   0.00000  Uiso   1.00
C148   C     0.96052   0.74595   0.54447   0.00000  Uiso   1.00
C149   C     0.05443   0.76273   0.55919   0.00000  Uiso   1.00
C150   C     0.11395   0.81126   0.54139   0.00000  Uiso   1.00
C151   C     0.23884   0.88686   0.52280   0.00000  Uiso   1.00
C152   C     0.82204   0.75063   0.50178   0.00000  Uiso   1.00
C153   C     0.82614   0.68462   0.47811   0.00000  Uiso   1.00
C154   C     0.80054   0.65581   0.43085   0.00000  Uiso   1.00
C155   C     0.80942   0.59523   0.41606   0.00000  Uiso   1.00
C156   C     0.75476   0.75209   0.55370   0.00000  Uiso   1.00
C157   C     0.66915   0.78001   0.57001   0.00000  Uiso   1.00
C158   C     0.61795   0.77623   0.61885   0.00000  Uiso   1.00
C159   C     0.92722   0.77657   0.51311   0.00000  Uiso   1.00
C160   C     0.98660   0.82508   0.49529   0.00000  Uiso   1.00
C161   C     0.08059   0.84193   0.50997   0.00000  Uiso   1.00
H162   H     0.90927   0.67044   0.58395   0.00000  Uiso   1.00
H163   H     0.89413   0.56978   0.51903   0.00000  Uiso   1.00
H164   H     0.76278   0.69397   0.65816   0.00000  Uiso   1.00
H165   H     0.08018   0.73903   0.58346   0.00000  Uiso   1.00
H166   H     0.86263   0.47167   0.43323   0.00000  Uiso   1.00
H167   H     0.58567   0.73355   0.72661   0.00000  Uiso   1.00
H168   H     0.25498   0.82857   0.56908   0.00000  Uiso   1.00
H169   H     0.79611   0.77447   0.47736   0.00000  Uiso   1.00
H170   H     0.77477   0.67951   0.40659   0.00000  Uiso   1.00
H171   H     0.64340   0.80370   0.54573   0.00000  Uiso   1.00
H172   H     0.96081   0.84876   0.47102   0.00000  Uiso   1.00
H173   H     0.76574   0.56073   0.34197   0.00000  Uiso   1.00
H174   H     0.48878   0.82262   0.63535   0.00000  Uiso   1.00
H175   H     0.15809   0.91764   0.47782   0.00000  Uiso   1.00
O176   O     0.80216   0.45186   0.34298   0.00000  Uiso   1.00
O177   O     0.43881   0.79544   0.72788   0.00000  Uiso   1.00
O178   O     0.31693   0.92010   0.52120   0.00000  Uiso   1.00
N179   N     0.84278   0.50567   0.42146   0.00000  Uiso   1.00
N180   N     0.58383   0.75050   0.69575   0.00000  Uiso   1.00
N181   N     0.20956   0.83935   0.54848   0.00000  Uiso   1.00
N182   N     0.79064   0.55359   0.37235   0.00000  Uiso   1.00
N183   N     0.53169   0.79842   0.64664   0.00000  Uiso   1.00
N184   N     0.15743   0.88727   0.49938   0.00000  Uiso   1.00
C185   C     0.75447   0.25719   0.70670   0.00000  Uiso   1.00
C186   C     0.64086   0.24100   0.71769   0.00000  Uiso   1.00
C187   C     0.57403   0.24396   0.68617   0.00000  Uiso   1.00
C188   C     0.47300   0.22721   0.70306   0.00000  Uiso   1.00
C189   C     0.30160   0.20494   0.71300   0.00000  Uiso   1.00
C190   C     0.79844   0.20179   0.70907   0.00000  Uiso   1.00
C191   C     0.86412   0.17178   0.67031   0.00000  Uiso   1.00
C192   C     0.89575   0.12203   0.67995   0.00000  Uiso   1.00
C193   C     0.96905   0.03889   0.67652   0.00000  Uiso   1.00
C194   C     0.78261   0.30479   0.75230   0.00000  Uiso   1.00
C195   C     0.83499   0.36139   0.74989   0.00000  Uiso   1.00
C196   C     0.85332   0.39836   0.79592   0.00000  Uiso   1.00
C197   C     0.90203   0.47515   0.85961   0.00000  Uiso   1.00
C198   C     0.69389   0.22218   0.79273   0.00000  Uiso   1.00
C199   C     0.60796   0.22198   0.76442   0.00000  Uiso   1.00
C200   C     0.50700   0.20523   0.78136   0.00000  Uiso   1.00
C201   C     0.44003   0.20817   0.74987   0.00000  Uiso   1.00
C202   C     0.76554   0.18277   0.75580   0.00000  Uiso   1.00
C203   C     0.79709   0.13305   0.76549   0.00000  Uiso   1.00
C204   C     0.86278   0.10298   0.72676   0.00000  Uiso   1.00
C205   C     0.74970   0.28578   0.79903   0.00000  Uiso   1.00
C206   C     0.76795   0.32266   0.84507   0.00000  Uiso   1.00
C207   C     0.82035   0.37931   0.84273   0.00000  Uiso   1.00
H208   H     0.78010   0.27199   0.67032   0.00000  Uiso   1.00
H209   H     0.59953   0.25867   0.65001   0.00000  Uiso   1.00
H210   H     0.88958   0.18651   0.63416   0.00000  Uiso   1.00
H211   H     0.86045   0.37609   0.71372   0.00000  Uiso   1.00
H212   H     0.38483   0.23550   0.64809   0.00000  Uiso   1.00
H213   H     0.99643   0.08335   0.61467   0.00000  Uiso   1.00
H214   H     0.93501   0.48312   0.78244   0.00000  Uiso   1.00
H215   H     0.66827   0.20738   0.82911   0.00000  Uiso   1.00
H216   H     0.48156   0.19052   0.81752   0.00000  Uiso   1.00
H217   H     0.77161   0.11835   0.80166   0.00000  Uiso   1.00
H218   H     0.74248   0.30793   0.88123   0.00000  Uiso   1.00
H219   H     0.28908   0.18018   0.78405   0.00000  Uiso   1.00
H220   H     0.90069   0.02803   0.75062   0.00000  Uiso   1.00
H221   H     0.83926   0.42780   0.91840   0.00000  Uiso   1.00
O222   O     0.21615   0.19790   0.70557   0.00000  Uiso   1.00
O223   O     0.01857   0.99829   0.66172   0.00000  Uiso   1.00
O224   O     0.93798   0.52277   0.88184   0.00000  Uiso   1.00
N225   N     0.38791   0.22481   0.68168   0.00000  Uiso   1.00
N226   N     0.95972   0.08255   0.65043   0.00000  Uiso   1.00
N227   N     0.90232   0.45629   0.80729   0.00000  Uiso   1.00
N228   N     0.33639   0.19504   0.75484   0.00000  Uiso   1.00
N229   N     0.90819   0.05278   0.72359   0.00000  Uiso   1.00
N230   N     0.85080   0.42653   0.88044   0.00000  Uiso   1.00
C231   C     0.21329   0.51519   0.21301   0.00000  Uiso   1.00
C232   C     0.15546   0.45691   0.22695   0.00000  Uiso   1.00
C233   C     0.06218   0.45096   0.25758   0.00000  Uiso   1.00
C234   C     0.02186   0.39383   0.26576   0.00000  Uiso   1.00
C235   C     0.92425   0.31086   0.29068   0.00000  Uiso   1.00
C236   C     0.23399   0.50435   0.15467   0.00000  Uiso   1.00
C237   C     0.20675   0.53829   0.12453   0.00000  Uiso   1.00
C238   C     0.23255   0.52110   0.07186   0.00000  Uiso   1.00
C239   C     0.25693   0.51180   0.98456   0.00000  Uiso   1.00
C240   C     0.31502   0.52202   0.23004   0.00000  Uiso   1.00
C241   C     0.35592   0.57081   0.26327   0.00000  Uiso   1.00
C242   C     0.44995   0.56850   0.27405   0.00000  Uiso   1.00
C243   C     0.60013   0.58662   0.30379   0.00000  Uiso   1.00
C244   C     0.30756   0.42432   0.17306   0.00000  Uiso   1.00
C245   C     0.20667   0.40756   0.20525   0.00000  Uiso   1.00
C246   C     0.16648   0.35043   0.21338   0.00000  Uiso   1.00
C247   C     0.07315   0.34439   0.24403   0.00000  Uiso   1.00
C248   C     0.28519   0.45500   0.13297   0.00000  Uiso   1.00
C249   C     0.31105   0.43776   0.08033   0.00000  Uiso   1.00
C250   C     0.28384   0.47166   0.05012   0.00000  Uiso   1.00
C251   C     0.36622   0.47266   0.20834   0.00000  Uiso   1.00
C252   C     0.46021   0.47027   0.21907   0.00000  Uiso   1.00
C253   C     0.50124   0.51905   0.25231   0.00000  Uiso   1.00
H254   H     0.17343   0.55361   0.22990   0.00000  Uiso   1.00
H255   H     0.02258   0.48917   0.27437   0.00000  Uiso   1.00
H256   H     0.16714   0.57649   0.14133   0.00000  Uiso   1.00
H257   H     0.31628   0.60900   0.28005   0.00000  Uiso   1.00
H258   H     0.87789   0.39595   0.31407   0.00000  Uiso   1.00
H259   H     0.18273   0.58008   0.03357   0.00000  Uiso   1.00
H260   H     0.49722   0.64864   0.32609   0.00000  Uiso   1.00
H261   H     0.34742   0.38589   0.15617   0.00000  Uiso   1.00
H262   H     0.20612   0.31224   0.19659   0.00000  Uiso   1.00
H263   H     0.35067   0.39956   0.06355   0.00000  Uiso   1.00
H264   H     0.49981   0.43207   0.20227   0.00000  Uiso   1.00
H265   H     0.02685   0.25235   0.25094   0.00000  Uiso   1.00
H266   H     0.33170   0.43648   0.97044   0.00000  Uiso   1.00
H267   H     0.64619   0.50504   0.26296   0.00000  Uiso   1.00
O268   O     0.85626   0.27872   0.31041   0.00000  Uiso   1.00
O269   O     0.25622   0.52031   0.94240   0.00000  Uiso   1.00
O270   O     0.66882   0.61025   0.32619   0.00000  Uiso   1.00
N271   N     0.93235   0.37226   0.29368   0.00000  Uiso   1.00
N272   N     0.21734   0.54441   0.03142   0.00000  Uiso   1.00
N273   N     0.51138   0.60851   0.30489   0.00000  Uiso   1.00
N274   N     0.01251   0.29499   0.25971   0.00000  Uiso   1.00
N275   N     0.29750   0.46714   0.99745   0.00000  Uiso   1.00
N276   N     0.59154   0.53124   0.27093   0.00000  Uiso   1.00
C277   C     0.96149   0.23290   0.93967   0.00000  Uiso   1.00
C278   C     0.04725   0.23894   0.96962   0.00000  Uiso   1.00
C279   C     0.09260   0.19215   0.97543   0.00000  Uiso   1.00
C280   C     0.16983   0.20696   0.00427   0.00000  Uiso   1.00
C281   C     0.29836   0.20730   0.04737   0.00000  Uiso   1.00
C282   C     0.99844   0.27291   0.90019   0.00000  Uiso   1.00
C283   C     0.00272   0.25469   0.84762   0.00000  Uiso   1.00
C284   C     0.03885   0.29810   0.81802   0.00000  Uiso   1.00
C285   C     0.09152   0.35118   0.75334   0.00000  Uiso   1.00
C286   C     0.87752   0.26188   0.97722   0.00000  Uiso   1.00
C287   C     0.78013   0.23439   0.98941   0.00000  Uiso   1.00
C288   C     0.71445   0.26852   0.02465   0.00000  Uiso   1.00
C289   C     0.57938   0.30449   0.07957   0.00000  Uiso   1.00
C290   C     0.01801   0.34239   0.98058   0.00000  Uiso   1.00
C291   C     0.07795   0.29841   0.99184   0.00000  Uiso   1.00
C292   C     0.15514   0.31330   0.02068   0.00000  Uiso   1.00
C293   C     0.20059   0.26654   0.02653   0.00000  Uiso   1.00
C294   C     0.02914   0.33238   0.92241   0.00000  Uiso   1.00
C295   C     0.06526   0.37583   0.89288   0.00000  Uiso   1.00
C296   C     0.06960   0.35768   0.84028   0.00000  Uiso   1.00
C297   C     0.90822   0.32135   0.99944   0.00000  Uiso   1.00
C298   C     0.84267   0.35554   0.03467   0.00000  Uiso   1.00
C299   C     0.74520   0.32811   0.04691   0.00000  Uiso   1.00
H300   H     0.93759   0.18660   0.92237   0.00000  Uiso   1.00
H301   H     0.06882   0.14613   0.95822   0.00000  Uiso   1.00
H302   H     0.97895   0.20866   0.83044   0.00000  Uiso   1.00
H303   H     0.75640   0.18837   0.97221   0.00000  Uiso   1.00
H304   H     0.22788   0.12750   0.00775   0.00000  Uiso   1.00
H305   H     0.03835   0.25935   0.73832   0.00000  Uiso   1.00
H306   H     0.56905   0.21656   0.03726   0.00000  Uiso   1.00
H307   H     0.04192   0.38870   0.99788   0.00000  Uiso   1.00
H308   H     0.17888   0.35933   0.03787   0.00000  Uiso   1.00
H309   H     0.08901   0.42185   0.91009   0.00000  Uiso   1.00
H310   H     0.86646   0.40156   0.05186   0.00000  Uiso   1.00
H311   H     0.31721   0.30054   0.07240   0.00000  Uiso   1.00
H312   H     0.12767   0.43238   0.80296   0.00000  Uiso   1.00
H313   H     0.65839   0.38960   0.10191   0.00000  Uiso   1.00
O314   O     0.36079   0.19105   0.06501   0.00000  Uiso   1.00
O315   O     0.11210   0.36403   0.71152   0.00000  Uiso   1.00
O316   O     0.49641   0.30789   0.10373   0.00000  Uiso   1.00
N317   N     0.23010   0.17226   0.01748   0.00000  Uiso   1.00
N318   N     0.05291   0.29552   0.76558   0.00000  Uiso   1.00
N319   N     0.61415   0.25552   0.04506   0.00000  Uiso   1.00
N320   N     0.27817   0.26537   0.05227   0.00000  Uiso   1.00
N321   N     0.10098   0.38863   0.80037   0.00000  Uiso   1.00
N322   N     0.66222   0.34863   0.07984   0.00000  Uiso   1.00
C323   C     0.12051   0.80645   0.90129   0.00000  Uiso   1.00
C324   C     0.22172   0.83860   0.91453   0.00000  Uiso   1.00
C325   C     0.24568   0.85744   0.96349   0.00000  Uiso   1.00
C326   C     0.34235   0.88603   0.96754   0.00000  Uiso   1.00
C327   C     0.48885   0.93449   0.99469   0.00000  Uiso   1.00
C328   C     0.14192   0.74820   0.86447   0.00000  Uiso   1.00
C329   C     0.09877   0.69103   0.87135   0.00000  Uiso   1.00
C330   C     0.12826   0.64352   0.83325   0.00000  Uiso   1.00
C331   C     0.15081   0.55163   0.78268   0.00000  Uiso   1.00
C332   C     0.08635   0.84439   0.87013   0.00000  Uiso   1.00
C333   C     0.99647   0.86809   0.88175   0.00000  Uiso   1.00
C334   C     0.97916   0.90155   0.84842   0.00000  Uiso   1.00
C335   C     0.91544   0.95901   0.80663   0.00000  Uiso   1.00
C336   C     0.24958   0.82372   0.82141   0.00000  Uiso   1.00
C337   C     0.29182   0.84797   0.87114   0.00000  Uiso   1.00
C338   C     0.38848   0.87654   0.87511   0.00000  Uiso   1.00
C339   C     0.41258   0.89543   0.92408   0.00000  Uiso   1.00
C340   C     0.21202   0.75757   0.82108   0.00000  Uiso   1.00
C341   C     0.24157   0.71013   0.78297   0.00000  Uiso   1.00
C342   C     0.19849   0.65291   0.78979   0.00000  Uiso   1.00
C343   C     0.15645   0.85377   0.82674   0.00000  Uiso   1.00
C344   C     0.13927   0.88719   0.79338   0.00000  Uiso   1.00
C345   C     0.04939   0.91094   0.80495   0.00000  Uiso   1.00
H346   H     0.06593   0.79915   0.93506   0.00000  Uiso   1.00
H347   H     0.19141   0.85017   0.99706   0.00000  Uiso   1.00
H348   H     0.04452   0.68379   0.90492   0.00000  Uiso   1.00
H349   H     0.94224   0.86082   0.91533   0.00000  Uiso   1.00
H350   H     0.36146   0.91086   0.04665   0.00000  Uiso   1.00
H351   H     0.05169   0.56003   0.85237   0.00000  Uiso   1.00
H352   H     0.83602   0.93334   0.87432   0.00000  Uiso   1.00
H353   H     0.30416   0.83102   0.78763   0.00000  Uiso   1.00
H354   H     0.44271   0.88380   0.84153   0.00000  Uiso   1.00
H355   H     0.29582   0.71741   0.74940   0.00000  Uiso   1.00
H356   H     0.19354   0.89444   0.75981   0.00000  Uiso   1.00
H357   H     0.56542   0.93814   0.92042   0.00000  Uiso   1.00
H358   H     0.25566   0.58732   0.72614   0.00000  Uiso   1.00
H359   H     0.03999   0.96062   0.74810   0.00000  Uiso   1.00
O360   O     0.55030   0.95862   0.02166   0.00000  Uiso   1.00
O361   O     0.14388   0.49836   0.76677   0.00000  Uiso   1.00
O362   O     0.86093   0.98813   0.79557   0.00000  Uiso   1.00
N363   N     0.39044   0.91005   0.00955   0.00000  Uiso   1.00
N364   N     0.10084   0.58205   0.82791   0.00000  Uiso   1.00
N365   N     0.89919   0.93104   0.84843   0.00000  Uiso   1.00
N366   N     0.50019   0.92473   0.94162   0.00000  Uiso   1.00
N367   N     0.21059   0.59673   0.75999   0.00000  Uiso   1.00
N368   N     0.00894   0.94572   0.78050   0.00000  Uiso   1.00
C369   C     0.61723   0.86950   0.29646   0.00000  Uiso   1.00
C370   C     0.73006   0.86924   0.28051   0.00000  Uiso   1.00
C371   C     0.79996   0.91832   0.27126   0.00000  Uiso   1.00
C372   C     0.89963   0.90886   0.25707   0.00000  Uiso   1.00
C373   C     0.07047   0.91706   0.23307   0.00000  Uiso   1.00
C374   C     0.58937   0.84593   0.34629   0.00000  Uiso   1.00
C375   C     0.54097   0.87541   0.39234   0.00000  Uiso   1.00
C376   C     0.52220   0.84632   0.43352   0.00000  Uiso   1.00
C377   C     0.47455   0.81831   0.51163   0.00000  Uiso   1.00
C378   C     0.56839   0.82200   0.25657   0.00000  Uiso   1.00
C379   C     0.50232   0.83136   0.22719   0.00000  Uiso   1.00
C380   C     0.46585   0.78212   0.19283   0.00000  Uiso   1.00
C381   C     0.38563   0.71696   0.13163   0.00000  Uiso   1.00
C382   C     0.66993   0.76540   0.28770   0.00000  Uiso   1.00
C383   C     0.75868   0.81270   0.27576   0.00000  Uiso   1.00
C384   C     0.85827   0.80316   0.26158   0.00000  Uiso   1.00
C385   C     0.92831   0.85222   0.25231   0.00000  Uiso   1.00
C386   C     0.61799   0.78939   0.34154   0.00000  Uiso   1.00
C387   C     0.59928   0.76024   0.38266   0.00000  Uiso   1.00
C388   C     0.55087   0.78968   0.42876   0.00000  Uiso   1.00
C389   C     0.59701   0.76546   0.25181   0.00000  Uiso   1.00
C390   C     0.56063   0.71619   0.21750   0.00000  Uiso   1.00
C391   C     0.49453   0.72548   0.18807   0.00000  Uiso   1.00
H392   H     0.59495   0.91352   0.30016   0.00000  Uiso   1.00
H393   H     0.77778   0.96207   0.27495   0.00000  Uiso   1.00
H394   H     0.51882   0.91916   0.39601   0.00000  Uiso   1.00
H395   H     0.48018   0.87512   0.23088   0.00000  Uiso   1.00
H396   H     0.99311   0.99098   0.24493   0.00000  Uiso   1.00
H397   H     0.44706   0.90049   0.50018   0.00000  Uiso   1.00
H398   H     0.36557   0.80762   0.15197   0.00000  Uiso   1.00
H399   H     0.69222   0.72138   0.28400   0.00000  Uiso   1.00
H400   H     0.88040   0.75940   0.25790   0.00000  Uiso   1.00
H401   H     0.62144   0.71649   0.37896   0.00000  Uiso   1.00
H402   H     0.58280   0.67245   0.21383   0.00000  Uiso   1.00
H403   H     0.07640   0.82648   0.23109   0.00000  Uiso   1.00
H404   H     0.53034   0.73600   0.48634   0.00000  Uiso   1.00
H405   H     0.44886   0.64312   0.13813   0.00000  Uiso   1.00
O406   O     0.15680   0.93721   0.22115   0.00000  Uiso   1.00
O407   O     0.44037   0.81849   0.55603   0.00000  Uiso   1.00
O408   O     0.33348   0.69664   0.09918   0.00000  Uiso   1.00
N409   N     0.98689   0.94704   0.24524   0.00000  Uiso   1.00
N410   N     0.47637   0.86245   0.48389   0.00000  Uiso   1.00
N411   N     0.40017   0.77562   0.15835   0.00000  Uiso   1.00
N412   N     0.03171   0.85853   0.23780   0.00000  Uiso   1.00
N413   N     0.52119   0.77394   0.47644   0.00000  Uiso   1.00
N414   N     0.44499   0.68710   0.15091   0.00000  Uiso   1.00
C415   C     0.03169   0.38197   0.45445   0.00000  Uiso   1.00
C416   C     0.03072   0.39954   0.51211   0.00000  Uiso   1.00
C417   C     0.99230   0.44887   0.54415   0.00000  Uiso   1.00
C418   C     0.99855   0.45719   0.59577   0.00000  Uiso   1.00
C419   C     0.99053   0.49052   0.68243   0.00000  Uiso   1.00
C420   C     0.14104   0.37835   0.43030   0.00000  Uiso   1.00
C421   C     0.19536   0.40985   0.39356   0.00000  Uiso   1.00
C422   C     0.29448   0.40033   0.37631   0.00000  Uiso   1.00
C423   C     0.45770   0.40072   0.33593   0.00000  Uiso   1.00
C424   C     0.97775   0.31803   0.44472   0.00000  Uiso   1.00
C425   C     0.89480   0.29881   0.42008   0.00000  Uiso   1.00
C426   C     0.85645   0.23849   0.41496   0.00000  Uiso   1.00
C427   C     0.76614   0.14523   0.39698   0.00000  Uiso   1.00
C428   C     0.11112   0.30902   0.48915   0.00000  Uiso   1.00
C429   C     0.07387   0.35991   0.53096   0.00000  Uiso   1.00
C430   C     0.08017   0.36816   0.58254   0.00000  Uiso   1.00
C431   C     0.04177   0.41750   0.61465   0.00000  Uiso   1.00
C432   C     0.18418   0.33872   0.44915   0.00000  Uiso   1.00
C433   C     0.28324   0.32914   0.43195   0.00000  Uiso   1.00
C434   C     0.33770   0.36063   0.39519   0.00000  Uiso   1.00
C435   C     0.02089   0.27840   0.46357   0.00000  Uiso   1.00
C436   C     0.98267   0.21810   0.45848   0.00000  Uiso   1.00
C437   C     0.89966   0.19880   0.43385   0.00000  Uiso   1.00
H438   H     0.99811   0.41281   0.43977   0.00000  Uiso   1.00
H439   H     0.95893   0.47953   0.52954   0.00000  Uiso   1.00
H440   H     0.16196   0.44051   0.37897   0.00000  Uiso   1.00
H441   H     0.86143   0.32949   0.40550   0.00000  Uiso   1.00
H442   H     0.93455   0.53603   0.63738   0.00000  Uiso   1.00
H443   H     0.36263   0.45375   0.31988   0.00000  Uiso   1.00
H444   H     0.72892   0.21963   0.37582   0.00000  Uiso   1.00
H445   H     0.14471   0.27817   0.50383   0.00000  Uiso   1.00
H446   H     0.11356   0.33749   0.59712   0.00000  Uiso   1.00
H447   H     0.31659   0.29848   0.44655   0.00000  Uiso   1.00
H448   H     0.01607   0.18745   0.47308   0.00000  Uiso   1.00
H449   H     0.06006   0.42075   0.69223   0.00000  Uiso   1.00
H450   H     0.48814   0.33846   0.37473   0.00000  Uiso   1.00
H451   H     0.85443   0.10435   0.43067   0.00000  Uiso   1.00
O452   O     0.97420   0.51986   0.72502   0.00000  Uiso   1.00
O453   O     0.53582   0.41189   0.30846   0.00000  Uiso   1.00
O454   O     0.70440   0.10474   0.38185   0.00000  Uiso   1.00
N455   N     0.96834   0.50075   0.63749   0.00000  Uiso   1.00
N456   N     0.36858   0.42383   0.34065   0.00000  Uiso   1.00
N457   N     0.77613   0.20494   0.39294   0.00000  Uiso   1.00
N458   N     0.03588   0.43872   0.66700   0.00000  Uiso   1.00
N459   N     0.43611   0.36179   0.37016   0.00000  Uiso   1.00
N460   N     0.84366   0.14291   0.42245   0.00000  Uiso   1.00
C461   C     0.99292   0.72992   0.34577   0.00000  Uiso   1.00
C462   C     0.08043   0.72227   0.36985   0.00000  Uiso   1.00
C463   C     0.07577   0.68588   0.40488   0.00000  Uiso   1.00
C464   C     0.16410   0.68507   0.42238   0.00000  Uiso   1.00
C465   C     0.28633   0.66799   0.46237   0.00000  Uiso   1.00
C466   C     0.98576   0.79685   0.35808   0.00000  Uiso   1.00
C467   C     0.90149   0.82317   0.38321   0.00000  Uiso   1.00
C468   C     0.91013   0.88514   0.39081   0.00000  Uiso   1.00
C469   C     0.88535   0.98385   0.41250   0.00000  Uiso   1.00
C470   C     0.02576   0.71399   0.28800   0.00000  Uiso   1.00
C471   C     0.97512   0.67064   0.25419   0.00000  Uiso   1.00
C472   C     0.01743   0.66285   0.20278   0.00000  Uiso   1.00
C473   C     0.05476   0.63290   0.11565   0.00000  Uiso   1.00
C474   C     0.15809   0.79318   0.31457   0.00000  Uiso   1.00
C475   C     0.17014   0.75663   0.35290   0.00000  Uiso   1.00
C476   C     0.25851   0.75587   0.37036   0.00000  Uiso   1.00
C477   C     0.25398   0.71949   0.40540   0.00000  Uiso   1.00
C478   C     0.07547   0.83122   0.34114   0.00000  Uiso   1.00
C479   C     0.08423   0.89316   0.34870   0.00000  Uiso   1.00
C480   C     0.00000   0.91957   0.37384   0.00000  Uiso   1.00
C481   C     0.11548   0.74835   0.27105   0.00000  Uiso   1.00
C482   C     0.15786   0.74063   0.21967   0.00000  Uiso   1.00
C483   C     0.10730   0.69728   0.18580   0.00000  Uiso   1.00
H484   H     0.92308   0.70317   0.35896   0.00000  Uiso   1.00
H485   H     0.00633   0.65930   0.41798   0.00000  Uiso   1.00
H486   H     0.83208   0.79657   0.39632   0.00000  Uiso   1.00
H487   H     0.90570   0.64406   0.26732   0.00000  Uiso   1.00
H488   H     0.13818   0.62583   0.47596   0.00000  Uiso   1.00
H489   H     0.77075   0.91527   0.43027   0.00000  Uiso   1.00
H490   H     0.92600   0.59367   0.15825   0.00000  Uiso   1.00
H491   H     0.22794   0.81994   0.30137   0.00000  Uiso   1.00
H492   H     0.32792   0.78247   0.35723   0.00000  Uiso   1.00
H493   H     0.15367   0.91974   0.33557   0.00000  Uiso   1.00
H494   H     0.22729   0.76723   0.20657   0.00000  Uiso   1.00
H495   H     0.39920   0.72581   0.42666   0.00000  Uiso   1.00
H496   H     0.03176   0.01524   0.38096   0.00000  Uiso   1.00
H497   H     0.18701   0.69365   0.10894   0.00000  Uiso   1.00
O498   O     0.32895   0.64908   0.48911   0.00000  Uiso   1.00
O499   O     0.84689   0.02881   0.42915   0.00000  Uiso   1.00
O500   O     0.05057   0.60688   0.07227   0.00000  Uiso   1.00
N501   N     0.18589   0.65449   0.45669   0.00000  Uiso   1.00
N502   N     0.84237   0.92510   0.41397   0.00000  Uiso   1.00
N503   N     0.98750   0.62445   0.15965   0.00000  Uiso   1.00
N504   N     0.32635   0.70829   0.43015   0.00000  Uiso   1.00
N505   N     0.98283   0.97889   0.38744   0.00000  Uiso   1.00
N506   N     0.12795   0.67824   0.13312   0.00000  Uiso   1.00
C507   C     0.67012   0.54553   0.82522   0.00000  Uiso   1.00
C508   C     0.70558   0.60502   0.80757   0.00000  Uiso   1.00
C509   C     0.80373   0.62584   0.78864   0.00000  Uiso   1.00
C510   C     0.82077   0.68139   0.77456   0.00000  Uiso   1.00
C511   C     0.88774   0.76868   0.74646   0.00000  Uiso   1.00
C512   C     0.61680   0.56104   0.88025   0.00000  Uiso   1.00
C513   C     0.64031   0.54489   0.92243   0.00000  Uiso   1.00
C514   C     0.58260   0.56342   0.96953   0.00000  Uiso   1.00
C515   C     0.51171   0.58241   0.05427   0.00000  Uiso   1.00
C516   C     0.58912   0.51277   0.79376   0.00000  Uiso   1.00
C517   C     0.58933   0.45602   0.76324   0.00000  Uiso   1.00
C518   C     0.50830   0.43391   0.73753   0.00000  Uiso   1.00
C519   C     0.39443   0.37795   0.68798   0.00000  Uiso   1.00
C520   C     0.52584   0.60717   0.83385   0.00000  Uiso   1.00
C521   C     0.62720   0.63849   0.81226   0.00000  Uiso   1.00
C522   C     0.64410   0.69403   0.79820   0.00000  Uiso   1.00
C523   C     0.74226   0.71493   0.77926   0.00000  Uiso   1.00
C524   C     0.53844   0.59452   0.88494   0.00000  Uiso   1.00
C525   C     0.48068   0.61308   0.93199   0.00000  Uiso   1.00
C526   C     0.50409   0.59696   0.97423   0.00000  Uiso   1.00
C527   C     0.51075   0.54625   0.79845   0.00000  Uiso   1.00
C528   C     0.42970   0.52422   0.77279   0.00000  Uiso   1.00
C529   C     0.42979   0.46745   0.74223   0.00000  Uiso   1.00
H530   H     0.73114   0.51947   0.82157   0.00000  Uiso   1.00
H531   H     0.86436   0.59992   0.78503   0.00000  Uiso   1.00
H532   H     0.70095   0.51898   0.91879   0.00000  Uiso   1.00
H533   H     0.64999   0.43013   0.75962   0.00000  Uiso   1.00
H534   H     0.97751   0.70389   0.74659   0.00000  Uiso   1.00
H535   H     0.63294   0.53320   0.02864   0.00000  Uiso   1.00
H536   H     0.52547   0.34585   0.69299   0.00000  Uiso   1.00
H537   H     0.46482   0.63323   0.83751   0.00000  Uiso   1.00
H538   H     0.58343   0.71993   0.80183   0.00000  Uiso   1.00
H539   H     0.42003   0.63898   0.93560   0.00000  Uiso   1.00
H540   H     0.36907   0.55014   0.77643   0.00000  Uiso   1.00
H541   H     0.74950   0.80129   0.76024   0.00000  Uiso   1.00
H542   H     0.40493   0.63060   0.04229   0.00000  Uiso   1.00
H543   H     0.29746   0.44325   0.70664   0.00000  Uiso   1.00
O544   O     0.94634   0.80758   0.72968   0.00000  Uiso   1.00
O545   O     0.49427   0.58363   0.09971   0.00000  Uiso   1.00
O546   O     0.35327   0.33783   0.65935   0.00000  Uiso   1.00
N547   N     0.90756   0.71491   0.75469   0.00000  Uiso   1.00
N548   N     0.58542   0.55533   0.01839   0.00000  Uiso   1.00
N549   N     0.48493   0.38017   0.70460   0.00000  Uiso   1.00
N550   N     0.78487   0.76732   0.76203   0.00000  Uiso   1.00
N551   N     0.46273   0.60775   0.02573   0.00000  Uiso   1.00
N552   N     0.36224   0.43258   0.71194   0.00000  Uiso   1.00
