data_job_06849
_audit_creation_date              2018-12-19
_audit_creation_method            'Materials Studio'
_symmetry_space_group_name_H-M    'P1'
_symmetry_Int_Tables_number       1
_symmetry_cell_setting            triclinic
loop_
_symmetry_equiv_pos_as_xyz
  x,y,z
_cell_length_a                    15.4663
_cell_length_b                    15.6175
_cell_length_c                    35.4616
_cell_angle_alpha                 100.4199
_cell_angle_beta                  83.1282
_cell_angle_gamma                 117.5186
loop_
_atom_site_label
_atom_site_type_symbol
_atom_site_fract_x
_atom_site_fract_y
_atom_site_fract_z
_atom_site_U_iso_or_equiv
_atom_site_adp_type
_atom_site_occupancy
C1     C     0.54462   0.60935   0.87554   0.00000  Uiso   1.00
C2     C     0.45466   0.51036   0.87266   0.00000  Uiso   1.00
C3     C     0.36061   0.49384   0.88545   0.00000  Uiso   1.00
C4     C     0.28833   0.39800   0.88019   0.00000  Uiso   1.00
C5     C     0.14544   0.25593   0.87840   0.00000  Uiso   1.00
C6     C     0.61829   0.59962   0.89724   0.00000  Uiso   1.00
C7     C     0.66182   0.65816   0.93068   0.00000  Uiso   1.00
C8     C     0.72729   0.63747   0.94610   0.00000  Uiso   1.00
C9     C     0.83849   0.63403   0.98245   0.00000  Uiso   1.00
C10    C     0.58756   0.62154   0.83472   0.00000  Uiso   1.00
C11    C     0.60528   0.69853   0.81560   0.00000  Uiso   1.00
C12    C     0.64490   0.69631   0.77839   0.00000  Uiso   1.00
C13    C     0.70839   0.72690   0.71766   0.00000  Uiso   1.00
C14    C     0.58350   0.46851   0.84344   0.00000  Uiso   1.00
C15    C     0.47578   0.43387   0.85523   0.00000  Uiso   1.00
C16    C     0.40363   0.33802   0.84995   0.00000  Uiso   1.00
C17    C     0.30949   0.32136   0.86273   0.00000  Uiso   1.00
C18    C     0.63941   0.52313   0.87981   0.00000  Uiso   1.00
C19    C     0.70484   0.50235   0.89518   0.00000  Uiso   1.00
C20    C     0.74845   0.56084   0.92864   0.00000  Uiso   1.00
C21    C     0.60868   0.54505   0.81728   0.00000  Uiso   1.00
C22    C     0.64829   0.54271   0.78010   0.00000  Uiso   1.00
C23    C     0.66606   0.61967   0.76093   0.00000  Uiso   1.00
H24    H     0.52818   0.66890   0.88911   0.00000  Uiso   1.00
H25    H     0.34429   0.55306   0.89895   0.00000  Uiso   1.00
H26    H     0.64547   0.71736   0.94417   0.00000  Uiso   1.00
H27    H     0.58892   0.75771   0.82910   0.00000  Uiso   1.00
H28    H     0.14975   0.39088   0.90218   0.00000  Uiso   1.00
H29    H     0.78480   0.73735   0.99752   0.00000  Uiso   1.00
H30    H     0.66558   0.82245   0.75489   0.00000  Uiso   1.00
H31    H     0.59995   0.40896   0.82987   0.00000  Uiso   1.00
H32    H     0.41999   0.27884   0.83646   0.00000  Uiso   1.00
H33    H     0.72117   0.44315   0.88168   0.00000  Uiso   1.00
H34    H     0.66463   0.48350   0.76661   0.00000  Uiso   1.00
H35    H     0.21119   0.16832   0.85146   0.00000  Uiso   1.00
H36    H     0.84625   0.51479   0.94680   0.00000  Uiso   1.00
H37    H     0.72702   0.59988   0.70417   0.00000  Uiso   1.00
O38    O     0.06080   0.19869   0.88223   0.00000  Uiso   1.00
O39    O     0.89399   0.65326   0.00731   0.00000  Uiso   1.00
O40    O     0.73756   0.76490   0.68898   0.00000  Uiso   1.00
N41    N     0.18890   0.35636   0.88933   0.00000  Uiso   1.00
N42    N     0.78263   0.68027   0.97847   0.00000  Uiso   1.00
N43    N     0.67119   0.75985   0.75163   0.00000  Uiso   1.00
N44    N     0.22196   0.23660   0.86204   0.00000  Uiso   1.00
N45    N     0.81569   0.56052   0.95118   0.00000  Uiso   1.00
N46    N     0.70425   0.64009   0.72434   0.00000  Uiso   1.00
C47    C     0.52584   0.93700   0.88378   0.00000  Uiso   1.00
C48    C     0.63073   0.95548   0.88689   0.00000  Uiso   1.00
C49    C     0.66048   0.90838   0.90827   0.00000  Uiso   1.00
C50    C     0.75974   0.93569   0.90736   0.00000  Uiso   1.00
C51    C     0.91241   0.95349   0.91547   0.00000  Uiso   1.00
C52    C     0.52522   0.03544   0.89624   0.00000  Uiso   1.00
C53    C     0.46626   0.05555   0.92548   0.00000  Uiso   1.00
C54    C     0.47670   0.15017   0.93245   0.00000  Uiso   1.00
C55    C     0.46552   0.29208   0.95506   0.00000  Uiso   1.00
C56    C     0.50611   0.91074   0.84108   0.00000  Uiso   1.00
C57    C     0.43107   0.82602   0.82394   0.00000  Uiso   1.00
C58    C     0.42540   0.81566   0.78446   0.00000  Uiso   1.00
C59    C     0.38455   0.76396   0.72142   0.00000  Uiso   1.00
C60    C     0.64919   0.06927   0.84416   0.00000  Uiso   1.00
C61    C     0.69772   0.02732   0.86536   0.00000  Uiso   1.00
C62    C     0.79696   0.05471   0.86443   0.00000  Uiso   1.00
C63    C     0.82686   0.00766   0.88580   0.00000  Uiso   1.00
C64    C     0.59222   0.10728   0.87472   0.00000  Uiso   1.00
C65    C     0.60274   0.20188   0.88164   0.00000  Uiso   1.00
C66    C     0.54382   0.22214   0.91089   0.00000  Uiso   1.00
C67    C     0.57311   0.98258   0.81955   0.00000  Uiso   1.00
C68    C     0.56755   0.97235   0.78010   0.00000  Uiso   1.00
C69    C     0.49252   0.88763   0.76290   0.00000  Uiso   1.00
H70    H     0.47368   0.88108   0.90054   0.00000  Uiso   1.00
H71    H     0.60861   0.85279   0.92492   0.00000  Uiso   1.00
H72    H     0.41442   0.99994   0.94213   0.00000  Uiso   1.00
H73    H     0.37923   0.77044   0.84060   0.00000  Uiso   1.00
H74    H     0.78776   0.85314   0.94247   0.00000  Uiso   1.00
H75    H     0.37827   0.16340   0.97875   0.00000  Uiso   1.00
H76    H     0.30407   0.67946   0.76465   0.00000  Uiso   1.00
H77    H     0.70136   0.12520   0.82740   0.00000  Uiso   1.00
H78    H     0.84879   0.11031   0.84777   0.00000  Uiso   1.00
H79    H     0.65459   0.25746   0.86498   0.00000  Uiso   1.00
H80    H     0.61941   0.02796   0.76345   0.00000  Uiso   1.00
H81    H     0.98270   0.06215   0.87985   0.00000  Uiso   1.00
H82    H     0.57320   0.37241   0.91613   0.00000  Uiso   1.00
H83    H     0.49901   0.88847   0.70204   0.00000  Uiso   1.00
O84    O     0.97811   0.94347   0.92589   0.00000  Uiso   1.00
O85    O     0.44085   0.35051   0.97348   0.00000  Uiso   1.00
O86    O     0.34352   0.71559   0.69259   0.00000  Uiso   1.00
N87    N     0.81340   0.90436   0.92493   0.00000  Uiso   1.00
N88    N     0.43056   0.19444   0.95886   0.00000  Uiso   1.00
N89    N     0.36118   0.74201   0.75869   0.00000  Uiso   1.00
N90    N     0.91830   0.01683   0.89124   0.00000  Uiso   1.00
N91    N     0.53546   0.30691   0.92516   0.00000  Uiso   1.00
N92    N     0.46608   0.85447   0.72500   0.00000  Uiso   1.00
C93    C     0.18828   0.62559   0.86900   0.00000  Uiso   1.00
C94    C     0.15231   0.69317   0.85786   0.00000  Uiso   1.00
C95    C     0.19362   0.79364   0.86817   0.00000  Uiso   1.00
C96    C     0.14991   0.84236   0.85511   0.00000  Uiso   1.00
C97    C     0.10652   0.95490   0.84126   0.00000  Uiso   1.00
C98    C     0.10154   0.54981   0.88924   0.00000  Uiso   1.00
C99    C     0.10017   0.52974   0.92593   0.00000  Uiso   1.00
C100   C     0.01372   0.45775   0.93929   0.00000  Uiso   1.00
C101   C     0.89153   0.34768   0.97415   0.00000  Uiso   1.00
C102   C     0.20745   0.57063   0.83145   0.00000  Uiso   1.00
C103   C     0.29512   0.56804   0.81954   0.00000  Uiso   1.00
C104   C     0.29784   0.51357   0.78424   0.00000  Uiso   1.00
C105   C     0.34009   0.43583   0.72936   0.00000  Uiso   1.00
C106   C     0.03720   0.53344   0.82748   0.00000  Uiso   1.00
C107   C     0.07025   0.64311   0.83531   0.00000  Uiso   1.00
C108   C     0.02647   0.69169   0.82223   0.00000  Uiso   1.00
C109   C     0.06771   0.79221   0.83252   0.00000  Uiso   1.00
C110   C     0.01948   0.49976   0.86669   0.00000  Uiso   1.00
C111   C     0.93302   0.42778   0.88000   0.00000  Uiso   1.00
C112   C     0.93152   0.40761   0.91670   0.00000  Uiso   1.00
C113   C     0.12539   0.52058   0.80889   0.00000  Uiso   1.00
C114   C     0.12797   0.46609   0.77361   0.00000  Uiso   1.00
C115   C     0.21563   0.46342   0.76165   0.00000  Uiso   1.00
H116   H     0.25216   0.66455   0.88656   0.00000  Uiso   1.00
H117   H     0.25712   0.83235   0.88562   0.00000  Uiso   1.00
H118   H     0.16368   0.56848   0.94337   0.00000  Uiso   1.00
H119   H     0.35860   0.60678   0.83700   0.00000  Uiso   1.00
H120   H     0.22640   0.99631   0.87465   0.00000  Uiso   1.00
H121   H     0.02940   0.43989   0.99642   0.00000  Uiso   1.00
H122   H     0.44044   0.52067   0.77211   0.00000  Uiso   1.00
H123   H     0.97331   0.49446   0.80993   0.00000  Uiso   1.00
H124   H     0.96297   0.65293   0.80478   0.00000  Uiso   1.00
H125   H     0.86954   0.38906   0.86254   0.00000  Uiso   1.00
H126   H     0.06446   0.42737   0.75616   0.00000  Uiso   1.00
H127   H     0.98766   0.85069   0.80904   0.00000  Uiso   1.00
H128   H     0.79066   0.29427   0.93081   0.00000  Uiso   1.00
H129   H     0.20169   0.37504   0.70650   0.00000  Uiso   1.00
O130   O     0.10524   0.03081   0.83986   0.00000  Uiso   1.00
O131   O     0.84679   0.30080   0.99961   0.00000  Uiso   1.00
O132   O     0.38606   0.40678   0.70532   0.00000  Uiso   1.00
N133   N     0.17165   0.94029   0.85991   0.00000  Uiso   1.00
N134   N     0.98746   0.42009   0.97376   0.00000  Uiso   1.00
N135   N     0.37173   0.49558   0.76405   0.00000  Uiso   1.00
N136   N     0.04318   0.86193   0.82461   0.00000  Uiso   1.00
N137   N     0.85899   0.34173   0.93845   0.00000  Uiso   1.00
N138   N     0.24327   0.41722   0.72875   0.00000  Uiso   1.00
C139   C     0.75926   0.17975   0.31541   0.00000  Uiso   1.00
C140   C     0.74108   0.08552   0.32913   0.00000  Uiso   1.00
C141   C     0.76198   0.07772   0.36498   0.00000  Uiso   1.00
C142   C     0.73987   0.98499   0.37197   0.00000  Uiso   1.00
C143   C     0.71790   0.85112   0.39752   0.00000  Uiso   1.00
C144   C     0.66094   0.16342   0.30317   0.00000  Uiso   1.00
C145   C     0.61449   0.22112   0.31718   0.00000  Uiso   1.00
C146   C     0.52493   0.19398   0.30231   0.00000  Uiso   1.00
C147   C     0.37859   0.18110   0.28753   0.00000  Uiso   1.00
C148   C     0.82336   0.18698   0.27877   0.00000  Uiso   1.00
C149   C     0.91347   0.26450   0.27227   0.00000  Uiso   1.00
C150   C     0.96064   0.25720   0.23686   0.00000  Uiso   1.00
C151   C     0.06648   0.28089   0.18420   0.00000  Uiso   1.00
C152   C     0.68281   0.02895   0.26410   0.00000  Uiso   1.00
C153   C     0.69954   0.00361   0.30126   0.00000  Uiso   1.00
C154   C     0.67740   0.91087   0.30820   0.00000  Uiso   1.00
C155   C     0.69827   0.90293   0.34405   0.00000  Uiso   1.00
C156   C     0.61942   0.08151   0.27529   0.00000  Uiso   1.00
C157   C     0.52990   0.05428   0.26040   0.00000  Uiso   1.00
C158   C     0.48332   0.11192   0.27439   0.00000  Uiso   1.00
C159   C     0.78184   0.10507   0.25090   0.00000  Uiso   1.00
C160   C     0.82888   0.09765   0.21549   0.00000  Uiso   1.00
C161   C     0.91903   0.17514   0.20893   0.00000  Uiso   1.00
H162   H     0.79159   0.24352   0.33711   0.00000  Uiso   1.00
H163   H     0.79411   0.14112   0.38654   0.00000  Uiso   1.00
H164   H     0.64665   0.28451   0.33874   0.00000  Uiso   1.00
H165   H     0.94558   0.32787   0.29384   0.00000  Uiso   1.00
H166   H     0.77857   0.99146   0.42905   0.00000  Uiso   1.00
H167   H     0.46765   0.29383   0.32826   0.00000  Uiso   1.00
H168   H     0.09800   0.38527   0.23358   0.00000  Uiso   1.00
H169   H     0.65047   0.96518   0.24239   0.00000  Uiso   1.00
H170   H     0.64526   0.84750   0.28663   0.00000  Uiso   1.00
H171   H     0.49779   0.99089   0.23883   0.00000  Uiso   1.00
H172   H     0.79672   0.03425   0.19393   0.00000  Uiso   1.00
H173   H     0.65774   0.75315   0.34796   0.00000  Uiso   1.00
H174   H     0.34683   0.05552   0.24717   0.00000  Uiso   1.00
H175   H     0.97717   0.14695   0.15248   0.00000  Uiso   1.00
O176   O     0.71724   0.79991   0.41932   0.00000  Uiso   1.00
O177   O     0.30934   0.19661   0.28708   0.00000  Uiso   1.00
O178   O     0.13634   0.31658   0.16286   0.00000  Uiso   1.00
N179   N     0.75086   0.95153   0.40389   0.00000  Uiso   1.00
N180   N     0.46017   0.23421   0.30967   0.00000  Uiso   1.00
N181   N     0.04948   0.31971   0.22114   0.00000  Uiso   1.00
N182   N     0.68585   0.82329   0.36026   0.00000  Uiso   1.00
N183   N     0.39516   0.10598   0.26603   0.00000  Uiso   1.00
N184   N     0.98447   0.19148   0.17750   0.00000  Uiso   1.00
C185   C     0.21384   0.51349   0.35812   0.00000  Uiso   1.00
C186   C     0.11133   0.50433   0.35804   0.00000  Uiso   1.00
C187   C     0.03187   0.45043   0.38085   0.00000  Uiso   1.00
C188   C     0.94431   0.45139   0.37649   0.00000  Uiso   1.00
C189   C     0.78633   0.42914   0.38037   0.00000  Uiso   1.00
C190   C     0.28180   0.62242   0.36634   0.00000  Uiso   1.00
C191   C     0.34568   0.66781   0.39613   0.00000  Uiso   1.00
C192   C     0.40163   0.76818   0.39875   0.00000  Uiso   1.00
C193   C     0.50835   0.92926   0.41549   0.00000  Uiso   1.00
C194   C     0.23866   0.48059   0.31690   0.00000  Uiso   1.00
C195   C     0.26629   0.40674   0.30511   0.00000  Uiso   1.00
C196   C     0.28595   0.38771   0.26611   0.00000  Uiso   1.00
C197   C     0.32569   0.32858   0.20608   0.00000  Uiso   1.00
C198   C     0.19964   0.61105   0.30982   0.00000  Uiso   1.00
C199   C     0.10362   0.55732   0.33180   0.00000  Uiso   1.00
C200   C     0.01616   0.55836   0.32740   0.00000  Uiso   1.00
C201   C     0.93658   0.50447   0.35021   0.00000  Uiso   1.00
C202   C     0.27409   0.67541   0.34010   0.00000  Uiso   1.00
C203   C     0.32997   0.77574   0.34268   0.00000  Uiso   1.00
C204   C     0.39391   0.82126   0.37246   0.00000  Uiso   1.00
C205   C     0.23094   0.53358   0.29065   0.00000  Uiso   1.00
C206   C     0.25057   0.51467   0.25166   0.00000  Uiso   1.00
C207   C     0.27822   0.44080   0.23982   0.00000  Uiso   1.00
H208   H     0.21985   0.47225   0.37855   0.00000  Uiso   1.00
H209   H     0.03787   0.40944   0.40116   0.00000  Uiso   1.00
H210   H     0.35164   0.62678   0.41642   0.00000  Uiso   1.00
H211   H     0.27225   0.36575   0.32543   0.00000  Uiso   1.00
H212   H     0.83272   0.36320   0.41466   0.00000  Uiso   1.00
H213   H     0.49434   0.82148   0.44684   0.00000  Uiso   1.00
H214   H     0.32695   0.27104   0.25495   0.00000  Uiso   1.00
H215   H     0.19364   0.65231   0.28939   0.00000  Uiso   1.00
H216   H     0.01021   0.59937   0.30710   0.00000  Uiso   1.00
H217   H     0.32398   0.81672   0.32237   0.00000  Uiso   1.00
H218   H     0.24460   0.55569   0.23137   0.00000  Uiso   1.00
H219   H     0.81028   0.51736   0.33831   0.00000  Uiso   1.00
H220   H     0.47190   0.97564   0.37050   0.00000  Uiso   1.00
H221   H     0.30450   0.42520   0.17861   0.00000  Uiso   1.00
O222   O     0.70132   0.40224   0.38975   0.00000  Uiso   1.00
O223   O     0.56934   0.00347   0.43197   0.00000  Uiso   1.00
O224   O     0.34973   0.28131   0.18022   0.00000  Uiso   1.00
N225   N     0.85261   0.40673   0.39425   0.00000  Uiso   1.00
N226   N     0.47117   0.83519   0.42435   0.00000  Uiso   1.00
N227   N     0.31470   0.32060   0.24495   0.00000  Uiso   1.00
N228   N     0.84053   0.48968   0.35317   0.00000  Uiso   1.00
N229   N     0.45909   0.91815   0.38327   0.00000  Uiso   1.00
N230   N     0.30262   0.40355   0.20387   0.00000  Uiso   1.00
C231   C     0.04805   0.03987   0.37761   0.00000  Uiso   1.00
C232   C     0.14974   0.11511   0.39024   0.00000  Uiso   1.00
C233   C     0.17218   0.20325   0.41382   0.00000  Uiso   1.00
C234   C     0.26960   0.26192   0.42203   0.00000  Uiso   1.00
C235   C     0.41649   0.38308   0.44392   0.00000  Uiso   1.00
C236   C     0.03125   0.94461   0.38999   0.00000  Uiso   1.00
C237   C     0.95405   0.88937   0.41336   0.00000  Uiso   1.00
C238   C     0.95173   0.80451   0.42135   0.00000  Uiso   1.00
C239   C     0.91462   0.66091   0.44282   0.00000  Uiso   1.00
C240   C     0.05439   0.02389   0.33386   0.00000  Uiso   1.00
C241   C     0.99664   0.03530   0.31003   0.00000  Uiso   1.00
C242   C     0.01379   0.01717   0.27076   0.00000  Uiso   1.00
C243   C     0.01261   0.99668   0.20508   0.00000  Uiso   1.00
C244   C     0.18117   0.98735   0.35026   0.00000  Uiso   1.00
C245   C     0.22204   0.08659   0.37539   0.00000  Uiso   1.00
C246   C     0.31947   0.14515   0.38356   0.00000  Uiso   1.00
C247   C     0.34204   0.23335   0.40715   0.00000  Uiso   1.00
C248   C     0.10355   0.91608   0.37513   0.00000  Uiso   1.00
C249   C     0.10134   0.83127   0.38309   0.00000  Uiso   1.00
C250   C     0.02417   0.77593   0.40647   0.00000  Uiso   1.00
C251   C     0.12670   0.99537   0.31900   0.00000  Uiso   1.00
C252   C     0.14393   0.97721   0.27976   0.00000  Uiso   1.00
C253   C     0.08622   0.98859   0.25588   0.00000  Uiso   1.00
H254   H     0.99175   0.06207   0.38918   0.00000  Uiso   1.00
H255   H     0.11619   0.22529   0.42532   0.00000  Uiso   1.00
H256   H     0.89810   0.91146   0.42485   0.00000  Uiso   1.00
H257   H     0.94069   0.05738   0.32153   0.00000  Uiso   1.00
H258   H     0.28605   0.39366   0.45884   0.00000  Uiso   1.00
H259   H     0.82617   0.73191   0.45784   0.00000  Uiso   1.00
H260   H     0.91596   0.03960   0.23998   0.00000  Uiso   1.00
H261   H     0.23747   0.96514   0.33869   0.00000  Uiso   1.00
H262   H     0.37541   0.12305   0.37206   0.00000  Uiso   1.00
H263   H     0.15731   0.80922   0.37159   0.00000  Uiso   1.00
H264   H     0.19989   0.95514   0.26828   0.00000  Uiso   1.00
H265   H     0.49643   0.31067   0.41562   0.00000  Uiso   1.00
H266   H     0.03655   0.64893   0.41461   0.00000  Uiso   1.00
H267   H     0.12635   0.95661   0.19676   0.00000  Uiso   1.00
O268   O     0.47754   0.45778   0.46010   0.00000  Uiso   1.00
O269   O     0.87418   0.58959   0.45878   0.00000  Uiso   1.00
O270   O     0.99200   0.99327   0.17296   0.00000  Uiso   1.00
N271   N     0.31664   0.35246   0.44409   0.00000  Uiso   1.00
N272   N     0.88668   0.73378   0.44315   0.00000  Uiso   1.00
N273   N     0.97062   0.02142   0.23947   0.00000  Uiso   1.00
N274   N     0.42984   0.30781   0.42083   0.00000  Uiso   1.00
N275   N     0.99989   0.68913   0.41989   0.00000  Uiso   1.00
N276   N     0.08382   0.97676   0.21622   0.00000  Uiso   1.00
C277   C     0.58395   0.57993   0.10488   0.00000  Uiso   1.00
C278   C     0.66997   0.67863   0.09985   0.00000  Uiso   1.00
C279   C     0.75454   0.69334   0.07763   0.00000  Uiso   1.00
C280   C     0.82466   0.78923   0.07676   0.00000  Uiso   1.00
C281   C     0.96034   0.93058   0.06580   0.00000  Uiso   1.00
C282   C     0.49449   0.58371   0.09286   0.00000  Uiso   1.00
C283   C     0.43151   0.51860   0.06476   0.00000  Uiso   1.00
C284   C     0.35390   0.53459   0.05800   0.00000  Uiso   1.00
C285   C     0.21711   0.52852   0.03620   0.00000  Uiso   1.00
C286   C     0.56965   0.57623   0.14796   0.00000  Uiso   1.00
C287   C     0.56985   0.50482   0.16619   0.00000  Uiso   1.00
C288   C     0.55550   0.51449   0.20583   0.00000  Uiso   1.00
C289   C     0.53541   0.49682   0.26959   0.00000  Uiso   1.00
C290   C     0.55808   0.72406   0.14286   0.00000  Uiso   1.00
C291   C     0.65591   0.75691   0.12048   0.00000  Uiso   1.00
C292   C     0.72592   0.85281   0.11965   0.00000  Uiso   1.00
C293   C     0.81059   0.86766   0.09743   0.00000  Uiso   1.00
C294   C     0.48044   0.66199   0.11349   0.00000  Uiso   1.00
C295   C     0.40289   0.67807   0.10678   0.00000  Uiso   1.00
C296   C     0.33982   0.61301   0.07867   0.00000  Uiso   1.00
C297   C     0.55560   0.65452   0.16859   0.00000  Uiso   1.00
C298   C     0.54124   0.66429   0.20821   0.00000  Uiso   1.00
C299   C     0.54142   0.59292   0.22650   0.00000  Uiso   1.00
H300   H     0.59488   0.51898   0.08882   0.00000  Uiso   1.00
H301   H     0.76538   0.63274   0.06166   0.00000  Uiso   1.00
H302   H     0.44240   0.45802   0.04880   0.00000  Uiso   1.00
H303   H     0.58073   0.44425   0.15022   0.00000  Uiso   1.00
H304   H     0.94821   0.79338   0.04065   0.00000  Uiso   1.00
H305   H     0.26716   0.42497   0.01352   0.00000  Uiso   1.00
H306   H     0.55884   0.39592   0.22739   0.00000  Uiso   1.00
H307   H     0.54714   0.78501   0.15892   0.00000  Uiso   1.00
H308   H     0.71503   0.91337   0.13562   0.00000  Uiso   1.00
H309   H     0.39204   0.73866   0.12275   0.00000  Uiso   1.00
H310   H     0.53037   0.72488   0.22417   0.00000  Uiso   1.00
H311   H     0.90733   0.02116   0.10067   0.00000  Uiso   1.00
H312   H     0.22628   0.65274   0.07355   0.00000  Uiso   1.00
H313   H     0.51797   0.62370   0.28741   0.00000  Uiso   1.00
O314   O     0.03906   0.98691   0.05405   0.00000  Uiso   1.00
O315   O     0.14554   0.50356   0.01847   0.00000  Uiso   1.00
O316   O     0.52823   0.46545   0.29905   0.00000  Uiso   1.00
N317   N     0.91556   0.82938   0.05798   0.00000  Uiso   1.00
N318   N     0.27882   0.48494   0.03261   0.00000  Uiso   1.00
N319   N     0.55150   0.45777   0.23256   0.00000  Uiso   1.00
N320   N     0.89356   0.95194   0.09027   0.00000  Uiso   1.00
N321   N     0.25683   0.60750   0.06491   0.00000  Uiso   1.00
N322   N     0.52950   0.58033   0.26485   0.00000  Uiso   1.00
C323   C     0.63735   0.24731   0.08343   0.00000  Uiso   1.00
C324   C     0.53276   0.22939   0.08006   0.00000  Uiso   1.00
C325   C     0.50295   0.27169   0.05642   0.00000  Uiso   1.00
C326   C     0.40399   0.24583   0.05748   0.00000  Uiso   1.00
C327   C     0.25171   0.22797   0.04860   0.00000  Uiso   1.00
C328   C     0.63568   0.14732   0.07453   0.00000  Uiso   1.00
C329   C     0.69242   0.12062   0.04625   0.00000  Uiso   1.00
C330   C     0.68012   0.02567   0.04266   0.00000  Uiso   1.00
C331   C     0.68768   0.88042   0.02523   0.00000  Uiso   1.00
C332   C     0.65951   0.28220   0.12579   0.00000  Uiso   1.00
C333   C     0.73630   0.36891   0.14060   0.00000  Uiso   1.00
C334   C     0.74407   0.38752   0.18017   0.00000  Uiso   1.00
C335   C     0.78863   0.45170   0.24231   0.00000  Uiso   1.00
C336   C     0.51462   0.12617   0.12735   0.00000  Uiso   1.00
C337   C     0.46609   0.16359   0.10391   0.00000  Uiso   1.00
C338   C     0.36715   0.13767   0.10501   0.00000  Uiso   1.00
C339   C     0.33720   0.17992   0.08137   0.00000  Uiso   1.00
C340   C     0.56902   0.08152   0.09839   0.00000  Uiso   1.00
C341   C     0.55663   0.98660   0.09484   0.00000  Uiso   1.00
C342   C     0.61333   0.95976   0.06656   0.00000  Uiso   1.00
C343   C     0.59284   0.21641   0.14964   0.00000  Uiso   1.00
C344   C     0.60050   0.23489   0.18919   0.00000  Uiso   1.00
C345   C     0.67728   0.32161   0.20406   0.00000  Uiso   1.00
H346   H     0.68926   0.29853   0.06486   0.00000  Uiso   1.00
H347   H     0.55456   0.32260   0.03796   0.00000  Uiso   1.00
H348   H     0.74401   0.17155   0.02780   0.00000  Uiso   1.00
H349   H     0.78787   0.41981   0.12214   0.00000  Uiso   1.00
H350   H     0.37582   0.32023   0.01865   0.00000  Uiso   1.00
H351   H     0.77532   0.00176   0.99723   0.00000  Uiso   1.00
H352   H     0.86781   0.52526   0.19616   0.00000  Uiso   1.00
H353   H     0.46271   0.07495   0.14592   0.00000  Uiso   1.00
H354   H     0.31558   0.08675   0.12347   0.00000  Uiso   1.00
H355   H     0.50503   0.93570   0.11331   0.00000  Uiso   1.00
H356   H     0.54889   0.18396   0.20764   0.00000  Uiso   1.00
H357   H     0.18185   0.12880   0.08805   0.00000  Uiso   1.00
H358   H     0.58135   0.81033   0.06663   0.00000  Uiso   1.00
H359   H     0.67384   0.33383   0.26556   0.00000  Uiso   1.00
O360   O     0.18614   0.23629   0.03711   0.00000  Uiso   1.00
O361   O     0.71027   0.81848   0.00901   0.00000  Uiso   1.00
O362   O     0.83162   0.50529   0.27000   0.00000  Uiso   1.00
N363   N     0.35037   0.27358   0.03807   0.00000  Uiso   1.00
N364   N     0.72386   0.97582   0.01804   0.00000  Uiso   1.00
N365   N     0.81035   0.46523   0.20402   0.00000  Uiso   1.00
N366   N     0.24599   0.17057   0.07541   0.00000  Uiso   1.00
N367   N     0.61949   0.87281   0.05538   0.00000  Uiso   1.00
N368   N     0.70598   0.36223   0.24136   0.00000  Uiso   1.00
C369   C     0.97559   0.63468   0.09886   0.00000  Uiso   1.00
C370   C     0.99202   0.54583   0.09931   0.00000  Uiso   1.00
C371   C     0.94170   0.45433   0.07837   0.00000  Uiso   1.00
C372   C     0.96757   0.38267   0.08273   0.00000  Uiso   1.00
C373   C     0.98192   0.24178   0.07970   0.00000  Uiso   1.00
C374   C     0.07419   0.71503   0.08764   0.00000  Uiso   1.00
C375   C     0.09295   0.76580   0.05689   0.00000  Uiso   1.00
C376   C     0.18798   0.83658   0.05145   0.00000  Uiso   1.00
C377   C     0.32989   0.95843   0.03031   0.00000  Uiso   1.00
C378   C     0.95336   0.66750   0.14046   0.00000  Uiso   1.00
C379   C     0.87055   0.67833   0.15413   0.00000  Uiso   1.00
C380   C     0.86387   0.70912   0.19315   0.00000  Uiso   1.00
C381   C     0.81818   0.75717   0.25403   0.00000  Uiso   1.00
C382   C     0.11100   0.67014   0.14386   0.00000  Uiso   1.00
C383   C     0.06557   0.56509   0.12375   0.00000  Uiso   1.00
C384   C     0.09152   0.49355   0.12815   0.00000  Uiso   1.00
C385   C     0.04125   0.40196   0.10722   0.00000  Uiso   1.00
C386   C     0.14774   0.73429   0.11208   0.00000  Uiso   1.00
C387   C     0.24276   0.80502   0.10668   0.00000  Uiso   1.00
C388   C     0.26167   0.85588   0.07593   0.00000  Uiso   1.00
C389   C     0.02691   0.68675   0.16490   0.00000  Uiso   1.00
C390   C     0.02037   0.71755   0.20391   0.00000  Uiso   1.00
C391   C     0.93756   0.72842   0.21763   0.00000  Uiso   1.00
H392   H     0.91833   0.61970   0.07983   0.00000  Uiso   1.00
H393   H     0.88479   0.43945   0.05945   0.00000  Uiso   1.00
H394   H     0.03601   0.75088   0.03799   0.00000  Uiso   1.00
H395   H     0.81365   0.66342   0.13520   0.00000  Uiso   1.00
H396   H     0.88007   0.24813   0.04763   0.00000  Uiso   1.00
H397   H     0.19892   0.90481   0.00237   0.00000  Uiso   1.00
H398   H     0.73002   0.72039   0.20738   0.00000  Uiso   1.00
H399   H     0.16827   0.68513   0.16289   0.00000  Uiso   1.00
H400   H     0.14844   0.50848   0.14707   0.00000  Uiso   1.00
H401   H     0.29966   0.81991   0.12560   0.00000  Uiso   1.00
H402   H     0.07730   0.73244   0.22282   0.00000  Uiso   1.00
H403   H     0.09406   0.30415   0.11874   0.00000  Uiso   1.00
H404   H     0.41291   0.96084   0.07348   0.00000  Uiso   1.00
H405   H     0.94401   0.77641   0.27849   0.00000  Uiso   1.00
O406   O     0.96953   0.15876   0.07127   0.00000  Uiso   1.00
O407   O     0.38785   0.02031   0.01190   0.00000  Uiso   1.00
O408   O     0.77266   0.77834   0.28086   0.00000  Uiso   1.00
N409   N     0.93314   0.28555   0.06654   0.00000  Uiso   1.00
N410   N     0.23125   0.89950   0.02423   0.00000  Uiso   1.00
N411   N     0.79288   0.72710   0.21589   0.00000  Uiso   1.00
N412   N     0.04828   0.31569   0.10481   0.00000  Uiso   1.00
N413   N     0.34639   0.92965   0.06249   0.00000  Uiso   1.00
N414   N     0.90802   0.75725   0.25415   0.00000  Uiso   1.00
C415   C     0.48625   0.19835   0.57893   0.00000  Uiso   1.00
C416   C     0.52454   0.30798   0.59112   0.00000  Uiso   1.00
C417   C     0.49232   0.36683   0.57835   0.00000  Uiso   1.00
C418   C     0.53664   0.46537   0.59293   0.00000  Uiso   1.00
C419   C     0.58489   0.62979   0.60784   0.00000  Uiso   1.00
C420   C     0.57481   0.18271   0.56314   0.00000  Uiso   1.00
C421   C     0.58485   0.13623   0.52684   0.00000  Uiso   1.00
C422   C     0.67149   0.12931   0.51786   0.00000  Uiso   1.00
C423   C     0.79775   0.09918   0.48933   0.00000  Uiso   1.00
C424   C     0.45261   0.15258   0.61582   0.00000  Uiso   1.00
C425   C     0.35991   0.08074   0.62382   0.00000  Uiso   1.00
C426   C     0.34367   0.04843   0.65919   0.00000  Uiso   1.00
C427   C     0.28020   0.97151   0.71246   0.00000  Uiso   1.00
C428   C     0.62224   0.26869   0.62752   0.00000  Uiso   1.00
C429   C     0.59840   0.34618   0.61752   0.00000  Uiso   1.00
C430   C     0.64278   0.44465   0.63212   0.00000  Uiso   1.00
C431   C     0.61063   0.50365   0.61937   0.00000  Uiso   1.00
C432   C     0.64867   0.22091   0.58953   0.00000  Uiso   1.00
C433   C     0.73531   0.21405   0.58060   0.00000  Uiso   1.00
C434   C     0.74549   0.16758   0.54430   0.00000  Uiso   1.00
C435   C     0.52647   0.19078   0.64222   0.00000  Uiso   1.00
C436   C     0.51037   0.15857   0.67758   0.00000  Uiso   1.00
C437   C     0.41767   0.08670   0.68564   0.00000  Uiso   1.00
H438   H     0.42875   0.16861   0.55838   0.00000  Uiso   1.00
H439   H     0.43516   0.33724   0.55792   0.00000  Uiso   1.00
H440   H     0.52767   0.10667   0.50642   0.00000  Uiso   1.00
H441   H     0.30277   0.05119   0.60339   0.00000  Uiso   1.00
H442   H     0.47487   0.54106   0.56905   0.00000  Uiso   1.00
H443   H     0.66993   0.05485   0.46046   0.00000  Uiso   1.00
H444   H     0.19567   0.93786   0.66493   0.00000  Uiso   1.00
H445   H     0.67975   0.29843   0.64807   0.00000  Uiso   1.00
H446   H     0.69994   0.47420   0.65254   0.00000  Uiso   1.00
H447   H     0.79245   0.24362   0.60104   0.00000  Uiso   1.00
H448   H     0.56755   0.18815   0.69800   0.00000  Uiso   1.00
H449   H     0.68978   0.65222   0.64585   0.00000  Uiso   1.00
H450   H     0.88483   0.16600   0.53726   0.00000  Uiso   1.00
H451   H     0.41058   0.04902   0.74172   0.00000  Uiso   1.00
O452   O     0.59110   0.70992   0.60876   0.00000  Uiso   1.00
O453   O     0.84699   0.07202   0.46630   0.00000  Uiso   1.00
O454   O     0.22478   0.91854   0.73455   0.00000  Uiso   1.00
N455   N     0.52267   0.54309   0.58652   0.00000  Uiso   1.00
N456   N     0.70504   0.08853   0.48499   0.00000  Uiso   1.00
N457   N     0.26165   0.97914   0.67615   0.00000  Uiso   1.00
N458   N     0.63831   0.60291   0.62784   0.00000  Uiso   1.00
N459   N     0.82068   0.14835   0.52631   0.00000  Uiso   1.00
N460   N     0.37729   0.03895   0.71747   0.00000  Uiso   1.00
C461   C     0.13543   0.76229   0.57848   0.00000  Uiso   1.00
C462   C     0.24178   0.78335   0.57954   0.00000  Uiso   1.00
C463   C     0.32155   0.85920   0.56460   0.00000  Uiso   1.00
C464   C     0.41289   0.86602   0.56846   0.00000  Uiso   1.00
C465   C     0.57633   0.90882   0.56733   0.00000  Uiso   1.00
C466   C     0.08205   0.65752   0.55872   0.00000  Uiso   1.00
C467   C     0.02751   0.62757   0.52629   0.00000  Uiso   1.00
C468   C     0.98438   0.52846   0.51262   0.00000  Uiso   1.00
C469   C     0.89977   0.37590   0.47919   0.00000  Uiso   1.00
C470   C     0.09642   0.76187   0.62006   0.00000  Uiso   1.00
C471   C     0.05394   0.81965   0.63919   0.00000  Uiso   1.00
C472   C     0.02288   0.80837   0.67717   0.00000  Uiso   1.00
C473   C     0.96060   0.81784   0.73897   0.00000  Uiso   1.00
C474   C     0.15579   0.63952   0.61188   0.00000  Uiso   1.00
C475   C     0.25283   0.71666   0.59768   0.00000  Uiso   1.00
C476   C     0.34407   0.72336   0.60156   0.00000  Uiso   1.00
C477   C     0.42397   0.79921   0.58664   0.00000  Uiso   1.00
C478   C     0.09310   0.59083   0.57686   0.00000  Uiso   1.00
C479   C     0.05003   0.49173   0.56324   0.00000  Uiso   1.00
C480   C     0.99545   0.46165   0.53080   0.00000  Uiso   1.00
C481   C     0.10748   0.69519   0.63820   0.00000  Uiso   1.00
C482   C     0.07647   0.68381   0.67615   0.00000  Uiso   1.00
C483   C     0.03396   0.74156   0.69534   0.00000  Uiso   1.00
H484   H     0.12682   0.81421   0.56435   0.00000  Uiso   1.00
H485   H     0.31296   0.91079   0.55056   0.00000  Uiso   1.00
H486   H     0.01896   0.67920   0.51225   0.00000  Uiso   1.00
H487   H     0.04539   0.87124   0.62514   0.00000  Uiso   1.00
H488   H     0.52421   0.98844   0.54327   0.00000  Uiso   1.00
H489   H     0.90426   0.50011   0.46250   0.00000  Uiso   1.00
H490   H     0.96000   0.90508   0.70055   0.00000  Uiso   1.00
H491   H     0.16440   0.58759   0.62600   0.00000  Uiso   1.00
H492   H     0.35261   0.67174   0.61560   0.00000  Uiso   1.00
H493   H     0.05860   0.44015   0.57729   0.00000  Uiso   1.00
H494   H     0.08504   0.63220   0.69018   0.00000  Uiso   1.00
H495   H     0.55639   0.79442   0.59605   0.00000  Uiso   1.00
H496   H     0.93643   0.30608   0.51528   0.00000  Uiso   1.00
H497   H     0.99218   0.71106   0.75333   0.00000  Uiso   1.00
O498   O     0.66342   0.95085   0.56169   0.00000  Uiso   1.00
O499   O     0.85006   0.31018   0.45573   0.00000  Uiso   1.00
O500   O     0.92320   0.84150   0.76805   0.00000  Uiso   1.00
N501   N     0.50595   0.93124   0.55712   0.00000  Uiso   1.00
N502   N     0.92635   0.47468   0.48161   0.00000  Uiso   1.00
N503   N     0.97844   0.85327   0.70416   0.00000  Uiso   1.00
N504   N     0.52327   0.82684   0.58553   0.00000  Uiso   1.00
N505   N     0.94367   0.37028   0.51001   0.00000  Uiso   1.00
N506   N     0.99575   0.74887   0.73256   0.00000  Uiso   1.00
C507   C     0.03425   0.19649   0.64347   0.00000  Uiso   1.00
C508   C     0.96525   0.09780   0.62244   0.00000  Uiso   1.00
C509   C     0.97375   0.06409   0.58387   0.00000  Uiso   1.00
C510   C     0.90318   0.97177   0.57007   0.00000  Uiso   1.00
C511   C     0.80761   0.82715   0.53377   0.00000  Uiso   1.00
C512   C     0.97088   0.24584   0.66120   0.00000  Uiso   1.00
C513   C     0.98412   0.33660   0.65522   0.00000  Uiso   1.00
C514   C     0.91829   0.36891   0.67406   0.00000  Uiso   1.00
C515   C     0.83151   0.45415   0.69795   0.00000  Uiso   1.00
C516   C     0.07038   0.17457   0.67699   0.00000  Uiso   1.00
C517   C     0.16728   0.20543   0.68430   0.00000  Uiso   1.00
C518   C     0.18522   0.17776   0.71644   0.00000  Uiso   1.00
C519   C     0.25292   0.15234   0.76486   0.00000  Uiso   1.00
C520   C     0.89380   0.09250   0.68757   0.00000  Uiso   1.00
C521   C     0.88896   0.04132   0.64639   0.00000  Uiso   1.00
C522   C     0.81836   0.94903   0.63265   0.00000  Uiso   1.00
C523   C     0.82676   0.91519   0.59407   0.00000  Uiso   1.00
C524   C     0.89459   0.18936   0.68515   0.00000  Uiso   1.00
C525   C     0.82873   0.22155   0.70401   0.00000  Uiso   1.00
C526   C     0.84187   0.31233   0.69806   0.00000  Uiso   1.00
C527   C     0.99409   0.11809   0.70094   0.00000  Uiso   1.00
C528   C     0.01188   0.09037   0.73308   0.00000  Uiso   1.00
C529   C     0.10880   0.12117   0.74044   0.00000  Uiso   1.00
H530   H     0.09365   0.24047   0.62482   0.00000  Uiso   1.00
H531   H     0.03280   0.10783   0.56534   0.00000  Uiso   1.00
H532   H     0.04317   0.38030   0.63668   0.00000  Uiso   1.00
H533   H     0.22630   0.24914   0.66576   0.00000  Uiso   1.00
H534   H     0.93167   0.93587   0.50995   0.00000  Uiso   1.00
H535   H     0.95357   0.51041   0.66039   0.00000  Uiso   1.00
H536   H     0.33973   0.23384   0.72170   0.00000  Uiso   1.00
H537   H     0.83441   0.04852   0.70622   0.00000  Uiso   1.00
H538   H     0.75933   0.90534   0.65120   0.00000  Uiso   1.00
H539   H     0.76971   0.17782   0.72254   0.00000  Uiso   1.00
H540   H     0.95283   0.04666   0.75161   0.00000  Uiso   1.00
H541   H     0.70972   0.77152   0.57963   0.00000  Uiso   1.00
H542   H     0.73161   0.34607   0.73008   0.00000  Uiso   1.00
H543   H     0.11777   0.06950   0.79139   0.00000  Uiso   1.00
O544   O     0.77597   0.76298   0.50713   0.00000  Uiso   1.00
O545   O     0.80471   0.51677   0.70451   0.00000  Uiso   1.00
O546   O     0.31134   0.15391   0.78494   0.00000  Uiso   1.00
N547   N     0.88975   0.91683   0.53390   0.00000  Uiso   1.00
N548   N     0.91021   0.45399   0.67455   0.00000  Uiso   1.00
N549   N     0.27124   0.19544   0.73188   0.00000  Uiso   1.00
N550   N     0.77032   0.82840   0.57140   0.00000  Uiso   1.00
N551   N     0.79078   0.36556   0.71205   0.00000  Uiso   1.00
N552   N     0.15181   0.10701   0.76937   0.00000  Uiso   1.00
