data_job_02723
_audit_creation_date              2018-12-19
_audit_creation_method            'Materials Studio'
_symmetry_space_group_name_H-M    'P1'
_symmetry_Int_Tables_number       1
_symmetry_cell_setting            triclinic
loop_
_symmetry_equiv_pos_as_xyz
  x,y,z
_cell_length_a                    36.4587
_cell_length_b                    11.7461
_cell_length_c                    12.7545
_cell_angle_alpha                 90.0000
_cell_angle_beta                  90.0000
_cell_angle_gamma                 90.0000
loop_
_atom_site_label
_atom_site_type_symbol
_atom_site_fract_x
_atom_site_fract_y
_atom_site_fract_z
_atom_site_U_iso_or_equiv
_atom_site_adp_type
_atom_site_occupancy
C1     C     0.13151   0.44803   0.43062   0.00000  Uiso   1.00
C2     C     0.11924   0.46661   0.54363   0.00000  Uiso   1.00
C3     C     0.13404   0.54514   0.61305   0.00000  Uiso   1.00
C4     C     0.11900   0.54898   0.71299   0.00000  Uiso   1.00
C5     C     0.10434   0.58877   0.88401   0.00000  Uiso   1.00
C6     C     0.14158   0.32236   0.42215   0.00000  Uiso   1.00
C7     C     0.17517   0.27960   0.38941   0.00000  Uiso   1.00
C8     C     0.17893   0.16200   0.38708   0.00000  Uiso   1.00
C9     C     0.19895   0.97783   0.36942   0.00000  Uiso   1.00
C10    C     0.09738   0.46409   0.36314   0.00000  Uiso   1.00
C11    C     0.09380   0.54048   0.28076   0.00000  Uiso   1.00
C12    C     0.06035   0.54219   0.22872   0.00000  Uiso   1.00
C13    C     0.01174   0.57809   0.11944   0.00000  Uiso   1.00
C14    C     0.07848   0.31521   0.48468   0.00000  Uiso   1.00
C15    C     0.09043   0.39447   0.57299   0.00000  Uiso   1.00
C16    C     0.07536   0.39819   0.67285   0.00000  Uiso   1.00
C17    C     0.09014   0.47671   0.74241   0.00000  Uiso   1.00
C18    C     0.11278   0.25022   0.45151   0.00000  Uiso   1.00
C19    C     0.11649   0.13265   0.44922   0.00000  Uiso   1.00
C20    C     0.15008   0.08973   0.41649   0.00000  Uiso   1.00
C21    C     0.06857   0.39195   0.39250   0.00000  Uiso   1.00
C22    C     0.03513   0.39354   0.34057   0.00000  Uiso   1.00
C23    C     0.03150   0.46992   0.25813   0.00000  Uiso   1.00
H24    H     0.15394   0.50419   0.40777   0.00000  Uiso   1.00
H25    H     0.15634   0.60094   0.59030   0.00000  Uiso   1.00
H26    H     0.19745   0.33544   0.36669   0.00000  Uiso   1.00
H27    H     0.11610   0.59629   0.25806   0.00000  Uiso   1.00
H28    H     0.14630   0.67637   0.80563   0.00000  Uiso   1.00
H29    H     0.23299   0.11655   0.33410   0.00000  Uiso   1.00
H30    H     0.06144   0.66660   0.10503   0.00000  Uiso   1.00
H31    H     0.05605   0.25904   0.50753   0.00000  Uiso   1.00
H32    H     0.05307   0.34236   0.69555   0.00000  Uiso   1.00
H33    H     0.09419   0.07685   0.47194   0.00000  Uiso   1.00
H34    H     0.01284   0.33770   0.36331   0.00000  Uiso   1.00
H35    H     0.06249   0.46649   0.89106   0.00000  Uiso   1.00
H36    H     0.14918   0.90667   0.41952   0.00000  Uiso   1.00
H37    H     0.97763   0.45672   0.19046   0.00000  Uiso   1.00
O38    O     0.10421   0.63063   0.97024   0.00000  Uiso   1.00
O39    O     0.21795   0.89617   0.35159   0.00000  Uiso   1.00
O40    O     0.99288   0.61782   0.05106   0.00000  Uiso   1.00
N41    N     0.12698   0.61556   0.79993   0.00000  Uiso   1.00
N42    N     0.20803   0.09216   0.35909   0.00000  Uiso   1.00
N43    N     0.04765   0.60639   0.14491   0.00000  Uiso   1.00
N44    N     0.08188   0.50263   0.84590   0.00000  Uiso   1.00
N45    N     0.16293   0.97923   0.40506   0.00000  Uiso   1.00
N46    N     0.00255   0.49345   0.19088   0.00000  Uiso   1.00
C47    C     0.36849   0.55197   0.43062   0.00000  Uiso   1.00
C48    C     0.38076   0.53339   0.54363   0.00000  Uiso   1.00
C49    C     0.36596   0.45486   0.61305   0.00000  Uiso   1.00
C50    C     0.38100   0.45102   0.71299   0.00000  Uiso   1.00
C51    C     0.39566   0.41123   0.88401   0.00000  Uiso   1.00
C52    C     0.35842   0.67764   0.42215   0.00000  Uiso   1.00
C53    C     0.32483   0.72040   0.38941   0.00000  Uiso   1.00
C54    C     0.32107   0.83800   0.38708   0.00000  Uiso   1.00
C55    C     0.30105   0.02217   0.36942   0.00000  Uiso   1.00
C56    C     0.40262   0.53591   0.36314   0.00000  Uiso   1.00
C57    C     0.40620   0.45952   0.28076   0.00000  Uiso   1.00
C58    C     0.43965   0.45781   0.22872   0.00000  Uiso   1.00
C59    C     0.48826   0.42191   0.11944   0.00000  Uiso   1.00
C60    C     0.42152   0.68479   0.48468   0.00000  Uiso   1.00
C61    C     0.40957   0.60553   0.57299   0.00000  Uiso   1.00
C62    C     0.42464   0.60181   0.67285   0.00000  Uiso   1.00
C63    C     0.40986   0.52329   0.74241   0.00000  Uiso   1.00
C64    C     0.38722   0.74978   0.45151   0.00000  Uiso   1.00
C65    C     0.38351   0.86735   0.44922   0.00000  Uiso   1.00
C66    C     0.34992   0.91027   0.41649   0.00000  Uiso   1.00
C67    C     0.43143   0.60805   0.39250   0.00000  Uiso   1.00
C68    C     0.46487   0.60646   0.34057   0.00000  Uiso   1.00
C69    C     0.46850   0.53008   0.25813   0.00000  Uiso   1.00
H70    H     0.34606   0.49581   0.40777   0.00000  Uiso   1.00
H71    H     0.34366   0.39906   0.59030   0.00000  Uiso   1.00
H72    H     0.30255   0.66456   0.36669   0.00000  Uiso   1.00
H73    H     0.38390   0.40371   0.25806   0.00000  Uiso   1.00
H74    H     0.35370   0.32363   0.80563   0.00000  Uiso   1.00
H75    H     0.26701   0.88345   0.33410   0.00000  Uiso   1.00
H76    H     0.43856   0.33340   0.10503   0.00000  Uiso   1.00
H77    H     0.44395   0.74096   0.50753   0.00000  Uiso   1.00
H78    H     0.44693   0.65764   0.69555   0.00000  Uiso   1.00
H79    H     0.40581   0.92315   0.47194   0.00000  Uiso   1.00
H80    H     0.48716   0.66230   0.36331   0.00000  Uiso   1.00
H81    H     0.43751   0.53351   0.89106   0.00000  Uiso   1.00
H82    H     0.35082   0.09333   0.41952   0.00000  Uiso   1.00
H83    H     0.52237   0.54328   0.19046   0.00000  Uiso   1.00
O84    O     0.39579   0.36937   0.97024   0.00000  Uiso   1.00
O85    O     0.28205   0.10383   0.35159   0.00000  Uiso   1.00
O86    O     0.50712   0.38218   0.05106   0.00000  Uiso   1.00
N87    N     0.37302   0.38444   0.79993   0.00000  Uiso   1.00
N88    N     0.29197   0.90784   0.35909   0.00000  Uiso   1.00
N89    N     0.45235   0.39361   0.14491   0.00000  Uiso   1.00
N90    N     0.41812   0.49737   0.84590   0.00000  Uiso   1.00
N91    N     0.33707   0.02077   0.40506   0.00000  Uiso   1.00
N92    N     0.49745   0.50655   0.19088   0.00000  Uiso   1.00
C93    C     0.36849   0.94803   0.06938   0.00000  Uiso   1.00
C94    C     0.38076   0.96661   0.95637   0.00000  Uiso   1.00
C95    C     0.36596   0.04514   0.88695   0.00000  Uiso   1.00
C96    C     0.38100   0.04898   0.78701   0.00000  Uiso   1.00
C97    C     0.39566   0.08877   0.61599   0.00000  Uiso   1.00
C98    C     0.35842   0.82236   0.07785   0.00000  Uiso   1.00
C99    C     0.32483   0.77960   0.11059   0.00000  Uiso   1.00
C100   C     0.32107   0.66200   0.11292   0.00000  Uiso   1.00
C101   C     0.30105   0.47783   0.13058   0.00000  Uiso   1.00
C102   C     0.40262   0.96409   0.13686   0.00000  Uiso   1.00
C103   C     0.40620   0.04048   0.21924   0.00000  Uiso   1.00
C104   C     0.43965   0.04219   0.27128   0.00000  Uiso   1.00
C105   C     0.48826   0.07809   0.38056   0.00000  Uiso   1.00
C106   C     0.42152   0.81521   0.01532   0.00000  Uiso   1.00
C107   C     0.40957   0.89447   0.92701   0.00000  Uiso   1.00
C108   C     0.42464   0.89819   0.82715   0.00000  Uiso   1.00
C109   C     0.40986   0.97671   0.75759   0.00000  Uiso   1.00
C110   C     0.38722   0.75022   0.04849   0.00000  Uiso   1.00
C111   C     0.38351   0.63265   0.05078   0.00000  Uiso   1.00
C112   C     0.34992   0.58973   0.08351   0.00000  Uiso   1.00
C113   C     0.43143   0.89195   0.10750   0.00000  Uiso   1.00
C114   C     0.46487   0.89354   0.15943   0.00000  Uiso   1.00
C115   C     0.46850   0.96992   0.24187   0.00000  Uiso   1.00
H116   H     0.34606   0.00419   0.09223   0.00000  Uiso   1.00
H117   H     0.34366   0.10094   0.90970   0.00000  Uiso   1.00
H118   H     0.30255   0.83544   0.13331   0.00000  Uiso   1.00
H119   H     0.38390   0.09629   0.24194   0.00000  Uiso   1.00
H120   H     0.35370   0.17637   0.69437   0.00000  Uiso   1.00
H121   H     0.26701   0.61655   0.16590   0.00000  Uiso   1.00
H122   H     0.43856   0.16660   0.39497   0.00000  Uiso   1.00
H123   H     0.44395   0.75904   0.99247   0.00000  Uiso   1.00
H124   H     0.44693   0.84236   0.80445   0.00000  Uiso   1.00
H125   H     0.40581   0.57685   0.02806   0.00000  Uiso   1.00
H126   H     0.48716   0.83770   0.13669   0.00000  Uiso   1.00
H127   H     0.43751   0.96649   0.60894   0.00000  Uiso   1.00
H128   H     0.35082   0.40667   0.08048   0.00000  Uiso   1.00
H129   H     0.52237   0.95672   0.30954   0.00000  Uiso   1.00
O130   O     0.39579   0.13063   0.52976   0.00000  Uiso   1.00
O131   O     0.28205   0.39617   0.14841   0.00000  Uiso   1.00
O132   O     0.50712   0.11782   0.44894   0.00000  Uiso   1.00
N133   N     0.37302   0.11556   0.70007   0.00000  Uiso   1.00
N134   N     0.29197   0.59216   0.14091   0.00000  Uiso   1.00
N135   N     0.45235   0.10639   0.35509   0.00000  Uiso   1.00
N136   N     0.41812   0.00263   0.65410   0.00000  Uiso   1.00
N137   N     0.33707   0.47923   0.09494   0.00000  Uiso   1.00
N138   N     0.49745   0.99345   0.30912   0.00000  Uiso   1.00
C139   C     0.13151   0.05197   0.06938   0.00000  Uiso   1.00
C140   C     0.11924   0.03339   0.95637   0.00000  Uiso   1.00
C141   C     0.13404   0.95486   0.88695   0.00000  Uiso   1.00
C142   C     0.11900   0.95102   0.78701   0.00000  Uiso   1.00
C143   C     0.10434   0.91123   0.61599   0.00000  Uiso   1.00
C144   C     0.14158   0.17764   0.07785   0.00000  Uiso   1.00
C145   C     0.17517   0.22040   0.11059   0.00000  Uiso   1.00
C146   C     0.17893   0.33800   0.11292   0.00000  Uiso   1.00
C147   C     0.19895   0.52217   0.13058   0.00000  Uiso   1.00
C148   C     0.09738   0.03591   0.13686   0.00000  Uiso   1.00
C149   C     0.09380   0.95952   0.21924   0.00000  Uiso   1.00
C150   C     0.06035   0.95781   0.27128   0.00000  Uiso   1.00
C151   C     0.01174   0.92191   0.38056   0.00000  Uiso   1.00
C152   C     0.07848   0.18479   0.01532   0.00000  Uiso   1.00
C153   C     0.09043   0.10553   0.92701   0.00000  Uiso   1.00
C154   C     0.07536   0.10181   0.82715   0.00000  Uiso   1.00
C155   C     0.09014   0.02329   0.75759   0.00000  Uiso   1.00
C156   C     0.11278   0.24978   0.04849   0.00000  Uiso   1.00
C157   C     0.11649   0.36735   0.05078   0.00000  Uiso   1.00
C158   C     0.15008   0.41027   0.08351   0.00000  Uiso   1.00
C159   C     0.06857   0.10805   0.10750   0.00000  Uiso   1.00
C160   C     0.03513   0.10646   0.15943   0.00000  Uiso   1.00
C161   C     0.03150   0.03008   0.24187   0.00000  Uiso   1.00
H162   H     0.15394   0.99581   0.09223   0.00000  Uiso   1.00
H163   H     0.15634   0.89906   0.90970   0.00000  Uiso   1.00
H164   H     0.19745   0.16456   0.13331   0.00000  Uiso   1.00
H165   H     0.11610   0.90371   0.24194   0.00000  Uiso   1.00
H166   H     0.14630   0.82363   0.69437   0.00000  Uiso   1.00
H167   H     0.23299   0.38345   0.16590   0.00000  Uiso   1.00
H168   H     0.06144   0.83340   0.39497   0.00000  Uiso   1.00
H169   H     0.05605   0.24096   0.99247   0.00000  Uiso   1.00
H170   H     0.05307   0.15764   0.80445   0.00000  Uiso   1.00
H171   H     0.09419   0.42315   0.02806   0.00000  Uiso   1.00
H172   H     0.01284   0.16230   0.13669   0.00000  Uiso   1.00
H173   H     0.06249   0.03351   0.60894   0.00000  Uiso   1.00
H174   H     0.14918   0.59333   0.08048   0.00000  Uiso   1.00
H175   H     0.97763   0.04328   0.30954   0.00000  Uiso   1.00
O176   O     0.10421   0.86937   0.52976   0.00000  Uiso   1.00
O177   O     0.21795   0.60383   0.14841   0.00000  Uiso   1.00
O178   O     0.99288   0.88218   0.44894   0.00000  Uiso   1.00
N179   N     0.12698   0.88444   0.70007   0.00000  Uiso   1.00
N180   N     0.20803   0.40784   0.14091   0.00000  Uiso   1.00
N181   N     0.04765   0.89361   0.35509   0.00000  Uiso   1.00
N182   N     0.08188   0.99737   0.65410   0.00000  Uiso   1.00
N183   N     0.16293   0.52077   0.09494   0.00000  Uiso   1.00
N184   N     0.00255   0.00655   0.30912   0.00000  Uiso   1.00
C185   C     0.86849   0.55197   0.56938   0.00000  Uiso   1.00
C186   C     0.88076   0.53339   0.45637   0.00000  Uiso   1.00
C187   C     0.86596   0.45486   0.38695   0.00000  Uiso   1.00
C188   C     0.88100   0.45102   0.28701   0.00000  Uiso   1.00
C189   C     0.89566   0.41123   0.11599   0.00000  Uiso   1.00
C190   C     0.85842   0.67764   0.57785   0.00000  Uiso   1.00
C191   C     0.82483   0.72040   0.61059   0.00000  Uiso   1.00
C192   C     0.82107   0.83800   0.61292   0.00000  Uiso   1.00
C193   C     0.80105   0.02217   0.63058   0.00000  Uiso   1.00
C194   C     0.90262   0.53591   0.63686   0.00000  Uiso   1.00
C195   C     0.90620   0.45952   0.71924   0.00000  Uiso   1.00
C196   C     0.93965   0.45781   0.77128   0.00000  Uiso   1.00
C197   C     0.98826   0.42191   0.88056   0.00000  Uiso   1.00
C198   C     0.92152   0.68479   0.51532   0.00000  Uiso   1.00
C199   C     0.90957   0.60553   0.42701   0.00000  Uiso   1.00
C200   C     0.92464   0.60181   0.32715   0.00000  Uiso   1.00
C201   C     0.90986   0.52329   0.25759   0.00000  Uiso   1.00
C202   C     0.88722   0.74978   0.54849   0.00000  Uiso   1.00
C203   C     0.88351   0.86735   0.55078   0.00000  Uiso   1.00
C204   C     0.84992   0.91027   0.58351   0.00000  Uiso   1.00
C205   C     0.93143   0.60805   0.60750   0.00000  Uiso   1.00
C206   C     0.96487   0.60646   0.65943   0.00000  Uiso   1.00
C207   C     0.96850   0.53008   0.74187   0.00000  Uiso   1.00
H208   H     0.84606   0.49581   0.59223   0.00000  Uiso   1.00
H209   H     0.84366   0.39906   0.40970   0.00000  Uiso   1.00
H210   H     0.80255   0.66456   0.63331   0.00000  Uiso   1.00
H211   H     0.88390   0.40371   0.74194   0.00000  Uiso   1.00
H212   H     0.85370   0.32363   0.19437   0.00000  Uiso   1.00
H213   H     0.76701   0.88345   0.66590   0.00000  Uiso   1.00
H214   H     0.93856   0.33340   0.89497   0.00000  Uiso   1.00
H215   H     0.94395   0.74096   0.49247   0.00000  Uiso   1.00
H216   H     0.94693   0.65764   0.30445   0.00000  Uiso   1.00
H217   H     0.90581   0.92315   0.52806   0.00000  Uiso   1.00
H218   H     0.98716   0.66230   0.63669   0.00000  Uiso   1.00
H219   H     0.93751   0.53351   0.10894   0.00000  Uiso   1.00
H220   H     0.85082   0.09333   0.58048   0.00000  Uiso   1.00
H221   H     0.02237   0.54328   0.80954   0.00000  Uiso   1.00
O222   O     0.89579   0.36937   0.02976   0.00000  Uiso   1.00
O223   O     0.78205   0.10383   0.64841   0.00000  Uiso   1.00
O224   O     0.00712   0.38218   0.94894   0.00000  Uiso   1.00
N225   N     0.87302   0.38444   0.20007   0.00000  Uiso   1.00
N226   N     0.79197   0.90784   0.64091   0.00000  Uiso   1.00
N227   N     0.95235   0.39361   0.85509   0.00000  Uiso   1.00
N228   N     0.91812   0.49737   0.15410   0.00000  Uiso   1.00
N229   N     0.83707   0.02077   0.59494   0.00000  Uiso   1.00
N230   N     0.99745   0.50655   0.80912   0.00000  Uiso   1.00
C231   C     0.63151   0.44803   0.56938   0.00000  Uiso   1.00
C232   C     0.61924   0.46661   0.45637   0.00000  Uiso   1.00
C233   C     0.63404   0.54514   0.38695   0.00000  Uiso   1.00
C234   C     0.61900   0.54898   0.28701   0.00000  Uiso   1.00
C235   C     0.60434   0.58877   0.11599   0.00000  Uiso   1.00
C236   C     0.64158   0.32236   0.57785   0.00000  Uiso   1.00
C237   C     0.67517   0.27960   0.61059   0.00000  Uiso   1.00
C238   C     0.67893   0.16200   0.61292   0.00000  Uiso   1.00
C239   C     0.69895   0.97783   0.63058   0.00000  Uiso   1.00
C240   C     0.59738   0.46409   0.63686   0.00000  Uiso   1.00
C241   C     0.59380   0.54048   0.71924   0.00000  Uiso   1.00
C242   C     0.56035   0.54219   0.77128   0.00000  Uiso   1.00
C243   C     0.51174   0.57809   0.88056   0.00000  Uiso   1.00
C244   C     0.57848   0.31521   0.51532   0.00000  Uiso   1.00
C245   C     0.59043   0.39447   0.42701   0.00000  Uiso   1.00
C246   C     0.57536   0.39819   0.32715   0.00000  Uiso   1.00
C247   C     0.59014   0.47671   0.25759   0.00000  Uiso   1.00
C248   C     0.61278   0.25022   0.54849   0.00000  Uiso   1.00
C249   C     0.61649   0.13265   0.55078   0.00000  Uiso   1.00
C250   C     0.65008   0.08973   0.58351   0.00000  Uiso   1.00
C251   C     0.56857   0.39195   0.60750   0.00000  Uiso   1.00
C252   C     0.53513   0.39354   0.65943   0.00000  Uiso   1.00
C253   C     0.53150   0.46992   0.74187   0.00000  Uiso   1.00
H254   H     0.65394   0.50419   0.59223   0.00000  Uiso   1.00
H255   H     0.65634   0.60094   0.40970   0.00000  Uiso   1.00
H256   H     0.69745   0.33544   0.63331   0.00000  Uiso   1.00
H257   H     0.61610   0.59629   0.74194   0.00000  Uiso   1.00
H258   H     0.64630   0.67637   0.19437   0.00000  Uiso   1.00
H259   H     0.73299   0.11655   0.66590   0.00000  Uiso   1.00
H260   H     0.56144   0.66660   0.89497   0.00000  Uiso   1.00
H261   H     0.55605   0.25904   0.49247   0.00000  Uiso   1.00
H262   H     0.55307   0.34236   0.30445   0.00000  Uiso   1.00
H263   H     0.59419   0.07685   0.52806   0.00000  Uiso   1.00
H264   H     0.51284   0.33770   0.63669   0.00000  Uiso   1.00
H265   H     0.56249   0.46649   0.10894   0.00000  Uiso   1.00
H266   H     0.64918   0.90667   0.58048   0.00000  Uiso   1.00
H267   H     0.47763   0.45672   0.80954   0.00000  Uiso   1.00
O268   O     0.60421   0.63063   0.02976   0.00000  Uiso   1.00
O269   O     0.71795   0.89617   0.64841   0.00000  Uiso   1.00
O270   O     0.49288   0.61782   0.94894   0.00000  Uiso   1.00
N271   N     0.62698   0.61556   0.20007   0.00000  Uiso   1.00
N272   N     0.70803   0.09216   0.64091   0.00000  Uiso   1.00
N273   N     0.54765   0.60639   0.85509   0.00000  Uiso   1.00
N274   N     0.58188   0.50263   0.15410   0.00000  Uiso   1.00
N275   N     0.66293   0.97923   0.59494   0.00000  Uiso   1.00
N276   N     0.50255   0.49345   0.80912   0.00000  Uiso   1.00
C277   C     0.63151   0.05197   0.93062   0.00000  Uiso   1.00
C278   C     0.61924   0.03339   0.04363   0.00000  Uiso   1.00
C279   C     0.63404   0.95486   0.11305   0.00000  Uiso   1.00
C280   C     0.61900   0.95102   0.21299   0.00000  Uiso   1.00
C281   C     0.60434   0.91123   0.38401   0.00000  Uiso   1.00
C282   C     0.64158   0.17764   0.92215   0.00000  Uiso   1.00
C283   C     0.67517   0.22040   0.88941   0.00000  Uiso   1.00
C284   C     0.67893   0.33800   0.88708   0.00000  Uiso   1.00
C285   C     0.69895   0.52217   0.86942   0.00000  Uiso   1.00
C286   C     0.59738   0.03591   0.86314   0.00000  Uiso   1.00
C287   C     0.59380   0.95952   0.78076   0.00000  Uiso   1.00
C288   C     0.56035   0.95781   0.72872   0.00000  Uiso   1.00
C289   C     0.51174   0.92191   0.61944   0.00000  Uiso   1.00
C290   C     0.57848   0.18479   0.98468   0.00000  Uiso   1.00
C291   C     0.59043   0.10553   0.07299   0.00000  Uiso   1.00
C292   C     0.57536   0.10181   0.17285   0.00000  Uiso   1.00
C293   C     0.59014   0.02329   0.24241   0.00000  Uiso   1.00
C294   C     0.61278   0.24978   0.95151   0.00000  Uiso   1.00
C295   C     0.61649   0.36735   0.94922   0.00000  Uiso   1.00
C296   C     0.65008   0.41027   0.91649   0.00000  Uiso   1.00
C297   C     0.56857   0.10805   0.89250   0.00000  Uiso   1.00
C298   C     0.53513   0.10646   0.84057   0.00000  Uiso   1.00
C299   C     0.53150   0.03008   0.75813   0.00000  Uiso   1.00
H300   H     0.65394   0.99581   0.90777   0.00000  Uiso   1.00
H301   H     0.65634   0.89906   0.09030   0.00000  Uiso   1.00
H302   H     0.69745   0.16456   0.86669   0.00000  Uiso   1.00
H303   H     0.61610   0.90371   0.75806   0.00000  Uiso   1.00
H304   H     0.64630   0.82363   0.30563   0.00000  Uiso   1.00
H305   H     0.73299   0.38345   0.83410   0.00000  Uiso   1.00
H306   H     0.56144   0.83340   0.60503   0.00000  Uiso   1.00
H307   H     0.55605   0.24096   0.00753   0.00000  Uiso   1.00
H308   H     0.55307   0.15764   0.19555   0.00000  Uiso   1.00
H309   H     0.59419   0.42315   0.97194   0.00000  Uiso   1.00
H310   H     0.51284   0.16230   0.86331   0.00000  Uiso   1.00
H311   H     0.56249   0.03351   0.39106   0.00000  Uiso   1.00
H312   H     0.64918   0.59333   0.91952   0.00000  Uiso   1.00
H313   H     0.47763   0.04328   0.69046   0.00000  Uiso   1.00
O314   O     0.60421   0.86937   0.47024   0.00000  Uiso   1.00
O315   O     0.71795   0.60383   0.85159   0.00000  Uiso   1.00
O316   O     0.49288   0.88218   0.55106   0.00000  Uiso   1.00
N317   N     0.62698   0.88444   0.29993   0.00000  Uiso   1.00
N318   N     0.70803   0.40784   0.85909   0.00000  Uiso   1.00
N319   N     0.54765   0.89361   0.64491   0.00000  Uiso   1.00
N320   N     0.58188   0.99737   0.34590   0.00000  Uiso   1.00
N321   N     0.66293   0.52077   0.90506   0.00000  Uiso   1.00
N322   N     0.50255   0.00655   0.69088   0.00000  Uiso   1.00
C323   C     0.86849   0.94803   0.93062   0.00000  Uiso   1.00
C324   C     0.88076   0.96661   0.04363   0.00000  Uiso   1.00
C325   C     0.86596   0.04514   0.11305   0.00000  Uiso   1.00
C326   C     0.88100   0.04898   0.21299   0.00000  Uiso   1.00
C327   C     0.89566   0.08877   0.38401   0.00000  Uiso   1.00
C328   C     0.85842   0.82236   0.92215   0.00000  Uiso   1.00
C329   C     0.82483   0.77960   0.88941   0.00000  Uiso   1.00
C330   C     0.82107   0.66200   0.88708   0.00000  Uiso   1.00
C331   C     0.80105   0.47783   0.86942   0.00000  Uiso   1.00
C332   C     0.90262   0.96409   0.86314   0.00000  Uiso   1.00
C333   C     0.90620   0.04048   0.78076   0.00000  Uiso   1.00
C334   C     0.93965   0.04219   0.72872   0.00000  Uiso   1.00
C335   C     0.98826   0.07809   0.61944   0.00000  Uiso   1.00
C336   C     0.92152   0.81521   0.98468   0.00000  Uiso   1.00
C337   C     0.90957   0.89447   0.07299   0.00000  Uiso   1.00
C338   C     0.92464   0.89819   0.17285   0.00000  Uiso   1.00
C339   C     0.90986   0.97671   0.24241   0.00000  Uiso   1.00
C340   C     0.88722   0.75022   0.95151   0.00000  Uiso   1.00
C341   C     0.88351   0.63265   0.94922   0.00000  Uiso   1.00
C342   C     0.84992   0.58973   0.91649   0.00000  Uiso   1.00
C343   C     0.93143   0.89195   0.89250   0.00000  Uiso   1.00
C344   C     0.96487   0.89354   0.84057   0.00000  Uiso   1.00
C345   C     0.96850   0.96992   0.75813   0.00000  Uiso   1.00
H346   H     0.84606   0.00419   0.90777   0.00000  Uiso   1.00
H347   H     0.84366   0.10094   0.09030   0.00000  Uiso   1.00
H348   H     0.80255   0.83544   0.86669   0.00000  Uiso   1.00
H349   H     0.88390   0.09629   0.75806   0.00000  Uiso   1.00
H350   H     0.85370   0.17637   0.30563   0.00000  Uiso   1.00
H351   H     0.76701   0.61655   0.83410   0.00000  Uiso   1.00
H352   H     0.93856   0.16660   0.60503   0.00000  Uiso   1.00
H353   H     0.94395   0.75904   0.00753   0.00000  Uiso   1.00
H354   H     0.94693   0.84236   0.19555   0.00000  Uiso   1.00
H355   H     0.90581   0.57685   0.97194   0.00000  Uiso   1.00
H356   H     0.98716   0.83770   0.86331   0.00000  Uiso   1.00
H357   H     0.93751   0.96649   0.39106   0.00000  Uiso   1.00
H358   H     0.85082   0.40667   0.91952   0.00000  Uiso   1.00
H359   H     0.02237   0.95672   0.69046   0.00000  Uiso   1.00
O360   O     0.89579   0.13063   0.47024   0.00000  Uiso   1.00
O361   O     0.78205   0.39617   0.85159   0.00000  Uiso   1.00
O362   O     0.00712   0.11782   0.55106   0.00000  Uiso   1.00
N363   N     0.87302   0.11556   0.29993   0.00000  Uiso   1.00
N364   N     0.79197   0.59216   0.85909   0.00000  Uiso   1.00
N365   N     0.95235   0.10639   0.64491   0.00000  Uiso   1.00
N366   N     0.91812   0.00263   0.34590   0.00000  Uiso   1.00
N367   N     0.83707   0.47923   0.90506   0.00000  Uiso   1.00
N368   N     0.99745   0.99345   0.69088   0.00000  Uiso   1.00
