data_job_00412
_audit_creation_date              2018-12-19
_audit_creation_method            'Materials Studio'
_symmetry_space_group_name_H-M    'P1'
_symmetry_Int_Tables_number       1
_symmetry_cell_setting            triclinic
loop_
_symmetry_equiv_pos_as_xyz
  x,y,z
_cell_length_a                    14.2699
_cell_length_b                    12.5153
_cell_length_c                    12.6253
_cell_angle_alpha                 90.0000
_cell_angle_beta                  91.0047
_cell_angle_gamma                 90.0000
loop_
_atom_site_label
_atom_site_type_symbol
_atom_site_fract_x
_atom_site_fract_y
_atom_site_fract_z
_atom_site_U_iso_or_equiv
_atom_site_adp_type
_atom_site_occupancy
C1     C     0.74775   0.37476   0.77595   0.00000  Uiso   1.00
C2     C     0.77728   0.45693   0.85925   0.00000  Uiso   1.00
C3     C     0.82326   0.55244   0.83970   0.00000  Uiso   1.00
C4     C     0.84418   0.61665   0.92662   0.00000  Uiso   1.00
C5     C     0.89376   0.74881   0.04034   0.00000  Uiso   1.00
C6     C     0.79294   0.26959   0.81019   0.00000  Uiso   1.00
C7     C     0.85207   0.20759   0.74938   0.00000  Uiso   1.00
C8     C     0.88616   0.11409   0.79501   0.00000  Uiso   1.00
C9     C     0.96000   0.95538   0.83253   0.00000  Uiso   1.00
C10    C     0.64246   0.35952   0.78802   0.00000  Uiso   1.00
C11    C     0.57506   0.37310   0.70857   0.00000  Uiso   1.00
C12    C     0.48245   0.35528   0.73552   0.00000  Uiso   1.00
C13    C     0.32264   0.33619   0.73863   0.00000  Uiso   1.00
C14    C     0.70313   0.31895   0.96507   0.00000  Uiso   1.00
C15    C     0.75305   0.42661   0.96197   0.00000  Uiso   1.00
C16    C     0.77389   0.49069   0.04894   0.00000  Uiso   1.00
C17    C     0.81989   0.58628   0.02953   0.00000  Uiso   1.00
C18    C     0.76871   0.23928   0.91290   0.00000  Uiso   1.00
C19    C     0.80270   0.14584   0.95862   0.00000  Uiso   1.00
C20    C     0.86188   0.08372   0.89791   0.00000  Uiso   1.00
C21    C     0.61822   0.32921   0.89074   0.00000  Uiso   1.00
C22    C     0.52569   0.31136   0.91782   0.00000  Uiso   1.00
C23    C     0.45817   0.32491   0.83843   0.00000  Uiso   1.00
H24    H     0.76662   0.39836   0.69598   0.00000  Uiso   1.00
H25    H     0.84202   0.57587   0.76020   0.00000  Uiso   1.00
H26    H     0.87081   0.23106   0.66989   0.00000  Uiso   1.00
H27    H     0.59384   0.39655   0.62909   0.00000  Uiso   1.00
H28    H     0.91494   0.75928   0.87671   0.00000  Uiso   1.00
H29    H     0.97564   0.03223   0.68627   0.00000  Uiso   1.00
H30    H     0.39159   0.38119   0.60024   0.00000  Uiso   1.00
H31    H     0.68426   0.29535   0.04504   0.00000  Uiso   1.00
H32    H     0.75513   0.46721   0.12842   0.00000  Uiso   1.00
H33    H     0.78393   0.12241   0.03811   0.00000  Uiso   1.00
H34    H     0.50696   0.28790   0.99731   0.00000  Uiso   1.00
H35    H     0.84442   0.67109   0.17557   0.00000  Uiso   1.00
H36    H     0.90512   0.94403   0.98514   0.00000  Uiso   1.00
H37    H     0.32107   0.29300   0.89910   0.00000  Uiso   1.00
O38    O     0.92782   0.83008   0.07469   0.00000  Uiso   1.00
O39    O     0.00743   0.87621   0.82484   0.00000  Uiso   1.00
O40    O     0.24118   0.33405   0.71197   0.00000  Uiso   1.00
N41    N     0.88860   0.71495   0.93560   0.00000  Uiso   1.00
N42    N     0.94536   0.03521   0.75756   0.00000  Uiso   1.00
N43    N     0.39933   0.36143   0.67712   0.00000  Uiso   1.00
N44    N     0.85066   0.66749   0.09642   0.00000  Uiso   1.00
N45    N     0.90741   0.98775   0.91838   0.00000  Uiso   1.00
N46    N     0.36139   0.31398   0.83793   0.00000  Uiso   1.00
C47    C     0.25225   0.87476   0.72405   0.00000  Uiso   1.00
C48    C     0.22272   0.95693   0.64075   0.00000  Uiso   1.00
C49    C     0.17674   0.05244   0.66030   0.00000  Uiso   1.00
C50    C     0.15582   0.11665   0.57338   0.00000  Uiso   1.00
C51    C     0.10624   0.24881   0.45966   0.00000  Uiso   1.00
C52    C     0.20706   0.76959   0.68981   0.00000  Uiso   1.00
C53    C     0.14793   0.70759   0.75062   0.00000  Uiso   1.00
C54    C     0.11384   0.61409   0.70499   0.00000  Uiso   1.00
C55    C     0.04000   0.45538   0.66747   0.00000  Uiso   1.00
C56    C     0.35754   0.85952   0.71198   0.00000  Uiso   1.00
C57    C     0.42494   0.87310   0.79143   0.00000  Uiso   1.00
C58    C     0.51755   0.85528   0.76448   0.00000  Uiso   1.00
C59    C     0.67736   0.83619   0.76137   0.00000  Uiso   1.00
C60    C     0.29687   0.81895   0.53493   0.00000  Uiso   1.00
C61    C     0.24695   0.92661   0.53803   0.00000  Uiso   1.00
C62    C     0.22611   0.99069   0.45106   0.00000  Uiso   1.00
C63    C     0.18011   0.08628   0.47047   0.00000  Uiso   1.00
C64    C     0.23129   0.73928   0.58710   0.00000  Uiso   1.00
C65    C     0.19730   0.64584   0.54138   0.00000  Uiso   1.00
C66    C     0.13812   0.58372   0.60209   0.00000  Uiso   1.00
C67    C     0.38178   0.82921   0.60926   0.00000  Uiso   1.00
C68    C     0.47431   0.81136   0.58218   0.00000  Uiso   1.00
C69    C     0.54183   0.82491   0.66157   0.00000  Uiso   1.00
H70    H     0.23338   0.89836   0.80402   0.00000  Uiso   1.00
H71    H     0.15798   0.07587   0.73980   0.00000  Uiso   1.00
H72    H     0.12919   0.73106   0.83011   0.00000  Uiso   1.00
H73    H     0.40616   0.89655   0.87091   0.00000  Uiso   1.00
H74    H     0.08506   0.25928   0.62329   0.00000  Uiso   1.00
H75    H     0.02436   0.53223   0.81373   0.00000  Uiso   1.00
H76    H     0.60841   0.88119   0.89976   0.00000  Uiso   1.00
H77    H     0.31574   0.79535   0.45496   0.00000  Uiso   1.00
H78    H     0.24487   0.96721   0.37158   0.00000  Uiso   1.00
H79    H     0.21607   0.62241   0.46189   0.00000  Uiso   1.00
H80    H     0.49304   0.78790   0.50269   0.00000  Uiso   1.00
H81    H     0.15558   0.17109   0.32443   0.00000  Uiso   1.00
H82    H     0.09488   0.44403   0.51486   0.00000  Uiso   1.00
H83    H     0.67893   0.79300   0.60090   0.00000  Uiso   1.00
O84    O     0.07218   0.33008   0.42531   0.00000  Uiso   1.00
O85    O     0.99257   0.37621   0.67516   0.00000  Uiso   1.00
O86    O     0.75882   0.83405   0.78803   0.00000  Uiso   1.00
N87    N     0.11140   0.21495   0.56440   0.00000  Uiso   1.00
N88    N     0.05464   0.53521   0.74244   0.00000  Uiso   1.00
N89    N     0.60067   0.86143   0.82288   0.00000  Uiso   1.00
N90    N     0.14934   0.16749   0.40358   0.00000  Uiso   1.00
N91    N     0.09259   0.48775   0.58162   0.00000  Uiso   1.00
N92    N     0.63861   0.81398   0.66207   0.00000  Uiso   1.00
C93    C     0.25225   0.62524   0.22405   0.00000  Uiso   1.00
C94    C     0.22272   0.54307   0.14075   0.00000  Uiso   1.00
C95    C     0.17674   0.44756   0.16030   0.00000  Uiso   1.00
C96    C     0.15582   0.38335   0.07338   0.00000  Uiso   1.00
C97    C     0.10624   0.25119   0.95966   0.00000  Uiso   1.00
C98    C     0.20706   0.73041   0.18981   0.00000  Uiso   1.00
C99    C     0.14793   0.79241   0.25062   0.00000  Uiso   1.00
C100   C     0.11384   0.88591   0.20499   0.00000  Uiso   1.00
C101   C     0.04000   0.04462   0.16747   0.00000  Uiso   1.00
C102   C     0.35754   0.64048   0.21198   0.00000  Uiso   1.00
C103   C     0.42494   0.62690   0.29143   0.00000  Uiso   1.00
C104   C     0.51755   0.64472   0.26448   0.00000  Uiso   1.00
C105   C     0.67736   0.66381   0.26137   0.00000  Uiso   1.00
C106   C     0.29687   0.68105   0.03493   0.00000  Uiso   1.00
C107   C     0.24695   0.57339   0.03803   0.00000  Uiso   1.00
C108   C     0.22611   0.50931   0.95106   0.00000  Uiso   1.00
C109   C     0.18011   0.41372   0.97047   0.00000  Uiso   1.00
C110   C     0.23129   0.76072   0.08710   0.00000  Uiso   1.00
C111   C     0.19730   0.85416   0.04138   0.00000  Uiso   1.00
C112   C     0.13812   0.91628   0.10209   0.00000  Uiso   1.00
C113   C     0.38178   0.67079   0.10926   0.00000  Uiso   1.00
C114   C     0.47431   0.68864   0.08218   0.00000  Uiso   1.00
C115   C     0.54183   0.67509   0.16157   0.00000  Uiso   1.00
H116   H     0.23338   0.60164   0.30402   0.00000  Uiso   1.00
H117   H     0.15798   0.42413   0.23980   0.00000  Uiso   1.00
H118   H     0.12919   0.76894   0.33011   0.00000  Uiso   1.00
H119   H     0.40616   0.60345   0.37091   0.00000  Uiso   1.00
H120   H     0.08506   0.24072   0.12329   0.00000  Uiso   1.00
H121   H     0.02436   0.96777   0.31373   0.00000  Uiso   1.00
H122   H     0.60841   0.61881   0.39976   0.00000  Uiso   1.00
H123   H     0.31574   0.70465   0.95496   0.00000  Uiso   1.00
H124   H     0.24487   0.53279   0.87158   0.00000  Uiso   1.00
H125   H     0.21607   0.87759   0.96189   0.00000  Uiso   1.00
H126   H     0.49304   0.71210   0.00269   0.00000  Uiso   1.00
H127   H     0.15558   0.32891   0.82443   0.00000  Uiso   1.00
H128   H     0.09488   0.05597   0.01486   0.00000  Uiso   1.00
H129   H     0.67893   0.70700   0.10090   0.00000  Uiso   1.00
O130   O     0.07218   0.16992   0.92531   0.00000  Uiso   1.00
O131   O     0.99257   0.12379   0.17516   0.00000  Uiso   1.00
O132   O     0.75882   0.66595   0.28803   0.00000  Uiso   1.00
N133   N     0.11140   0.28505   0.06440   0.00000  Uiso   1.00
N134   N     0.05464   0.96479   0.24244   0.00000  Uiso   1.00
N135   N     0.60067   0.63857   0.32288   0.00000  Uiso   1.00
N136   N     0.14934   0.33251   0.90358   0.00000  Uiso   1.00
N137   N     0.09259   0.01225   0.08162   0.00000  Uiso   1.00
N138   N     0.63861   0.68602   0.16207   0.00000  Uiso   1.00
C139   C     0.74775   0.12524   0.27595   0.00000  Uiso   1.00
C140   C     0.77728   0.04307   0.35925   0.00000  Uiso   1.00
C141   C     0.82326   0.94756   0.33970   0.00000  Uiso   1.00
C142   C     0.84418   0.88335   0.42662   0.00000  Uiso   1.00
C143   C     0.89376   0.75119   0.54034   0.00000  Uiso   1.00
C144   C     0.79294   0.23041   0.31019   0.00000  Uiso   1.00
C145   C     0.85207   0.29241   0.24938   0.00000  Uiso   1.00
C146   C     0.88616   0.38591   0.29501   0.00000  Uiso   1.00
C147   C     0.96000   0.54462   0.33253   0.00000  Uiso   1.00
C148   C     0.64246   0.14048   0.28802   0.00000  Uiso   1.00
C149   C     0.57506   0.12690   0.20857   0.00000  Uiso   1.00
C150   C     0.48245   0.14472   0.23552   0.00000  Uiso   1.00
C151   C     0.32264   0.16381   0.23863   0.00000  Uiso   1.00
C152   C     0.70313   0.18105   0.46507   0.00000  Uiso   1.00
C153   C     0.75305   0.07339   0.46197   0.00000  Uiso   1.00
C154   C     0.77389   0.00931   0.54894   0.00000  Uiso   1.00
C155   C     0.81989   0.91372   0.52953   0.00000  Uiso   1.00
C156   C     0.76871   0.26072   0.41290   0.00000  Uiso   1.00
C157   C     0.80270   0.35416   0.45862   0.00000  Uiso   1.00
C158   C     0.86188   0.41628   0.39791   0.00000  Uiso   1.00
C159   C     0.61822   0.17079   0.39074   0.00000  Uiso   1.00
C160   C     0.52569   0.18864   0.41782   0.00000  Uiso   1.00
C161   C     0.45817   0.17509   0.33843   0.00000  Uiso   1.00
H162   H     0.76662   0.10164   0.19598   0.00000  Uiso   1.00
H163   H     0.84202   0.92413   0.26020   0.00000  Uiso   1.00
H164   H     0.87081   0.26894   0.16989   0.00000  Uiso   1.00
H165   H     0.59384   0.10345   0.12909   0.00000  Uiso   1.00
H166   H     0.91494   0.74072   0.37671   0.00000  Uiso   1.00
H167   H     0.97564   0.46777   0.18627   0.00000  Uiso   1.00
H168   H     0.39159   0.11881   0.10024   0.00000  Uiso   1.00
H169   H     0.68426   0.20465   0.54504   0.00000  Uiso   1.00
H170   H     0.75513   0.03279   0.62842   0.00000  Uiso   1.00
H171   H     0.78393   0.37759   0.53811   0.00000  Uiso   1.00
H172   H     0.50696   0.21210   0.49731   0.00000  Uiso   1.00
H173   H     0.84442   0.82891   0.67557   0.00000  Uiso   1.00
H174   H     0.90512   0.55597   0.48514   0.00000  Uiso   1.00
H175   H     0.32107   0.20700   0.39910   0.00000  Uiso   1.00
O176   O     0.92782   0.66992   0.57469   0.00000  Uiso   1.00
O177   O     0.00743   0.62379   0.32484   0.00000  Uiso   1.00
O178   O     0.24118   0.16595   0.21197   0.00000  Uiso   1.00
N179   N     0.88860   0.78505   0.43560   0.00000  Uiso   1.00
N180   N     0.94536   0.46479   0.25756   0.00000  Uiso   1.00
N181   N     0.39933   0.13857   0.17712   0.00000  Uiso   1.00
N182   N     0.85066   0.83251   0.59642   0.00000  Uiso   1.00
N183   N     0.90741   0.51225   0.41838   0.00000  Uiso   1.00
N184   N     0.36139   0.18602   0.33793   0.00000  Uiso   1.00
