data_job_03044
_audit_creation_date              2018-12-19
_audit_creation_method            'Materials Studio'
_symmetry_space_group_name_H-M    'P1'
_symmetry_Int_Tables_number       1
_symmetry_cell_setting            triclinic
loop_
_symmetry_equiv_pos_as_xyz
  x,y,z
_cell_length_a                    12.6996
_cell_length_b                    22.2651
_cell_length_c                    9.5685
_cell_angle_alpha                 90.0000
_cell_angle_beta                  90.0000
_cell_angle_gamma                 90.0000
loop_
_atom_site_label
_atom_site_type_symbol
_atom_site_fract_x
_atom_site_fract_y
_atom_site_fract_z
_atom_site_U_iso_or_equiv
_atom_site_adp_type
_atom_site_occupancy
C1     C     0.74865   0.59026   0.67735   0.00000  Uiso   1.00
C2     C     0.83044   0.63988   0.69426   0.00000  Uiso   1.00
C3     C     0.84159   0.67686   0.81007   0.00000  Uiso   1.00
C4     C     0.92123   0.71953   0.80525   0.00000  Uiso   1.00
C5     C     0.03814   0.79576   0.84920   0.00000  Uiso   1.00
C6     C     0.68851   0.60482   0.54364   0.00000  Uiso   1.00
C7     C     0.58032   0.61231   0.53280   0.00000  Uiso   1.00
C8     C     0.54049   0.62546   0.40118   0.00000  Uiso   1.00
C9     C     0.43705   0.64722   0.21126   0.00000  Uiso   1.00
C10    C     0.81034   0.53296   0.64716   0.00000  Uiso   1.00
C11    C     0.80457   0.48002   0.72334   0.00000  Uiso   1.00
C12    C     0.86730   0.43265   0.67885   0.00000  Uiso   1.00
C13    C     0.95302   0.34283   0.64967   0.00000  Uiso   1.00
C14    C     0.87027   0.60028   0.46285   0.00000  Uiso   1.00
C15    C     0.89649   0.64532   0.57775   0.00000  Uiso   1.00
C16    C     0.97614   0.68794   0.57275   0.00000  Uiso   1.00
C17    C     0.98741   0.72498   0.68854   0.00000  Uiso   1.00
C18    C     0.75456   0.61026   0.42713   0.00000  Uiso   1.00
C19    C     0.71488   0.62339   0.29549   0.00000  Uiso   1.00
C20    C     0.60667   0.63091   0.28446   0.00000  Uiso   1.00
C21    C     0.87640   0.53840   0.53065   0.00000  Uiso   1.00
C22    C     0.93913   0.49110   0.48603   0.00000  Uiso   1.00
C23    C     0.93347   0.43810   0.56213   0.00000  Uiso   1.00
H24    H     0.69722   0.58603   0.76805   0.00000  Uiso   1.00
H25    H     0.79044   0.67264   0.90021   0.00000  Uiso   1.00
H26    H     0.52922   0.60809   0.62298   0.00000  Uiso   1.00
H27    H     0.75345   0.47583   0.81349   0.00000  Uiso   1.00
H28    H     0.92291   0.77108   0.99533   0.00000  Uiso   1.00
H29    H     0.37211   0.63496   0.41077   0.00000  Uiso   1.00
H30    H     0.84492   0.35604   0.81250   0.00000  Uiso   1.00
H31    H     0.92169   0.60451   0.37214   0.00000  Uiso   1.00
H32    H     0.02725   0.69214   0.48258   0.00000  Uiso   1.00
H33    H     0.76602   0.62760   0.20535   0.00000  Uiso   1.00
H34    H     0.99024   0.49533   0.39586   0.00000  Uiso   1.00
H35    H     0.11510   0.78691   0.65637   0.00000  Uiso   1.00
H36    H     0.56430   0.65079   0.07180   0.00000  Uiso   1.00
H37    H     0.03712   0.37187   0.47354   0.00000  Uiso   1.00
O38    O     0.08437   0.83632   0.90562   0.00000  Uiso   1.00
O39    O     0.36174   0.65772   0.13870   0.00000  Uiso   1.00
O40    O     0.98206   0.29179   0.66577   0.00000  Uiso   1.00
N41    N     0.95367   0.76277   0.90041   0.00000  Uiso   1.00
N42    N     0.43871   0.63552   0.35389   0.00000  Uiso   1.00
N43    N     0.88073   0.37475   0.72945   0.00000  Uiso   1.00
N44    N     0.05709   0.77129   0.71802   0.00000  Uiso   1.00
N45    N     0.54213   0.64403   0.17149   0.00000  Uiso   1.00
N46    N     0.98414   0.38326   0.54706   0.00000  Uiso   1.00
C47    C     0.25135   0.40974   0.17735   0.00000  Uiso   1.00
C48    C     0.16956   0.36012   0.19426   0.00000  Uiso   1.00
C49    C     0.15841   0.32314   0.31007   0.00000  Uiso   1.00
C50    C     0.07877   0.28047   0.30525   0.00000  Uiso   1.00
C51    C     0.96186   0.20424   0.34920   0.00000  Uiso   1.00
C52    C     0.31149   0.39518   0.04364   0.00000  Uiso   1.00
C53    C     0.41968   0.38769   0.03280   0.00000  Uiso   1.00
C54    C     0.45951   0.37454   0.90118   0.00000  Uiso   1.00
C55    C     0.56295   0.35278   0.71126   0.00000  Uiso   1.00
C56    C     0.18966   0.46704   0.14716   0.00000  Uiso   1.00
C57    C     0.19543   0.51998   0.22334   0.00000  Uiso   1.00
C58    C     0.13270   0.56735   0.17885   0.00000  Uiso   1.00
C59    C     0.04698   0.65717   0.14967   0.00000  Uiso   1.00
C60    C     0.12973   0.39972   0.96285   0.00000  Uiso   1.00
C61    C     0.10351   0.35468   0.07775   0.00000  Uiso   1.00
C62    C     0.02386   0.31206   0.07275   0.00000  Uiso   1.00
C63    C     0.01259   0.27502   0.18854   0.00000  Uiso   1.00
C64    C     0.24544   0.38974   0.92713   0.00000  Uiso   1.00
C65    C     0.28512   0.37661   0.79549   0.00000  Uiso   1.00
C66    C     0.39333   0.36909   0.78446   0.00000  Uiso   1.00
C67    C     0.12360   0.46160   0.03065   0.00000  Uiso   1.00
C68    C     0.06087   0.50890   0.98603   0.00000  Uiso   1.00
C69    C     0.06653   0.56190   0.06213   0.00000  Uiso   1.00
H70    H     0.30278   0.41397   0.26805   0.00000  Uiso   1.00
H71    H     0.20956   0.32736   0.40021   0.00000  Uiso   1.00
H72    H     0.47078   0.39191   0.12298   0.00000  Uiso   1.00
H73    H     0.24655   0.52417   0.31349   0.00000  Uiso   1.00
H74    H     0.07709   0.22892   0.49533   0.00000  Uiso   1.00
H75    H     0.62789   0.36504   0.91077   0.00000  Uiso   1.00
H76    H     0.15508   0.64396   0.31250   0.00000  Uiso   1.00
H77    H     0.07831   0.39549   0.87214   0.00000  Uiso   1.00
H78    H     0.97275   0.30786   0.98258   0.00000  Uiso   1.00
H79    H     0.23398   0.37240   0.70535   0.00000  Uiso   1.00
H80    H     0.00976   0.50467   0.89586   0.00000  Uiso   1.00
H81    H     0.88490   0.21309   0.15637   0.00000  Uiso   1.00
H82    H     0.43570   0.34921   0.57180   0.00000  Uiso   1.00
H83    H     0.96288   0.62813   0.97354   0.00000  Uiso   1.00
O84    O     0.91563   0.16368   0.40562   0.00000  Uiso   1.00
O85    O     0.63826   0.34228   0.63870   0.00000  Uiso   1.00
O86    O     0.01794   0.70821   0.16577   0.00000  Uiso   1.00
N87    N     0.04633   0.23723   0.40041   0.00000  Uiso   1.00
N88    N     0.56129   0.36448   0.85389   0.00000  Uiso   1.00
N89    N     0.11927   0.62525   0.22945   0.00000  Uiso   1.00
N90    N     0.94291   0.22871   0.21802   0.00000  Uiso   1.00
N91    N     0.45787   0.35597   0.67149   0.00000  Uiso   1.00
N92    N     0.01586   0.61674   0.04706   0.00000  Uiso   1.00
C93    C     0.24865   0.90974   0.67735   0.00000  Uiso   1.00
C94    C     0.33044   0.86012   0.69426   0.00000  Uiso   1.00
C95    C     0.34159   0.82314   0.81007   0.00000  Uiso   1.00
C96    C     0.42123   0.78047   0.80525   0.00000  Uiso   1.00
C97    C     0.53814   0.70424   0.84920   0.00000  Uiso   1.00
C98    C     0.18851   0.89518   0.54364   0.00000  Uiso   1.00
C99    C     0.08032   0.88769   0.53280   0.00000  Uiso   1.00
C100   C     0.04049   0.87454   0.40118   0.00000  Uiso   1.00
C101   C     0.93705   0.85278   0.21126   0.00000  Uiso   1.00
C102   C     0.31034   0.96704   0.64716   0.00000  Uiso   1.00
C103   C     0.30457   0.01998   0.72334   0.00000  Uiso   1.00
C104   C     0.36730   0.06735   0.67885   0.00000  Uiso   1.00
C105   C     0.45302   0.15717   0.64967   0.00000  Uiso   1.00
C106   C     0.37027   0.89972   0.46285   0.00000  Uiso   1.00
C107   C     0.39649   0.85468   0.57775   0.00000  Uiso   1.00
C108   C     0.47614   0.81206   0.57275   0.00000  Uiso   1.00
C109   C     0.48741   0.77502   0.68854   0.00000  Uiso   1.00
C110   C     0.25456   0.88974   0.42713   0.00000  Uiso   1.00
C111   C     0.21488   0.87661   0.29549   0.00000  Uiso   1.00
C112   C     0.10667   0.86909   0.28446   0.00000  Uiso   1.00
C113   C     0.37640   0.96160   0.53065   0.00000  Uiso   1.00
C114   C     0.43913   0.00890   0.48603   0.00000  Uiso   1.00
C115   C     0.43347   0.06190   0.56213   0.00000  Uiso   1.00
H116   H     0.19722   0.91397   0.76805   0.00000  Uiso   1.00
H117   H     0.29044   0.82736   0.90021   0.00000  Uiso   1.00
H118   H     0.02922   0.89191   0.62298   0.00000  Uiso   1.00
H119   H     0.25345   0.02417   0.81349   0.00000  Uiso   1.00
H120   H     0.42291   0.72892   0.99533   0.00000  Uiso   1.00
H121   H     0.87211   0.86504   0.41077   0.00000  Uiso   1.00
H122   H     0.34492   0.14396   0.81250   0.00000  Uiso   1.00
H123   H     0.42169   0.89549   0.37214   0.00000  Uiso   1.00
H124   H     0.52725   0.80786   0.48258   0.00000  Uiso   1.00
H125   H     0.26602   0.87240   0.20535   0.00000  Uiso   1.00
H126   H     0.49024   0.00467   0.39586   0.00000  Uiso   1.00
H127   H     0.61510   0.71309   0.65637   0.00000  Uiso   1.00
H128   H     0.06430   0.84921   0.07180   0.00000  Uiso   1.00
H129   H     0.53712   0.12813   0.47354   0.00000  Uiso   1.00
O130   O     0.58437   0.66368   0.90562   0.00000  Uiso   1.00
O131   O     0.86174   0.84228   0.13870   0.00000  Uiso   1.00
O132   O     0.48206   0.20821   0.66577   0.00000  Uiso   1.00
N133   N     0.45367   0.73723   0.90041   0.00000  Uiso   1.00
N134   N     0.93871   0.86448   0.35389   0.00000  Uiso   1.00
N135   N     0.38073   0.12525   0.72945   0.00000  Uiso   1.00
N136   N     0.55709   0.72871   0.71802   0.00000  Uiso   1.00
N137   N     0.04213   0.85597   0.17149   0.00000  Uiso   1.00
N138   N     0.48414   0.11674   0.54706   0.00000  Uiso   1.00
C139   C     0.75135   0.09026   0.17735   0.00000  Uiso   1.00
C140   C     0.66956   0.13988   0.19426   0.00000  Uiso   1.00
C141   C     0.65841   0.17686   0.31007   0.00000  Uiso   1.00
C142   C     0.57877   0.21953   0.30525   0.00000  Uiso   1.00
C143   C     0.46186   0.29576   0.34920   0.00000  Uiso   1.00
C144   C     0.81149   0.10482   0.04364   0.00000  Uiso   1.00
C145   C     0.91968   0.11231   0.03280   0.00000  Uiso   1.00
C146   C     0.95951   0.12546   0.90118   0.00000  Uiso   1.00
C147   C     0.06295   0.14722   0.71126   0.00000  Uiso   1.00
C148   C     0.68966   0.03296   0.14716   0.00000  Uiso   1.00
C149   C     0.69543   0.98002   0.22334   0.00000  Uiso   1.00
C150   C     0.63270   0.93265   0.17885   0.00000  Uiso   1.00
C151   C     0.54698   0.84283   0.14967   0.00000  Uiso   1.00
C152   C     0.62973   0.10028   0.96285   0.00000  Uiso   1.00
C153   C     0.60351   0.14532   0.07775   0.00000  Uiso   1.00
C154   C     0.52386   0.18794   0.07275   0.00000  Uiso   1.00
C155   C     0.51259   0.22498   0.18854   0.00000  Uiso   1.00
C156   C     0.74544   0.11026   0.92713   0.00000  Uiso   1.00
C157   C     0.78512   0.12339   0.79549   0.00000  Uiso   1.00
C158   C     0.89333   0.13091   0.78446   0.00000  Uiso   1.00
C159   C     0.62360   0.03840   0.03065   0.00000  Uiso   1.00
C160   C     0.56087   0.99110   0.98603   0.00000  Uiso   1.00
C161   C     0.56653   0.93810   0.06213   0.00000  Uiso   1.00
H162   H     0.80278   0.08603   0.26805   0.00000  Uiso   1.00
H163   H     0.70956   0.17264   0.40021   0.00000  Uiso   1.00
H164   H     0.97078   0.10809   0.12298   0.00000  Uiso   1.00
H165   H     0.74655   0.97583   0.31349   0.00000  Uiso   1.00
H166   H     0.57709   0.27108   0.49533   0.00000  Uiso   1.00
H167   H     0.12789   0.13496   0.91077   0.00000  Uiso   1.00
H168   H     0.65508   0.85604   0.31250   0.00000  Uiso   1.00
H169   H     0.57831   0.10451   0.87214   0.00000  Uiso   1.00
H170   H     0.47275   0.19214   0.98258   0.00000  Uiso   1.00
H171   H     0.73398   0.12760   0.70535   0.00000  Uiso   1.00
H172   H     0.50976   0.99533   0.89586   0.00000  Uiso   1.00
H173   H     0.38490   0.28691   0.15637   0.00000  Uiso   1.00
H174   H     0.93570   0.15079   0.57180   0.00000  Uiso   1.00
H175   H     0.46288   0.87187   0.97354   0.00000  Uiso   1.00
O176   O     0.41563   0.33632   0.40562   0.00000  Uiso   1.00
O177   O     0.13826   0.15772   0.63870   0.00000  Uiso   1.00
O178   O     0.51794   0.79179   0.16577   0.00000  Uiso   1.00
N179   N     0.54633   0.26277   0.40041   0.00000  Uiso   1.00
N180   N     0.06129   0.13552   0.85389   0.00000  Uiso   1.00
N181   N     0.61927   0.87475   0.22945   0.00000  Uiso   1.00
N182   N     0.44291   0.27129   0.21802   0.00000  Uiso   1.00
N183   N     0.95787   0.14403   0.67149   0.00000  Uiso   1.00
N184   N     0.51586   0.88326   0.04706   0.00000  Uiso   1.00
