data_job_03335
_audit_creation_date              2018-12-19
_audit_creation_method            'Materials Studio'
_symmetry_space_group_name_H-M    'P1'
_symmetry_Int_Tables_number       1
_symmetry_cell_setting            triclinic
loop_
_symmetry_equiv_pos_as_xyz
  x,y,z
_cell_length_a                    17.3002
_cell_length_b                    23.0318
_cell_length_c                    7.3333
_cell_angle_alpha                 90.0000
_cell_angle_beta                  93.8656
_cell_angle_gamma                 90.0000
loop_
_atom_site_label
_atom_site_type_symbol
_atom_site_fract_x
_atom_site_fract_y
_atom_site_fract_z
_atom_site_U_iso_or_equiv
_atom_site_adp_type
_atom_site_occupancy
C1     C     0.71809   0.97310   0.02998   0.00000  Uiso   1.00
C2     C     0.78066   0.92796   0.07794   0.00000  Uiso   1.00
C3     C     0.81371   0.89115   0.95516   0.00000  Uiso   1.00
C4     C     0.87004   0.85291   0.02612   0.00000  Uiso   1.00
C5     C     0.96376   0.78299   0.07216   0.00000  Uiso   1.00
C6     C     0.65112   0.95871   0.14720   0.00000  Uiso   1.00
C7     C     0.57526   0.94778   0.08263   0.00000  Uiso   1.00
C8     C     0.52255   0.93544   0.21191   0.00000  Uiso   1.00
C9     C     0.41514   0.91332   0.36547   0.00000  Uiso   1.00
C10    C     0.75076   0.03096   0.10079   0.00000  Uiso   1.00
C11    C     0.75866   0.08078   0.99722   0.00000  Uiso   1.00
C12    C     0.78981   0.12928   0.08744   0.00000  Uiso   1.00
C13    C     0.83711   0.21933   0.16895   0.00000  Uiso   1.00
C14    C     0.75935   0.97065   0.37436   0.00000  Uiso   1.00
C15    C     0.80306   0.92662   0.26500   0.00000  Uiso   1.00
C16    C     0.85936   0.88844   0.33618   0.00000  Uiso   1.00
C17    C     0.89250   0.85158   0.21351   0.00000  Uiso   1.00
C18    C     0.67353   0.95738   0.33425   0.00000  Uiso   1.00
C19    C     0.62091   0.94507   0.46365   0.00000  Uiso   1.00
C20    C     0.54499   0.93411   0.39930   0.00000  Uiso   1.00
C21    C     0.77317   0.02963   0.28785   0.00000  Uiso   1.00
C22    C     0.80431   0.07807   0.37824   0.00000  Uiso   1.00
C23    C     0.81226   0.12795   0.27483   0.00000  Uiso   1.00
H24    H     0.70064   0.97414   0.88435   0.00000  Uiso   1.00
H25    H     0.79635   0.89219   0.81041   0.00000  Uiso   1.00
H26    H     0.55794   0.94882   0.93787   0.00000  Uiso   1.00
H27    H     0.74131   0.08179   0.85247   0.00000  Uiso   1.00
H28    H     0.91233   0.80073   0.81093   0.00000  Uiso   1.00
H29    H     0.40961   0.92015   0.07970   0.00000  Uiso   1.00
H30    H     0.79629   0.20056   0.89962   0.00000  Uiso   1.00
H31    H     0.77679   0.96962   0.52000   0.00000  Uiso   1.00
H32    H     0.87669   0.88742   0.48094   0.00000  Uiso   1.00
H33    H     0.63827   0.94404   0.60839   0.00000  Uiso   1.00
H34    H     0.82164   0.07702   0.52299   0.00000  Uiso   1.00
H35    H     0.97753   0.79685   0.35516   0.00000  Uiso   1.00
H36    H     0.47481   0.91628   0.62392   0.00000  Uiso   1.00
H37    H     0.86149   0.19669   0.44384   0.00000  Uiso   1.00
O38    O     0.00925   0.74478   0.04589   0.00000  Uiso   1.00
O39    O     0.34971   0.90147   0.39849   0.00000  Uiso   1.00
O40    O     0.85702   0.26936   0.16223   0.00000  Uiso   1.00
N41    N     0.91397   0.81110   0.94437   0.00000  Uiso   1.00
N42    N     0.44397   0.92275   0.19565   0.00000  Uiso   1.00
N43    N     0.80546   0.18491   0.02730   0.00000  Uiso   1.00
N44    N     0.94906   0.80902   0.23721   0.00000  Uiso   1.00
N45    N     0.47905   0.92066   0.48849   0.00000  Uiso   1.00
N46    N     0.84054   0.18283   0.32014   0.00000  Uiso   1.00
C47    C     0.28191   0.47310   0.47002   0.00000  Uiso   1.00
C48    C     0.21934   0.42796   0.42206   0.00000  Uiso   1.00
C49    C     0.18629   0.39115   0.54484   0.00000  Uiso   1.00
C50    C     0.12996   0.35291   0.47388   0.00000  Uiso   1.00
C51    C     0.03624   0.28299   0.42784   0.00000  Uiso   1.00
C52    C     0.34888   0.45871   0.35280   0.00000  Uiso   1.00
C53    C     0.42474   0.44778   0.41737   0.00000  Uiso   1.00
C54    C     0.47745   0.43544   0.28809   0.00000  Uiso   1.00
C55    C     0.58486   0.41332   0.13453   0.00000  Uiso   1.00
C56    C     0.24924   0.53096   0.39921   0.00000  Uiso   1.00
C57    C     0.24134   0.58078   0.50278   0.00000  Uiso   1.00
C58    C     0.21019   0.62928   0.41256   0.00000  Uiso   1.00
C59    C     0.16289   0.71933   0.33105   0.00000  Uiso   1.00
C60    C     0.24065   0.47065   0.12564   0.00000  Uiso   1.00
C61    C     0.19694   0.42662   0.23500   0.00000  Uiso   1.00
C62    C     0.14064   0.38844   0.16382   0.00000  Uiso   1.00
C63    C     0.10750   0.35158   0.28649   0.00000  Uiso   1.00
C64    C     0.32647   0.45738   0.16575   0.00000  Uiso   1.00
C65    C     0.37909   0.44507   0.03635   0.00000  Uiso   1.00
C66    C     0.45501   0.43411   0.10070   0.00000  Uiso   1.00
C67    C     0.22683   0.52963   0.21215   0.00000  Uiso   1.00
C68    C     0.19569   0.57807   0.12176   0.00000  Uiso   1.00
C69    C     0.18774   0.62795   0.22517   0.00000  Uiso   1.00
H70    H     0.29936   0.47414   0.61565   0.00000  Uiso   1.00
H71    H     0.20365   0.39219   0.68959   0.00000  Uiso   1.00
H72    H     0.44206   0.44882   0.56213   0.00000  Uiso   1.00
H73    H     0.25869   0.58179   0.64753   0.00000  Uiso   1.00
H74    H     0.08767   0.30073   0.68907   0.00000  Uiso   1.00
H75    H     0.59039   0.42015   0.42030   0.00000  Uiso   1.00
H76    H     0.20371   0.70056   0.60038   0.00000  Uiso   1.00
H77    H     0.22321   0.46962   0.98000   0.00000  Uiso   1.00
H78    H     0.12331   0.38742   0.01906   0.00000  Uiso   1.00
H79    H     0.36173   0.44404   0.89161   0.00000  Uiso   1.00
H80    H     0.17836   0.57702   0.97701   0.00000  Uiso   1.00
H81    H     0.02247   0.29685   0.14484   0.00000  Uiso   1.00
H82    H     0.52519   0.41628   0.87608   0.00000  Uiso   1.00
H83    H     0.13851   0.69669   0.05616   0.00000  Uiso   1.00
O84    O     0.99075   0.24478   0.45411   0.00000  Uiso   1.00
O85    O     0.65029   0.40147   0.10151   0.00000  Uiso   1.00
O86    O     0.14298   0.76936   0.33777   0.00000  Uiso   1.00
N87    N     0.08603   0.31110   0.55563   0.00000  Uiso   1.00
N88    N     0.55603   0.42275   0.30435   0.00000  Uiso   1.00
N89    N     0.19454   0.68491   0.47270   0.00000  Uiso   1.00
N90    N     0.05094   0.30902   0.26279   0.00000  Uiso   1.00
N91    N     0.52095   0.42066   0.01151   0.00000  Uiso   1.00
N92    N     0.15946   0.68283   0.17986   0.00000  Uiso   1.00
C93    C     0.28191   0.02690   0.97002   0.00000  Uiso   1.00
C94    C     0.21934   0.07204   0.92206   0.00000  Uiso   1.00
C95    C     0.18629   0.10885   0.04484   0.00000  Uiso   1.00
C96    C     0.12996   0.14709   0.97388   0.00000  Uiso   1.00
C97    C     0.03624   0.21701   0.92784   0.00000  Uiso   1.00
C98    C     0.34888   0.04129   0.85280   0.00000  Uiso   1.00
C99    C     0.42474   0.05222   0.91737   0.00000  Uiso   1.00
C100   C     0.47745   0.06456   0.78809   0.00000  Uiso   1.00
C101   C     0.58486   0.08668   0.63453   0.00000  Uiso   1.00
C102   C     0.24924   0.96904   0.89921   0.00000  Uiso   1.00
C103   C     0.24134   0.91922   0.00278   0.00000  Uiso   1.00
C104   C     0.21019   0.87072   0.91256   0.00000  Uiso   1.00
C105   C     0.16289   0.78067   0.83105   0.00000  Uiso   1.00
C106   C     0.24065   0.02935   0.62564   0.00000  Uiso   1.00
C107   C     0.19694   0.07338   0.73500   0.00000  Uiso   1.00
C108   C     0.14064   0.11156   0.66382   0.00000  Uiso   1.00
C109   C     0.10750   0.14842   0.78649   0.00000  Uiso   1.00
C110   C     0.32647   0.04262   0.66575   0.00000  Uiso   1.00
C111   C     0.37909   0.05493   0.53635   0.00000  Uiso   1.00
C112   C     0.45501   0.06589   0.60070   0.00000  Uiso   1.00
C113   C     0.22683   0.97037   0.71215   0.00000  Uiso   1.00
C114   C     0.19569   0.92193   0.62176   0.00000  Uiso   1.00
C115   C     0.18774   0.87205   0.72517   0.00000  Uiso   1.00
H116   H     0.29936   0.02586   0.11565   0.00000  Uiso   1.00
H117   H     0.20365   0.10781   0.18959   0.00000  Uiso   1.00
H118   H     0.44206   0.05118   0.06213   0.00000  Uiso   1.00
H119   H     0.25869   0.91821   0.14753   0.00000  Uiso   1.00
H120   H     0.08767   0.19927   0.18907   0.00000  Uiso   1.00
H121   H     0.59039   0.07985   0.92030   0.00000  Uiso   1.00
H122   H     0.20371   0.79944   0.10038   0.00000  Uiso   1.00
H123   H     0.22321   0.03038   0.48000   0.00000  Uiso   1.00
H124   H     0.12331   0.11258   0.51906   0.00000  Uiso   1.00
H125   H     0.36173   0.05596   0.39161   0.00000  Uiso   1.00
H126   H     0.17836   0.92298   0.47701   0.00000  Uiso   1.00
H127   H     0.02247   0.20315   0.64484   0.00000  Uiso   1.00
H128   H     0.52519   0.08372   0.37608   0.00000  Uiso   1.00
H129   H     0.13851   0.80331   0.55616   0.00000  Uiso   1.00
O130   O     0.99075   0.25522   0.95411   0.00000  Uiso   1.00
O131   O     0.65029   0.09853   0.60151   0.00000  Uiso   1.00
O132   O     0.14298   0.73064   0.83777   0.00000  Uiso   1.00
N133   N     0.08603   0.18890   0.05563   0.00000  Uiso   1.00
N134   N     0.55603   0.07725   0.80435   0.00000  Uiso   1.00
N135   N     0.19454   0.81509   0.97270   0.00000  Uiso   1.00
N136   N     0.05094   0.19098   0.76279   0.00000  Uiso   1.00
N137   N     0.52095   0.07934   0.51151   0.00000  Uiso   1.00
N138   N     0.15946   0.81717   0.67986   0.00000  Uiso   1.00
C139   C     0.71809   0.52690   0.52998   0.00000  Uiso   1.00
C140   C     0.78066   0.57204   0.57794   0.00000  Uiso   1.00
C141   C     0.81371   0.60885   0.45516   0.00000  Uiso   1.00
C142   C     0.87004   0.64709   0.52612   0.00000  Uiso   1.00
C143   C     0.96376   0.71701   0.57216   0.00000  Uiso   1.00
C144   C     0.65112   0.54129   0.64720   0.00000  Uiso   1.00
C145   C     0.57526   0.55222   0.58263   0.00000  Uiso   1.00
C146   C     0.52255   0.56456   0.71191   0.00000  Uiso   1.00
C147   C     0.41514   0.58668   0.86547   0.00000  Uiso   1.00
C148   C     0.75076   0.46904   0.60079   0.00000  Uiso   1.00
C149   C     0.75866   0.41922   0.49722   0.00000  Uiso   1.00
C150   C     0.78981   0.37072   0.58744   0.00000  Uiso   1.00
C151   C     0.83711   0.28067   0.66895   0.00000  Uiso   1.00
C152   C     0.75935   0.52935   0.87436   0.00000  Uiso   1.00
C153   C     0.80306   0.57338   0.76500   0.00000  Uiso   1.00
C154   C     0.85936   0.61156   0.83618   0.00000  Uiso   1.00
C155   C     0.89250   0.64842   0.71351   0.00000  Uiso   1.00
C156   C     0.67353   0.54262   0.83425   0.00000  Uiso   1.00
C157   C     0.62091   0.55493   0.96365   0.00000  Uiso   1.00
C158   C     0.54499   0.56589   0.89930   0.00000  Uiso   1.00
C159   C     0.77317   0.47037   0.78785   0.00000  Uiso   1.00
C160   C     0.80431   0.42193   0.87824   0.00000  Uiso   1.00
C161   C     0.81226   0.37205   0.77483   0.00000  Uiso   1.00
H162   H     0.70064   0.52586   0.38435   0.00000  Uiso   1.00
H163   H     0.79635   0.60781   0.31041   0.00000  Uiso   1.00
H164   H     0.55794   0.55118   0.43787   0.00000  Uiso   1.00
H165   H     0.74131   0.41821   0.35247   0.00000  Uiso   1.00
H166   H     0.91233   0.69927   0.31093   0.00000  Uiso   1.00
H167   H     0.40961   0.57985   0.57970   0.00000  Uiso   1.00
H168   H     0.79629   0.29944   0.39962   0.00000  Uiso   1.00
H169   H     0.77679   0.53038   0.02000   0.00000  Uiso   1.00
H170   H     0.87669   0.61258   0.98094   0.00000  Uiso   1.00
H171   H     0.63827   0.55596   0.10839   0.00000  Uiso   1.00
H172   H     0.82164   0.42298   0.02299   0.00000  Uiso   1.00
H173   H     0.97753   0.70315   0.85516   0.00000  Uiso   1.00
H174   H     0.47481   0.58372   0.12392   0.00000  Uiso   1.00
H175   H     0.86149   0.30331   0.94384   0.00000  Uiso   1.00
O176   O     0.00925   0.75522   0.54589   0.00000  Uiso   1.00
O177   O     0.34971   0.59853   0.89849   0.00000  Uiso   1.00
O178   O     0.85702   0.23064   0.66223   0.00000  Uiso   1.00
N179   N     0.91397   0.68890   0.44437   0.00000  Uiso   1.00
N180   N     0.44397   0.57725   0.69565   0.00000  Uiso   1.00
N181   N     0.80546   0.31509   0.52730   0.00000  Uiso   1.00
N182   N     0.94906   0.69098   0.73721   0.00000  Uiso   1.00
N183   N     0.47905   0.57934   0.98849   0.00000  Uiso   1.00
N184   N     0.84054   0.31717   0.82014   0.00000  Uiso   1.00
