data_job_06029
_audit_creation_date              2018-12-19
_audit_creation_method            'Materials Studio'
_symmetry_space_group_name_H-M    'P1'
_symmetry_Int_Tables_number       1
_symmetry_cell_setting            triclinic
loop_
_symmetry_equiv_pos_as_xyz
  x,y,z
_cell_length_a                    15.7239
_cell_length_b                    15.7220
_cell_length_c                    15.7196
_cell_angle_alpha                 88.7896
_cell_angle_beta                  88.7800
_cell_angle_gamma                 88.7691
loop_
_atom_site_label
_atom_site_type_symbol
_atom_site_fract_x
_atom_site_fract_y
_atom_site_fract_z
_atom_site_U_iso_or_equiv
_atom_site_adp_type
_atom_site_occupancy
C1     C     0.87043   0.20356   0.53701   0.00000  Uiso   1.00
C2     C     0.84678   0.19634   0.63143   0.00000  Uiso   1.00
C3     C     0.78300   0.14635   0.66689   0.00000  Uiso   1.00
C4     C     0.77131   0.14852   0.75461   0.00000  Uiso   1.00
C5     C     0.72690   0.12969   0.89356   0.00000  Uiso   1.00
C6     C     0.86318   0.29796   0.51337   0.00000  Uiso   1.00
C7     C     0.81318   0.33341   0.44955   0.00000  Uiso   1.00
C8     C     0.81531   0.42113   0.43789   0.00000  Uiso   1.00
C9     C     0.79640   0.56006   0.39351   0.00000  Uiso   1.00
C10    C     0.96484   0.17993   0.52979   0.00000  Uiso   1.00
C11    C     0.00032   0.11615   0.47975   0.00000  Uiso   1.00
C12    C     0.08804   0.10451   0.48189   0.00000  Uiso   1.00
C13    C     0.22697   0.06018   0.46299   0.00000  Uiso   1.00
C14    C     0.96311   0.29631   0.62976   0.00000  Uiso   1.00
C15    C     0.89712   0.24672   0.68181   0.00000  Uiso   1.00
C16    C     0.88553   0.24897   0.76951   0.00000  Uiso   1.00
C17    C     0.82174   0.19899   0.80509   0.00000  Uiso   1.00
C18    C     0.91351   0.34834   0.56375   0.00000  Uiso   1.00
C19    C     0.91572   0.43603   0.55218   0.00000  Uiso   1.00
C20    C     0.86574   0.47160   0.48836   0.00000  Uiso   1.00
C21    C     0.01517   0.23031   0.58017   0.00000  Uiso   1.00
C22    C     0.10285   0.21877   0.58238   0.00000  Uiso   1.00
C23    C     0.13847   0.15498   0.53236   0.00000  Uiso   1.00
H24    H     0.83124   0.16434   0.49778   0.00000  Uiso   1.00
H25    H     0.74405   0.10738   0.62787   0.00000  Uiso   1.00
H26    H     0.77424   0.29441   0.41057   0.00000  Uiso   1.00
H27    H     0.96135   0.07718   0.44077   0.00000  Uiso   1.00
H28    H     0.66956   0.06647   0.79432   0.00000  Uiso   1.00
H29    H     0.73324   0.46083   0.33611   0.00000  Uiso   1.00
H30    H     0.12780   0.00276   0.39979   0.00000  Uiso   1.00
H31    H     0.00230   0.33553   0.66899   0.00000  Uiso   1.00
H32    H     0.92449   0.28796   0.80848   0.00000  Uiso   1.00
H33    H     0.95468   0.47500   0.59117   0.00000  Uiso   1.00
H34    H     0.14179   0.25777   0.62138   0.00000  Uiso   1.00
H35    H     0.81601   0.21304   0.94090   0.00000  Uiso   1.00
H36    H     0.87970   0.60740   0.48269   0.00000  Uiso   1.00
H37    H     0.27425   0.14934   0.54637   0.00000  Uiso   1.00
O38    O     0.68850   0.10539   0.95628   0.00000  Uiso   1.00
O39    O     0.77206   0.62278   0.35511   0.00000  Uiso   1.00
O40    O     0.28970   0.02180   0.43866   0.00000  Uiso   1.00
N41    N     0.71471   0.10748   0.80968   0.00000  Uiso   1.00
N42    N     0.77424   0.47618   0.38128   0.00000  Uiso   1.00
N43    N     0.14312   0.04795   0.44080   0.00000  Uiso   1.00
N44    N     0.79352   0.18635   0.88855   0.00000  Uiso   1.00
N45    N     0.85305   0.55505   0.46016   0.00000  Uiso   1.00
N46    N     0.22193   0.12681   0.51968   0.00000  Uiso   1.00
C47    C     0.53693   0.87037   0.20364   0.00000  Uiso   1.00
C48    C     0.63133   0.84671   0.19641   0.00000  Uiso   1.00
C49    C     0.66678   0.78290   0.14640   0.00000  Uiso   1.00
C50    C     0.75449   0.77120   0.14857   0.00000  Uiso   1.00
C51    C     0.89340   0.72678   0.12971   0.00000  Uiso   1.00
C52    C     0.51329   0.86314   0.29806   0.00000  Uiso   1.00
C53    C     0.44949   0.81315   0.33351   0.00000  Uiso   1.00
C54    C     0.43782   0.81529   0.42125   0.00000  Uiso   1.00
C55    C     0.39344   0.79641   0.56020   0.00000  Uiso   1.00
C56    C     0.52970   0.96478   0.18003   0.00000  Uiso   1.00
C57    C     0.47968   0.00027   0.11625   0.00000  Uiso   1.00
C58    C     0.48181   0.08799   0.10463   0.00000  Uiso   1.00
C59    C     0.46291   0.22694   0.06031   0.00000  Uiso   1.00
C60    C     0.62964   0.96307   0.29642   0.00000  Uiso   1.00
C61    C     0.68168   0.89706   0.24681   0.00000  Uiso   1.00
C62    C     0.76936   0.88546   0.24905   0.00000  Uiso   1.00
C63    C     0.80493   0.82165   0.19904   0.00000  Uiso   1.00
C64    C     0.56364   0.91348   0.34846   0.00000  Uiso   1.00
C65    C     0.55206   0.91570   0.43616   0.00000  Uiso   1.00
C66    C     0.48827   0.86573   0.47173   0.00000  Uiso   1.00
C67    C     0.58005   0.01513   0.23042   0.00000  Uiso   1.00
C68    C     0.58226   0.10282   0.21890   0.00000  Uiso   1.00
C69    C     0.53226   0.13843   0.15511   0.00000  Uiso   1.00
H70    H     0.49772   0.83117   0.16441   0.00000  Uiso   1.00
H71    H     0.62779   0.74394   0.10742   0.00000  Uiso   1.00
H72    H     0.41052   0.77420   0.29450   0.00000  Uiso   1.00
H73    H     0.44072   0.96128   0.07727   0.00000  Uiso   1.00
H74    H     0.79420   0.66942   0.06647   0.00000  Uiso   1.00
H75    H     0.33607   0.73323   0.46094   0.00000  Uiso   1.00
H76    H     0.39973   0.12774   0.00287   0.00000  Uiso   1.00
H77    H     0.66884   0.00227   0.33565   0.00000  Uiso   1.00
H78    H     0.80831   0.92443   0.28805   0.00000  Uiso   1.00
H79    H     0.59104   0.95468   0.47513   0.00000  Uiso   1.00
H80    H     0.62123   0.14177   0.25791   0.00000  Uiso   1.00
H81    H     0.94071   0.81591   0.21309   0.00000  Uiso   1.00
H82    H     0.48258   0.87972   0.60756   0.00000  Uiso   1.00
H83    H     0.54625   0.27423   0.14949   0.00000  Uiso   1.00
O84    O     0.95611   0.68836   0.10540   0.00000  Uiso   1.00
O85    O     0.35504   0.77208   0.62292   0.00000  Uiso   1.00
O86    O     0.43858   0.28967   0.02195   0.00000  Uiso   1.00
N87    N     0.80954   0.71459   0.10750   0.00000  Uiso   1.00
N88    N     0.38122   0.77424   0.47630   0.00000  Uiso   1.00
N89    N     0.44073   0.14307   0.04806   0.00000  Uiso   1.00
N90    N     0.88838   0.79342   0.18639   0.00000  Uiso   1.00
N91    N     0.46006   0.85306   0.55519   0.00000  Uiso   1.00
N92    N     0.51957   0.22190   0.12695   0.00000  Uiso   1.00
C93    C     0.20350   0.53698   0.87029   0.00000  Uiso   1.00
C94    C     0.19627   0.63138   0.84665   0.00000  Uiso   1.00
C95    C     0.14627   0.66684   0.78284   0.00000  Uiso   1.00
C96    C     0.14843   0.75455   0.77116   0.00000  Uiso   1.00
C97    C     0.12957   0.89347   0.72675   0.00000  Uiso   1.00
C98    C     0.29790   0.51332   0.86305   0.00000  Uiso   1.00
C99    C     0.33335   0.44950   0.81304   0.00000  Uiso   1.00
C100   C     0.42107   0.43783   0.81517   0.00000  Uiso   1.00
C101   C     0.55999   0.39342   0.79627   0.00000  Uiso   1.00
C102   C     0.17989   0.52977   0.96472   0.00000  Uiso   1.00
C103   C     0.11613   0.47975   0.00021   0.00000  Uiso   1.00
C104   C     0.10450   0.48190   0.08795   0.00000  Uiso   1.00
C105   C     0.06019   0.46302   0.22691   0.00000  Uiso   1.00
C106   C     0.29624   0.62970   0.96302   0.00000  Uiso   1.00
C107   C     0.24664   0.68175   0.89701   0.00000  Uiso   1.00
C108   C     0.24887   0.76943   0.88542   0.00000  Uiso   1.00
C109   C     0.19889   0.80501   0.82161   0.00000  Uiso   1.00
C110   C     0.34827   0.56369   0.91341   0.00000  Uiso   1.00
C111   C     0.43595   0.55210   0.91562   0.00000  Uiso   1.00
C112   C     0.47153   0.48829   0.86562   0.00000  Uiso   1.00
C113   C     0.23026   0.58013   0.01509   0.00000  Uiso   1.00
C114   C     0.21873   0.58235   0.10279   0.00000  Uiso   1.00
C115   C     0.15496   0.53236   0.13840   0.00000  Uiso   1.00
H116   H     0.16429   0.49776   0.83109   0.00000  Uiso   1.00
H117   H     0.10731   0.62783   0.74387   0.00000  Uiso   1.00
H118   H     0.29436   0.41053   0.77408   0.00000  Uiso   1.00
H119   H     0.07717   0.44078   0.96121   0.00000  Uiso   1.00
H120   H     0.06637   0.79426   0.66938   0.00000  Uiso   1.00
H121   H     0.46077   0.33604   0.73308   0.00000  Uiso   1.00
H122   H     0.00278   0.39983   0.12770   0.00000  Uiso   1.00
H123   H     0.33545   0.66892   0.00223   0.00000  Uiso   1.00
H124   H     0.28786   0.80839   0.92441   0.00000  Uiso   1.00
H125   H     0.47491   0.59109   0.95461   0.00000  Uiso   1.00
H126   H     0.25772   0.62134   0.14174   0.00000  Uiso   1.00
H127   H     0.21291   0.94080   0.81590   0.00000  Uiso   1.00
H128   H     0.60731   0.48259   0.87960   0.00000  Uiso   1.00
H129   H     0.14932   0.54637   0.27422   0.00000  Uiso   1.00
O130   O     0.10526   0.95619   0.68834   0.00000  Uiso   1.00
O131   O     0.62270   0.35502   0.77192   0.00000  Uiso   1.00
O132   O     0.02183   0.43871   0.28965   0.00000  Uiso   1.00
N133   N     0.10737   0.80961   0.71455   0.00000  Uiso   1.00
N134   N     0.47612   0.38121   0.77410   0.00000  Uiso   1.00
N135   N     0.04795   0.44083   0.14303   0.00000  Uiso   1.00
N136   N     0.18623   0.88846   0.79340   0.00000  Uiso   1.00
N137   N     0.55497   0.46007   0.85294   0.00000  Uiso   1.00
N138   N     0.12680   0.51968   0.22188   0.00000  Uiso   1.00
C139   C     0.12957   0.79644   0.46299   0.00000  Uiso   1.00
C140   C     0.15322   0.80366   0.36857   0.00000  Uiso   1.00
C141   C     0.21700   0.85365   0.33311   0.00000  Uiso   1.00
C142   C     0.22869   0.85148   0.24539   0.00000  Uiso   1.00
C143   C     0.27310   0.87031   0.10644   0.00000  Uiso   1.00
C144   C     0.13682   0.70204   0.48663   0.00000  Uiso   1.00
C145   C     0.18682   0.66659   0.55045   0.00000  Uiso   1.00
C146   C     0.18469   0.57887   0.56211   0.00000  Uiso   1.00
C147   C     0.20360   0.43994   0.60649   0.00000  Uiso   1.00
C148   C     0.03516   0.82007   0.47021   0.00000  Uiso   1.00
C149   C     0.99968   0.88385   0.52025   0.00000  Uiso   1.00
C150   C     0.91196   0.89549   0.51810   0.00000  Uiso   1.00
C151   C     0.77303   0.93982   0.53701   0.00000  Uiso   1.00
C152   C     0.03689   0.70369   0.37024   0.00000  Uiso   1.00
C153   C     0.10288   0.75328   0.31819   0.00000  Uiso   1.00
C154   C     0.11447   0.75103   0.23049   0.00000  Uiso   1.00
C155   C     0.17826   0.80101   0.19491   0.00000  Uiso   1.00
C156   C     0.08649   0.65166   0.43625   0.00000  Uiso   1.00
C157   C     0.08428   0.56397   0.44782   0.00000  Uiso   1.00
C158   C     0.13426   0.52840   0.51164   0.00000  Uiso   1.00
C159   C     0.98483   0.76969   0.41983   0.00000  Uiso   1.00
C160   C     0.89715   0.78123   0.41762   0.00000  Uiso   1.00
C161   C     0.86153   0.84502   0.46764   0.00000  Uiso   1.00
H162   H     0.16876   0.83566   0.50222   0.00000  Uiso   1.00
H163   H     0.25595   0.89262   0.37213   0.00000  Uiso   1.00
H164   H     0.22576   0.70559   0.58943   0.00000  Uiso   1.00
H165   H     0.03865   0.92282   0.55923   0.00000  Uiso   1.00
H166   H     0.33044   0.93354   0.20568   0.00000  Uiso   1.00
H167   H     0.26676   0.53917   0.66389   0.00000  Uiso   1.00
H168   H     0.87220   0.99724   0.60021   0.00000  Uiso   1.00
H169   H     0.99770   0.66447   0.33101   0.00000  Uiso   1.00
H170   H     0.07551   0.71204   0.19152   0.00000  Uiso   1.00
H171   H     0.04532   0.52500   0.40883   0.00000  Uiso   1.00
H172   H     0.85821   0.74223   0.37862   0.00000  Uiso   1.00
H173   H     0.18399   0.78696   0.05910   0.00000  Uiso   1.00
H174   H     0.12030   0.39260   0.51731   0.00000  Uiso   1.00
H175   H     0.72575   0.85066   0.45363   0.00000  Uiso   1.00
O176   O     0.31150   0.89461   0.04372   0.00000  Uiso   1.00
O177   O     0.22794   0.37722   0.64489   0.00000  Uiso   1.00
O178   O     0.71030   0.97820   0.56134   0.00000  Uiso   1.00
N179   N     0.28529   0.89252   0.19032   0.00000  Uiso   1.00
N180   N     0.22576   0.52382   0.61872   0.00000  Uiso   1.00
N181   N     0.85688   0.95206   0.55920   0.00000  Uiso   1.00
N182   N     0.20648   0.81365   0.11145   0.00000  Uiso   1.00
N183   N     0.14695   0.44495   0.53984   0.00000  Uiso   1.00
N184   N     0.77807   0.87319   0.48032   0.00000  Uiso   1.00
C185   C     0.46307   0.12963   0.79636   0.00000  Uiso   1.00
C186   C     0.36867   0.15329   0.80359   0.00000  Uiso   1.00
C187   C     0.33322   0.21710   0.85360   0.00000  Uiso   1.00
C188   C     0.24551   0.22880   0.85143   0.00000  Uiso   1.00
C189   C     0.10660   0.27322   0.87029   0.00000  Uiso   1.00
C190   C     0.48671   0.13686   0.70194   0.00000  Uiso   1.00
C191   C     0.55051   0.18685   0.66649   0.00000  Uiso   1.00
C192   C     0.56218   0.18471   0.57875   0.00000  Uiso   1.00
C193   C     0.60656   0.20359   0.43980   0.00000  Uiso   1.00
C194   C     0.47030   0.03522   0.81997   0.00000  Uiso   1.00
C195   C     0.52032   0.99973   0.88375   0.00000  Uiso   1.00
C196   C     0.51819   0.91201   0.89537   0.00000  Uiso   1.00
C197   C     0.53709   0.77306   0.93969   0.00000  Uiso   1.00
C198   C     0.37036   0.03693   0.70358   0.00000  Uiso   1.00
C199   C     0.31832   0.10294   0.75319   0.00000  Uiso   1.00
C200   C     0.23064   0.11454   0.75095   0.00000  Uiso   1.00
C201   C     0.19507   0.17835   0.80095   0.00000  Uiso   1.00
C202   C     0.43636   0.08652   0.65154   0.00000  Uiso   1.00
C203   C     0.44794   0.08430   0.56384   0.00000  Uiso   1.00
C204   C     0.51173   0.13427   0.52827   0.00000  Uiso   1.00
C205   C     0.41995   0.98487   0.76958   0.00000  Uiso   1.00
C206   C     0.41774   0.89718   0.78110   0.00000  Uiso   1.00
C207   C     0.46774   0.86157   0.84489   0.00000  Uiso   1.00
H208   H     0.50228   0.16883   0.83559   0.00000  Uiso   1.00
H209   H     0.37221   0.25606   0.89258   0.00000  Uiso   1.00
H210   H     0.58948   0.22580   0.70550   0.00000  Uiso   1.00
H211   H     0.55928   0.03872   0.92273   0.00000  Uiso   1.00
H212   H     0.20580   0.33058   0.93353   0.00000  Uiso   1.00
H213   H     0.66393   0.26677   0.53906   0.00000  Uiso   1.00
H214   H     0.60027   0.87226   0.99713   0.00000  Uiso   1.00
H215   H     0.33116   0.99773   0.66435   0.00000  Uiso   1.00
H216   H     0.19169   0.07557   0.71195   0.00000  Uiso   1.00
H217   H     0.40896   0.04532   0.52487   0.00000  Uiso   1.00
H218   H     0.37877   0.85823   0.74209   0.00000  Uiso   1.00
H219   H     0.05929   0.18409   0.78691   0.00000  Uiso   1.00
H220   H     0.51742   0.12028   0.39244   0.00000  Uiso   1.00
H221   H     0.45375   0.72577   0.85051   0.00000  Uiso   1.00
O222   O     0.04389   0.31164   0.89460   0.00000  Uiso   1.00
O223   O     0.64496   0.22792   0.37708   0.00000  Uiso   1.00
O224   O     0.56142   0.71033   0.97805   0.00000  Uiso   1.00
N225   N     0.19046   0.28541   0.89250   0.00000  Uiso   1.00
N226   N     0.61878   0.22576   0.52370   0.00000  Uiso   1.00
N227   N     0.55927   0.85693   0.95194   0.00000  Uiso   1.00
N228   N     0.11162   0.20658   0.81361   0.00000  Uiso   1.00
N229   N     0.53994   0.14694   0.44481   0.00000  Uiso   1.00
N230   N     0.48043   0.77810   0.87305   0.00000  Uiso   1.00
C231   C     0.79650   0.46302   0.12971   0.00000  Uiso   1.00
C232   C     0.80373   0.36862   0.15335   0.00000  Uiso   1.00
C233   C     0.85373   0.33316   0.21716   0.00000  Uiso   1.00
C234   C     0.85157   0.24545   0.22884   0.00000  Uiso   1.00
C235   C     0.87043   0.10653   0.27325   0.00000  Uiso   1.00
C236   C     0.70210   0.48668   0.13695   0.00000  Uiso   1.00
C237   C     0.66665   0.55050   0.18696   0.00000  Uiso   1.00
C238   C     0.57893   0.56217   0.18483   0.00000  Uiso   1.00
C239   C     0.44001   0.60658   0.20373   0.00000  Uiso   1.00
C240   C     0.82011   0.47023   0.03528   0.00000  Uiso   1.00
C241   C     0.88387   0.52025   0.99979   0.00000  Uiso   1.00
C242   C     0.89550   0.51810   0.91205   0.00000  Uiso   1.00
C243   C     0.93981   0.53698   0.77309   0.00000  Uiso   1.00
C244   C     0.70376   0.37030   0.03698   0.00000  Uiso   1.00
C245   C     0.75336   0.31825   0.10299   0.00000  Uiso   1.00
C246   C     0.75113   0.23057   0.11458   0.00000  Uiso   1.00
C247   C     0.80111   0.19499   0.17839   0.00000  Uiso   1.00
C248   C     0.65173   0.43631   0.08659   0.00000  Uiso   1.00
C249   C     0.56405   0.44790   0.08438   0.00000  Uiso   1.00
C250   C     0.52847   0.51171   0.13438   0.00000  Uiso   1.00
C251   C     0.76974   0.41987   0.98491   0.00000  Uiso   1.00
C252   C     0.78127   0.41765   0.89721   0.00000  Uiso   1.00
C253   C     0.84504   0.46764   0.86160   0.00000  Uiso   1.00
H254   H     0.83571   0.50224   0.16891   0.00000  Uiso   1.00
H255   H     0.89269   0.37217   0.25613   0.00000  Uiso   1.00
H256   H     0.70564   0.58947   0.22592   0.00000  Uiso   1.00
H257   H     0.92283   0.55922   0.03879   0.00000  Uiso   1.00
H258   H     0.93363   0.20574   0.33062   0.00000  Uiso   1.00
H259   H     0.53923   0.66396   0.26692   0.00000  Uiso   1.00
H260   H     0.99722   0.60017   0.87231   0.00000  Uiso   1.00
H261   H     0.66455   0.33108   0.99777   0.00000  Uiso   1.00
H262   H     0.71214   0.19161   0.07559   0.00000  Uiso   1.00
H263   H     0.52509   0.40891   0.04539   0.00000  Uiso   1.00
H264   H     0.74228   0.37866   0.85826   0.00000  Uiso   1.00
H265   H     0.78709   0.05920   0.18410   0.00000  Uiso   1.00
H266   H     0.39269   0.51741   0.12040   0.00000  Uiso   1.00
H267   H     0.85068   0.45363   0.72578   0.00000  Uiso   1.00
O268   O     0.89474   0.04381   0.31166   0.00000  Uiso   1.00
O269   O     0.37730   0.64498   0.22808   0.00000  Uiso   1.00
O270   O     0.97817   0.56129   0.71035   0.00000  Uiso   1.00
N271   N     0.89263   0.19039   0.28545   0.00000  Uiso   1.00
N272   N     0.52388   0.61879   0.22590   0.00000  Uiso   1.00
N273   N     0.95205   0.55917   0.85697   0.00000  Uiso   1.00
N274   N     0.81377   0.11154   0.20660   0.00000  Uiso   1.00
N275   N     0.44503   0.53993   0.14706   0.00000  Uiso   1.00
N276   N     0.87320   0.48032   0.77812   0.00000  Uiso   1.00
