data_job_05271
_audit_creation_date              2018-12-19
_audit_creation_method            'Materials Studio'
_symmetry_space_group_name_H-M    'P1'
_symmetry_Int_Tables_number       1
_symmetry_cell_setting            triclinic
loop_
_symmetry_equiv_pos_as_xyz
  x,y,z
_cell_length_a                    14.1926
_cell_length_b                    25.5567
_cell_length_c                    13.8247
_cell_angle_alpha                 90.0000
_cell_angle_beta                  90.0000
_cell_angle_gamma                 90.0000
loop_
_atom_site_label
_atom_site_type_symbol
_atom_site_fract_x
_atom_site_fract_y
_atom_site_fract_z
_atom_site_U_iso_or_equiv
_atom_site_adp_type
_atom_site_occupancy
C1     C     0.00411   0.81025   0.00280   0.00000  Uiso   1.00
C2     C     0.03211   0.85644   0.93916   0.00000  Uiso   1.00
C3     C     0.00420   0.86429   0.84406   0.00000  Uiso   1.00
C4     C     0.03743   0.90898   0.79828   0.00000  Uiso   1.00
C5     C     0.07197   0.97528   0.69220   0.00000  Uiso   1.00
C6     C     0.09608   0.78540   0.03661   0.00000  Uiso   1.00
C7     C     0.12192   0.73351   0.02345   0.00000  Uiso   1.00
C8     C     0.20900   0.71840   0.05971   0.00000  Uiso   1.00
C9     C     0.34281   0.67440   0.10498   0.00000  Uiso   1.00
C10    C     0.95863   0.83374   0.09280   0.00000  Uiso   1.00
C11    C     0.86892   0.82249   0.12691   0.00000  Uiso   1.00
C12    C     0.84028   0.84807   0.21049   0.00000  Uiso   1.00
C13    C     0.76068   0.87912   0.34301   0.00000  Uiso   1.00
C14    C     0.11278   0.87567   0.09062   0.00000  Uiso   1.00
C15    C     0.09114   0.89197   0.98687   0.00000  Uiso   1.00
C16    C     0.12443   0.93667   0.94122   0.00000  Uiso   1.00
C17    C     0.09656   0.94458   0.84606   0.00000  Uiso   1.00
C18    C     0.15510   0.82093   0.08431   0.00000  Uiso   1.00
C19    C     0.24215   0.80589   0.12061   0.00000  Uiso   1.00
C20    C     0.26813   0.75399   0.10750   0.00000  Uiso   1.00
C21    C     0.01765   0.86927   0.14050   0.00000  Uiso   1.00
C22    C     0.98915   0.89487   0.22406   0.00000  Uiso   1.00
C23    C     0.89941   0.88366   0.25828   0.00000  Uiso   1.00
H24    H     0.95816   0.78259   0.96567   0.00000  Uiso   1.00
H25    H     0.95852   0.83678   0.80717   0.00000  Uiso   1.00
H26    H     0.07623   0.70602   0.98654   0.00000  Uiso   1.00
H27    H     0.82326   0.79499   0.08997   0.00000  Uiso   1.00
H28    H     0.98498   0.91252   0.65247   0.00000  Uiso   1.00
H29    H     0.23315   0.63681   0.03071   0.00000  Uiso   1.00
H30    H     0.69972   0.82441   0.24883   0.00000  Uiso   1.00
H31    H     0.15874   0.90333   0.12776   0.00000  Uiso   1.00
H32    H     0.17011   0.96415   0.97815   0.00000  Uiso   1.00
H33    H     0.28781   0.83339   0.15752   0.00000  Uiso   1.00
H34    H     0.03484   0.92236   0.26095   0.00000  Uiso   1.00
H35    H     0.15671   0.01590   0.79124   0.00000  Uiso   1.00
H36    H     0.40488   0.74019   0.16949   0.00000  Uiso   1.00
H37    H     0.87145   0.92779   0.38760   0.00000  Uiso   1.00
O38    O     0.07473   0.00204   0.62050   0.00000  Uiso   1.00
O39    O     0.40031   0.64031   0.11676   0.00000  Uiso   1.00
O40    O     0.70046   0.88644   0.40291   0.00000  Uiso   1.00
N41    N     0.02382   0.92851   0.70567   0.00000  Uiso   1.00
N42    N     0.25585   0.67074   0.05929   0.00000  Uiso   1.00
N43    N     0.75715   0.84612   0.26322   0.00000  Uiso   1.00
N44    N     0.11623   0.98414   0.78034   0.00000  Uiso   1.00
N45    N     0.34826   0.72637   0.13396   0.00000  Uiso   1.00
N46    N     0.84956   0.90175   0.33789   0.00000  Uiso   1.00
C47    C     0.49589   0.18975   0.00280   0.00000  Uiso   1.00
C48    C     0.46789   0.14356   0.93916   0.00000  Uiso   1.00
C49    C     0.49580   0.13571   0.84406   0.00000  Uiso   1.00
C50    C     0.46257   0.09102   0.79828   0.00000  Uiso   1.00
C51    C     0.42803   0.02472   0.69220   0.00000  Uiso   1.00
C52    C     0.40392   0.21460   0.03661   0.00000  Uiso   1.00
C53    C     0.37808   0.26649   0.02345   0.00000  Uiso   1.00
C54    C     0.29100   0.28160   0.05971   0.00000  Uiso   1.00
C55    C     0.15719   0.32560   0.10498   0.00000  Uiso   1.00
C56    C     0.54137   0.16626   0.09280   0.00000  Uiso   1.00
C57    C     0.63108   0.17751   0.12691   0.00000  Uiso   1.00
C58    C     0.65972   0.15193   0.21049   0.00000  Uiso   1.00
C59    C     0.73932   0.12088   0.34301   0.00000  Uiso   1.00
C60    C     0.38722   0.12433   0.09062   0.00000  Uiso   1.00
C61    C     0.40886   0.10803   0.98687   0.00000  Uiso   1.00
C62    C     0.37557   0.06333   0.94122   0.00000  Uiso   1.00
C63    C     0.40344   0.05542   0.84606   0.00000  Uiso   1.00
C64    C     0.34490   0.17907   0.08431   0.00000  Uiso   1.00
C65    C     0.25785   0.19411   0.12061   0.00000  Uiso   1.00
C66    C     0.23187   0.24601   0.10750   0.00000  Uiso   1.00
C67    C     0.48235   0.13073   0.14050   0.00000  Uiso   1.00
C68    C     0.51085   0.10513   0.22406   0.00000  Uiso   1.00
C69    C     0.60059   0.11634   0.25828   0.00000  Uiso   1.00
H70    H     0.54184   0.21741   0.96567   0.00000  Uiso   1.00
H71    H     0.54148   0.16322   0.80717   0.00000  Uiso   1.00
H72    H     0.42377   0.29398   0.98654   0.00000  Uiso   1.00
H73    H     0.67674   0.20501   0.08997   0.00000  Uiso   1.00
H74    H     0.51502   0.08748   0.65247   0.00000  Uiso   1.00
H75    H     0.26685   0.36319   0.03071   0.00000  Uiso   1.00
H76    H     0.80028   0.17559   0.24883   0.00000  Uiso   1.00
H77    H     0.34126   0.09667   0.12776   0.00000  Uiso   1.00
H78    H     0.32989   0.03585   0.97815   0.00000  Uiso   1.00
H79    H     0.21219   0.16661   0.15752   0.00000  Uiso   1.00
H80    H     0.46516   0.07764   0.26095   0.00000  Uiso   1.00
H81    H     0.34329   0.98410   0.79124   0.00000  Uiso   1.00
H82    H     0.09512   0.25981   0.16949   0.00000  Uiso   1.00
H83    H     0.62855   0.07221   0.38760   0.00000  Uiso   1.00
O84    O     0.42527   0.99796   0.62050   0.00000  Uiso   1.00
O85    O     0.09969   0.35969   0.11676   0.00000  Uiso   1.00
O86    O     0.79954   0.11356   0.40291   0.00000  Uiso   1.00
N87    N     0.47618   0.07149   0.70567   0.00000  Uiso   1.00
N88    N     0.24415   0.32926   0.05929   0.00000  Uiso   1.00
N89    N     0.74285   0.15388   0.26322   0.00000  Uiso   1.00
N90    N     0.38377   0.01586   0.78034   0.00000  Uiso   1.00
N91    N     0.15174   0.27363   0.13396   0.00000  Uiso   1.00
N92    N     0.65044   0.09825   0.33789   0.00000  Uiso   1.00
C93    C     0.49589   0.31025   0.49720   0.00000  Uiso   1.00
C94    C     0.46789   0.35644   0.56084   0.00000  Uiso   1.00
C95    C     0.49580   0.36429   0.65594   0.00000  Uiso   1.00
C96    C     0.46257   0.40898   0.70172   0.00000  Uiso   1.00
C97    C     0.42803   0.47528   0.80780   0.00000  Uiso   1.00
C98    C     0.40392   0.28540   0.46339   0.00000  Uiso   1.00
C99    C     0.37808   0.23351   0.47655   0.00000  Uiso   1.00
C100   C     0.29100   0.21840   0.44029   0.00000  Uiso   1.00
C101   C     0.15719   0.17440   0.39502   0.00000  Uiso   1.00
C102   C     0.54137   0.33374   0.40720   0.00000  Uiso   1.00
C103   C     0.63108   0.32249   0.37309   0.00000  Uiso   1.00
C104   C     0.65972   0.34807   0.28951   0.00000  Uiso   1.00
C105   C     0.73932   0.37912   0.15699   0.00000  Uiso   1.00
C106   C     0.38722   0.37567   0.40938   0.00000  Uiso   1.00
C107   C     0.40886   0.39197   0.51313   0.00000  Uiso   1.00
C108   C     0.37557   0.43667   0.55878   0.00000  Uiso   1.00
C109   C     0.40344   0.44458   0.65394   0.00000  Uiso   1.00
C110   C     0.34490   0.32093   0.41569   0.00000  Uiso   1.00
C111   C     0.25785   0.30589   0.37939   0.00000  Uiso   1.00
C112   C     0.23187   0.25399   0.39250   0.00000  Uiso   1.00
C113   C     0.48235   0.36927   0.35950   0.00000  Uiso   1.00
C114   C     0.51085   0.39487   0.27594   0.00000  Uiso   1.00
C115   C     0.60059   0.38366   0.24172   0.00000  Uiso   1.00
H116   H     0.54184   0.28259   0.53433   0.00000  Uiso   1.00
H117   H     0.54148   0.33678   0.69283   0.00000  Uiso   1.00
H118   H     0.42377   0.20602   0.51346   0.00000  Uiso   1.00
H119   H     0.67674   0.29499   0.41003   0.00000  Uiso   1.00
H120   H     0.51502   0.41252   0.84753   0.00000  Uiso   1.00
H121   H     0.26685   0.13681   0.46929   0.00000  Uiso   1.00
H122   H     0.80028   0.32441   0.25117   0.00000  Uiso   1.00
H123   H     0.34126   0.40333   0.37224   0.00000  Uiso   1.00
H124   H     0.32989   0.46415   0.52185   0.00000  Uiso   1.00
H125   H     0.21219   0.33339   0.34248   0.00000  Uiso   1.00
H126   H     0.46516   0.42236   0.23905   0.00000  Uiso   1.00
H127   H     0.34329   0.51590   0.70876   0.00000  Uiso   1.00
H128   H     0.09512   0.24019   0.33051   0.00000  Uiso   1.00
H129   H     0.62855   0.42779   0.11240   0.00000  Uiso   1.00
O130   O     0.42527   0.50204   0.87950   0.00000  Uiso   1.00
O131   O     0.09969   0.14031   0.38324   0.00000  Uiso   1.00
O132   O     0.79954   0.38644   0.09709   0.00000  Uiso   1.00
N133   N     0.47618   0.42851   0.79433   0.00000  Uiso   1.00
N134   N     0.24415   0.17074   0.44071   0.00000  Uiso   1.00
N135   N     0.74285   0.34612   0.23678   0.00000  Uiso   1.00
N136   N     0.38377   0.48414   0.71966   0.00000  Uiso   1.00
N137   N     0.15174   0.22637   0.36604   0.00000  Uiso   1.00
N138   N     0.65044   0.40175   0.16211   0.00000  Uiso   1.00
C139   C     0.00411   0.68975   0.49720   0.00000  Uiso   1.00
C140   C     0.03211   0.64356   0.56084   0.00000  Uiso   1.00
C141   C     0.00420   0.63571   0.65594   0.00000  Uiso   1.00
C142   C     0.03743   0.59102   0.70172   0.00000  Uiso   1.00
C143   C     0.07197   0.52472   0.80780   0.00000  Uiso   1.00
C144   C     0.09608   0.71460   0.46339   0.00000  Uiso   1.00
C145   C     0.12192   0.76649   0.47655   0.00000  Uiso   1.00
C146   C     0.20900   0.78160   0.44029   0.00000  Uiso   1.00
C147   C     0.34281   0.82560   0.39502   0.00000  Uiso   1.00
C148   C     0.95863   0.66626   0.40720   0.00000  Uiso   1.00
C149   C     0.86892   0.67751   0.37309   0.00000  Uiso   1.00
C150   C     0.84028   0.65193   0.28951   0.00000  Uiso   1.00
C151   C     0.76068   0.62088   0.15699   0.00000  Uiso   1.00
C152   C     0.11278   0.62433   0.40938   0.00000  Uiso   1.00
C153   C     0.09114   0.60803   0.51313   0.00000  Uiso   1.00
C154   C     0.12443   0.56333   0.55878   0.00000  Uiso   1.00
C155   C     0.09656   0.55542   0.65394   0.00000  Uiso   1.00
C156   C     0.15510   0.67907   0.41569   0.00000  Uiso   1.00
C157   C     0.24215   0.69411   0.37939   0.00000  Uiso   1.00
C158   C     0.26813   0.74601   0.39250   0.00000  Uiso   1.00
C159   C     0.01765   0.63073   0.35950   0.00000  Uiso   1.00
C160   C     0.98915   0.60513   0.27594   0.00000  Uiso   1.00
C161   C     0.89941   0.61634   0.24172   0.00000  Uiso   1.00
H162   H     0.95816   0.71741   0.53433   0.00000  Uiso   1.00
H163   H     0.95852   0.66322   0.69283   0.00000  Uiso   1.00
H164   H     0.07623   0.79398   0.51346   0.00000  Uiso   1.00
H165   H     0.82326   0.70501   0.41003   0.00000  Uiso   1.00
H166   H     0.98498   0.58748   0.84753   0.00000  Uiso   1.00
H167   H     0.23315   0.86319   0.46929   0.00000  Uiso   1.00
H168   H     0.69972   0.67559   0.25117   0.00000  Uiso   1.00
H169   H     0.15874   0.59667   0.37224   0.00000  Uiso   1.00
H170   H     0.17011   0.53585   0.52185   0.00000  Uiso   1.00
H171   H     0.28781   0.66661   0.34248   0.00000  Uiso   1.00
H172   H     0.03484   0.57764   0.23905   0.00000  Uiso   1.00
H173   H     0.15671   0.48410   0.70876   0.00000  Uiso   1.00
H174   H     0.40488   0.75981   0.33051   0.00000  Uiso   1.00
H175   H     0.87145   0.57221   0.11240   0.00000  Uiso   1.00
O176   O     0.07473   0.49796   0.87950   0.00000  Uiso   1.00
O177   O     0.40031   0.85969   0.38324   0.00000  Uiso   1.00
O178   O     0.70046   0.61356   0.09709   0.00000  Uiso   1.00
N179   N     0.02382   0.57149   0.79433   0.00000  Uiso   1.00
N180   N     0.25585   0.82926   0.44071   0.00000  Uiso   1.00
N181   N     0.75715   0.65388   0.23678   0.00000  Uiso   1.00
N182   N     0.11623   0.51586   0.71966   0.00000  Uiso   1.00
N183   N     0.34826   0.77363   0.36604   0.00000  Uiso   1.00
N184   N     0.84956   0.59825   0.16211   0.00000  Uiso   1.00
C185   C     0.99589   0.18975   0.99720   0.00000  Uiso   1.00
C186   C     0.96789   0.14356   0.06084   0.00000  Uiso   1.00
C187   C     0.99580   0.13571   0.15594   0.00000  Uiso   1.00
C188   C     0.96257   0.09102   0.20172   0.00000  Uiso   1.00
C189   C     0.92803   0.02472   0.30780   0.00000  Uiso   1.00
C190   C     0.90392   0.21460   0.96339   0.00000  Uiso   1.00
C191   C     0.87808   0.26649   0.97655   0.00000  Uiso   1.00
C192   C     0.79100   0.28160   0.94029   0.00000  Uiso   1.00
C193   C     0.65719   0.32560   0.89502   0.00000  Uiso   1.00
C194   C     0.04137   0.16626   0.90720   0.00000  Uiso   1.00
C195   C     0.13108   0.17751   0.87309   0.00000  Uiso   1.00
C196   C     0.15972   0.15193   0.78951   0.00000  Uiso   1.00
C197   C     0.23932   0.12088   0.65699   0.00000  Uiso   1.00
C198   C     0.88722   0.12433   0.90938   0.00000  Uiso   1.00
C199   C     0.90886   0.10803   0.01313   0.00000  Uiso   1.00
C200   C     0.87557   0.06333   0.05878   0.00000  Uiso   1.00
C201   C     0.90344   0.05542   0.15394   0.00000  Uiso   1.00
C202   C     0.84490   0.17907   0.91569   0.00000  Uiso   1.00
C203   C     0.75785   0.19411   0.87939   0.00000  Uiso   1.00
C204   C     0.73187   0.24601   0.89250   0.00000  Uiso   1.00
C205   C     0.98235   0.13073   0.85950   0.00000  Uiso   1.00
C206   C     0.01085   0.10513   0.77594   0.00000  Uiso   1.00
C207   C     0.10059   0.11634   0.74172   0.00000  Uiso   1.00
H208   H     0.04184   0.21741   0.03433   0.00000  Uiso   1.00
H209   H     0.04148   0.16322   0.19283   0.00000  Uiso   1.00
H210   H     0.92377   0.29398   0.01346   0.00000  Uiso   1.00
H211   H     0.17674   0.20501   0.91003   0.00000  Uiso   1.00
H212   H     0.01502   0.08748   0.34753   0.00000  Uiso   1.00
H213   H     0.76685   0.36319   0.96929   0.00000  Uiso   1.00
H214   H     0.30028   0.17559   0.75117   0.00000  Uiso   1.00
H215   H     0.84126   0.09667   0.87224   0.00000  Uiso   1.00
H216   H     0.82989   0.03585   0.02185   0.00000  Uiso   1.00
H217   H     0.71219   0.16661   0.84248   0.00000  Uiso   1.00
H218   H     0.96516   0.07764   0.73905   0.00000  Uiso   1.00
H219   H     0.84329   0.98410   0.20876   0.00000  Uiso   1.00
H220   H     0.59512   0.25981   0.83051   0.00000  Uiso   1.00
H221   H     0.12855   0.07221   0.61240   0.00000  Uiso   1.00
O222   O     0.92527   0.99796   0.37950   0.00000  Uiso   1.00
O223   O     0.59969   0.35969   0.88324   0.00000  Uiso   1.00
O224   O     0.29954   0.11356   0.59709   0.00000  Uiso   1.00
N225   N     0.97618   0.07149   0.29433   0.00000  Uiso   1.00
N226   N     0.74415   0.32926   0.94071   0.00000  Uiso   1.00
N227   N     0.24285   0.15388   0.73678   0.00000  Uiso   1.00
N228   N     0.88377   0.01586   0.21966   0.00000  Uiso   1.00
N229   N     0.65174   0.27363   0.86604   0.00000  Uiso   1.00
N230   N     0.15044   0.09825   0.66211   0.00000  Uiso   1.00
C231   C     0.50411   0.81025   0.99720   0.00000  Uiso   1.00
C232   C     0.53211   0.85644   0.06084   0.00000  Uiso   1.00
C233   C     0.50420   0.86429   0.15594   0.00000  Uiso   1.00
C234   C     0.53743   0.90898   0.20172   0.00000  Uiso   1.00
C235   C     0.57197   0.97528   0.30780   0.00000  Uiso   1.00
C236   C     0.59608   0.78540   0.96339   0.00000  Uiso   1.00
C237   C     0.62192   0.73351   0.97655   0.00000  Uiso   1.00
C238   C     0.70900   0.71840   0.94029   0.00000  Uiso   1.00
C239   C     0.84281   0.67440   0.89502   0.00000  Uiso   1.00
C240   C     0.45863   0.83374   0.90720   0.00000  Uiso   1.00
C241   C     0.36892   0.82249   0.87309   0.00000  Uiso   1.00
C242   C     0.34028   0.84807   0.78951   0.00000  Uiso   1.00
C243   C     0.26068   0.87912   0.65699   0.00000  Uiso   1.00
C244   C     0.61278   0.87567   0.90938   0.00000  Uiso   1.00
C245   C     0.59114   0.89197   0.01313   0.00000  Uiso   1.00
C246   C     0.62443   0.93667   0.05878   0.00000  Uiso   1.00
C247   C     0.59656   0.94458   0.15394   0.00000  Uiso   1.00
C248   C     0.65510   0.82093   0.91569   0.00000  Uiso   1.00
C249   C     0.74215   0.80589   0.87939   0.00000  Uiso   1.00
C250   C     0.76813   0.75399   0.89250   0.00000  Uiso   1.00
C251   C     0.51765   0.86927   0.85950   0.00000  Uiso   1.00
C252   C     0.48915   0.89487   0.77594   0.00000  Uiso   1.00
C253   C     0.39941   0.88366   0.74172   0.00000  Uiso   1.00
H254   H     0.45816   0.78259   0.03433   0.00000  Uiso   1.00
H255   H     0.45852   0.83678   0.19283   0.00000  Uiso   1.00
H256   H     0.57623   0.70602   0.01346   0.00000  Uiso   1.00
H257   H     0.32326   0.79499   0.91003   0.00000  Uiso   1.00
H258   H     0.48498   0.91252   0.34753   0.00000  Uiso   1.00
H259   H     0.73315   0.63681   0.96929   0.00000  Uiso   1.00
H260   H     0.19972   0.82441   0.75117   0.00000  Uiso   1.00
H261   H     0.65874   0.90333   0.87224   0.00000  Uiso   1.00
H262   H     0.67011   0.96415   0.02185   0.00000  Uiso   1.00
H263   H     0.78781   0.83339   0.84248   0.00000  Uiso   1.00
H264   H     0.53484   0.92236   0.73905   0.00000  Uiso   1.00
H265   H     0.65671   0.01590   0.20876   0.00000  Uiso   1.00
H266   H     0.90488   0.74019   0.83051   0.00000  Uiso   1.00
H267   H     0.37145   0.92779   0.61240   0.00000  Uiso   1.00
O268   O     0.57473   0.00204   0.37950   0.00000  Uiso   1.00
O269   O     0.90031   0.64031   0.88324   0.00000  Uiso   1.00
O270   O     0.20046   0.88644   0.59709   0.00000  Uiso   1.00
N271   N     0.52382   0.92851   0.29433   0.00000  Uiso   1.00
N272   N     0.75585   0.67074   0.94071   0.00000  Uiso   1.00
N273   N     0.25715   0.84612   0.73678   0.00000  Uiso   1.00
N274   N     0.61623   0.98414   0.21966   0.00000  Uiso   1.00
N275   N     0.84826   0.72637   0.86604   0.00000  Uiso   1.00
N276   N     0.34956   0.90175   0.66211   0.00000  Uiso   1.00
C277   C     0.50411   0.68975   0.50280   0.00000  Uiso   1.00
C278   C     0.53211   0.64356   0.43916   0.00000  Uiso   1.00
C279   C     0.50420   0.63571   0.34406   0.00000  Uiso   1.00
C280   C     0.53743   0.59102   0.29828   0.00000  Uiso   1.00
C281   C     0.57197   0.52472   0.19220   0.00000  Uiso   1.00
C282   C     0.59608   0.71460   0.53661   0.00000  Uiso   1.00
C283   C     0.62192   0.76649   0.52345   0.00000  Uiso   1.00
C284   C     0.70900   0.78160   0.55971   0.00000  Uiso   1.00
C285   C     0.84281   0.82560   0.60498   0.00000  Uiso   1.00
C286   C     0.45863   0.66626   0.59280   0.00000  Uiso   1.00
C287   C     0.36892   0.67751   0.62691   0.00000  Uiso   1.00
C288   C     0.34028   0.65193   0.71049   0.00000  Uiso   1.00
C289   C     0.26068   0.62088   0.84301   0.00000  Uiso   1.00
C290   C     0.61278   0.62433   0.59062   0.00000  Uiso   1.00
C291   C     0.59114   0.60803   0.48687   0.00000  Uiso   1.00
C292   C     0.62443   0.56333   0.44122   0.00000  Uiso   1.00
C293   C     0.59656   0.55542   0.34606   0.00000  Uiso   1.00
C294   C     0.65510   0.67907   0.58431   0.00000  Uiso   1.00
C295   C     0.74215   0.69411   0.62061   0.00000  Uiso   1.00
C296   C     0.76813   0.74601   0.60750   0.00000  Uiso   1.00
C297   C     0.51765   0.63073   0.64050   0.00000  Uiso   1.00
C298   C     0.48915   0.60513   0.72406   0.00000  Uiso   1.00
C299   C     0.39941   0.61634   0.75828   0.00000  Uiso   1.00
H300   H     0.45816   0.71741   0.46567   0.00000  Uiso   1.00
H301   H     0.45852   0.66322   0.30717   0.00000  Uiso   1.00
H302   H     0.57623   0.79398   0.48654   0.00000  Uiso   1.00
H303   H     0.32326   0.70501   0.58997   0.00000  Uiso   1.00
H304   H     0.48498   0.58748   0.15247   0.00000  Uiso   1.00
H305   H     0.73315   0.86319   0.53071   0.00000  Uiso   1.00
H306   H     0.19972   0.67559   0.74883   0.00000  Uiso   1.00
H307   H     0.65874   0.59667   0.62776   0.00000  Uiso   1.00
H308   H     0.67011   0.53585   0.47815   0.00000  Uiso   1.00
H309   H     0.78781   0.66661   0.65752   0.00000  Uiso   1.00
H310   H     0.53484   0.57764   0.76095   0.00000  Uiso   1.00
H311   H     0.65671   0.48410   0.29124   0.00000  Uiso   1.00
H312   H     0.90488   0.75981   0.66949   0.00000  Uiso   1.00
H313   H     0.37145   0.57221   0.88760   0.00000  Uiso   1.00
O314   O     0.57473   0.49796   0.12050   0.00000  Uiso   1.00
O315   O     0.90031   0.85969   0.61676   0.00000  Uiso   1.00
O316   O     0.20046   0.61356   0.90291   0.00000  Uiso   1.00
N317   N     0.52382   0.57149   0.20567   0.00000  Uiso   1.00
N318   N     0.75585   0.82926   0.55929   0.00000  Uiso   1.00
N319   N     0.25715   0.65388   0.76322   0.00000  Uiso   1.00
N320   N     0.61623   0.51586   0.28034   0.00000  Uiso   1.00
N321   N     0.84826   0.77363   0.63396   0.00000  Uiso   1.00
N322   N     0.34956   0.59825   0.83789   0.00000  Uiso   1.00
C323   C     0.99589   0.31025   0.50280   0.00000  Uiso   1.00
C324   C     0.96789   0.35644   0.43916   0.00000  Uiso   1.00
C325   C     0.99580   0.36429   0.34406   0.00000  Uiso   1.00
C326   C     0.96257   0.40898   0.29828   0.00000  Uiso   1.00
C327   C     0.92803   0.47528   0.19220   0.00000  Uiso   1.00
C328   C     0.90392   0.28540   0.53661   0.00000  Uiso   1.00
C329   C     0.87808   0.23351   0.52345   0.00000  Uiso   1.00
C330   C     0.79100   0.21840   0.55971   0.00000  Uiso   1.00
C331   C     0.65719   0.17440   0.60498   0.00000  Uiso   1.00
C332   C     0.04137   0.33374   0.59280   0.00000  Uiso   1.00
C333   C     0.13108   0.32249   0.62691   0.00000  Uiso   1.00
C334   C     0.15972   0.34807   0.71049   0.00000  Uiso   1.00
C335   C     0.23932   0.37912   0.84301   0.00000  Uiso   1.00
C336   C     0.88722   0.37567   0.59062   0.00000  Uiso   1.00
C337   C     0.90886   0.39197   0.48687   0.00000  Uiso   1.00
C338   C     0.87557   0.43667   0.44122   0.00000  Uiso   1.00
C339   C     0.90344   0.44458   0.34606   0.00000  Uiso   1.00
C340   C     0.84490   0.32093   0.58431   0.00000  Uiso   1.00
C341   C     0.75785   0.30589   0.62061   0.00000  Uiso   1.00
C342   C     0.73187   0.25399   0.60750   0.00000  Uiso   1.00
C343   C     0.98235   0.36927   0.64050   0.00000  Uiso   1.00
C344   C     0.01085   0.39487   0.72406   0.00000  Uiso   1.00
C345   C     0.10059   0.38366   0.75828   0.00000  Uiso   1.00
H346   H     0.04184   0.28259   0.46567   0.00000  Uiso   1.00
H347   H     0.04148   0.33678   0.30717   0.00000  Uiso   1.00
H348   H     0.92377   0.20602   0.48654   0.00000  Uiso   1.00
H349   H     0.17674   0.29499   0.58997   0.00000  Uiso   1.00
H350   H     0.01502   0.41252   0.15247   0.00000  Uiso   1.00
H351   H     0.76685   0.13681   0.53071   0.00000  Uiso   1.00
H352   H     0.30028   0.32441   0.74883   0.00000  Uiso   1.00
H353   H     0.84126   0.40333   0.62776   0.00000  Uiso   1.00
H354   H     0.82989   0.46415   0.47815   0.00000  Uiso   1.00
H355   H     0.71219   0.33339   0.65752   0.00000  Uiso   1.00
H356   H     0.96516   0.42236   0.76095   0.00000  Uiso   1.00
H357   H     0.84329   0.51590   0.29124   0.00000  Uiso   1.00
H358   H     0.59512   0.24019   0.66949   0.00000  Uiso   1.00
H359   H     0.12855   0.42779   0.88760   0.00000  Uiso   1.00
O360   O     0.92527   0.50204   0.12050   0.00000  Uiso   1.00
O361   O     0.59969   0.14031   0.61676   0.00000  Uiso   1.00
O362   O     0.29954   0.38644   0.90291   0.00000  Uiso   1.00
N363   N     0.97618   0.42851   0.20567   0.00000  Uiso   1.00
N364   N     0.74415   0.17074   0.55929   0.00000  Uiso   1.00
N365   N     0.24285   0.34612   0.76322   0.00000  Uiso   1.00
N366   N     0.88377   0.48414   0.28034   0.00000  Uiso   1.00
N367   N     0.65174   0.22637   0.63396   0.00000  Uiso   1.00
N368   N     0.15044   0.40175   0.83789   0.00000  Uiso   1.00
