data_job_04593
_audit_creation_date              2018-12-19
_audit_creation_method            'Materials Studio'
_symmetry_space_group_name_H-M    'P1'
_symmetry_Int_Tables_number       1
_symmetry_cell_setting            triclinic
loop_
_symmetry_equiv_pos_as_xyz
  x,y,z
_cell_length_a                    16.8140
_cell_length_b                    28.1666
_cell_length_c                    20.9230
_cell_angle_alpha                 90.0000
_cell_angle_beta                  143.3200
_cell_angle_gamma                 90.0000
loop_
_atom_site_label
_atom_site_type_symbol
_atom_site_fract_x
_atom_site_fract_y
_atom_site_fract_z
_atom_site_U_iso_or_equiv
_atom_site_adp_type
_atom_site_occupancy
C1     C     0.22943   0.30816   0.34990   0.00000  Uiso   1.00
C2     C     0.29130   0.29533   0.32551   0.00000  Uiso   1.00
C3     C     0.33120   0.25026   0.33245   0.00000  Uiso   1.00
C4     C     0.38559   0.24588   0.30679   0.00000  Uiso   1.00
C5     C     0.47962   0.21998   0.27375   0.00000  Uiso   1.00
C6     C     0.31778   0.34679   0.43529   0.00000  Uiso   1.00
C7     C     0.37991   0.34499   0.53453   0.00000  Uiso   1.00
C8     C     0.45658   0.38393   0.60128   0.00000  Uiso   1.00
C9     C     0.59162   0.43793   0.73866   0.00000  Uiso   1.00
C10    C     0.09679   0.33196   0.24922   0.00000  Uiso   1.00
C11    C     0.97311   0.31771   0.19201   0.00000  Uiso   1.00
C12    C     0.86371   0.34418   0.10211   0.00000  Uiso   1.00
C13    C     0.65564   0.37516   0.95057   0.00000  Uiso   1.00
C14    C     0.25508   0.38052   0.29197   0.00000  Uiso   1.00
C15    C     0.30524   0.33463   0.29405   0.00000  Uiso   1.00
C16    C     0.35958   0.33032   0.26836   0.00000  Uiso   1.00
C17    C     0.39955   0.28526   0.27526   0.00000  Uiso   1.00
C18    C     0.33172   0.38609   0.40383   0.00000  Uiso   1.00
C19    C     0.40830   0.42505   0.47045   0.00000  Uiso   1.00
C20    C     0.47054   0.42331   0.56977   0.00000  Uiso   1.00
C21    C     0.11072   0.37126   0.21775   0.00000  Uiso   1.00
C22    C     0.00150   0.39776   0.12793   0.00000  Uiso   1.00
C23    C     0.87768   0.38355   0.07059   0.00000  Uiso   1.00
H24    H     0.21858   0.27756   0.37440   0.00000  Uiso   1.00
H25    H     0.32041   0.21985   0.35681   0.00000  Uiso   1.00
H26    H     0.36910   0.31457   0.55885   0.00000  Uiso   1.00
H27    H     0.96236   0.28729   0.21639   0.00000  Uiso   1.00
H28    H     0.43949   0.17321   0.32347   0.00000  Uiso   1.00
H29    H     0.54213   0.37293   0.74948   0.00000  Uiso   1.00
H30    H     0.68444   0.31541   0.02732   0.00000  Uiso   1.00
H31    H     0.26593   0.41112   0.26748   0.00000  Uiso   1.00
H32    H     0.37036   0.36074   0.24402   0.00000  Uiso   1.00
H33    H     0.41906   0.45546   0.44607   0.00000  Uiso   1.00
H34    H     0.01232   0.42818   0.10360   0.00000  Uiso   1.00
H35    H     0.48004   0.28756   0.23193   0.00000  Uiso   1.00
H36    H     0.58267   0.48728   0.65794   0.00000  Uiso   1.00
H37    H     0.72499   0.42976   0.93578   0.00000  Uiso   1.00
O38    O     0.52765   0.19483   0.26423   0.00000  Uiso   1.00
O39    O     0.66228   0.45686   0.82313   0.00000  Uiso   1.00
O40    O     0.53702   0.38139   0.87567   0.00000  Uiso   1.00
N41    N     0.43468   0.20703   0.30512   0.00000  Uiso   1.00
N42    N     0.53066   0.39375   0.70343   0.00000  Uiso   1.00
N43    N     0.72879   0.33998   0.02828   0.00000  Uiso   1.00
N44    N     0.45650   0.26856   0.25587   0.00000  Uiso   1.00
N45    N     0.55247   0.45528   0.65417   0.00000  Uiso   1.00
N46    N     0.75061   0.40151   0.97903   0.00000  Uiso   1.00
C47    C     0.08193   0.19217   0.34800   0.00000  Uiso   1.00
C48    C     0.97147   0.20486   0.32380   0.00000  Uiso   1.00
C49    C     0.94499   0.24990   0.33043   0.00000  Uiso   1.00
C50    C     0.83957   0.25414   0.30503   0.00000  Uiso   1.00
C51    C     0.67968   0.27983   0.27222   0.00000  Uiso   1.00
C52    C     0.16471   0.15370   0.43377   0.00000  Uiso   1.00
C53    C     0.30070   0.15573   0.53286   0.00000  Uiso   1.00
C54    C     0.35794   0.11691   0.60002   0.00000  Uiso   1.00
C55    C     0.49806   0.06317   0.73791   0.00000  Uiso   1.00
C56    C     0.01359   0.16821   0.24742   0.00000  Uiso   1.00
C57    C     0.02254   0.18243   0.18983   0.00000  Uiso   1.00
C58    C     0.95258   0.15581   0.10011   0.00000  Uiso   1.00
C59    C     0.85807   0.12461   0.94866   0.00000  Uiso   1.00
C60    C     0.94179   0.11960   0.29109   0.00000  Uiso   1.00
C61    C     0.89536   0.16544   0.29290   0.00000  Uiso   1.00
C62    C     0.78994   0.16961   0.26747   0.00000  Uiso   1.00
C63    C     0.76331   0.21465   0.27406   0.00000  Uiso   1.00
C64    C     0.08859   0.11429   0.40287   0.00000  Uiso   1.00
C65    C     0.14565   0.07545   0.46990   0.00000  Uiso   1.00
C66    C     0.28168   0.07742   0.56906   0.00000  Uiso   1.00
C67    C     0.93747   0.12880   0.21651   0.00000  Uiso   1.00
C68    C     0.86748   0.10215   0.12687   0.00000  Uiso   1.00
C69    C     0.87632   0.11633   0.06915   0.00000  Uiso   1.00
H70    H     0.14120   0.22285   0.37207   0.00000  Uiso   1.00
H71    H     0.00393   0.28039   0.35437   0.00000  Uiso   1.00
H72    H     0.35958   0.18624   0.55675   0.00000  Uiso   1.00
H73    H     0.08146   0.21294   0.21378   0.00000  Uiso   1.00
H74    H     0.81821   0.32680   0.32115   0.00000  Uiso   1.00
H75    H     0.56811   0.12827   0.74788   0.00000  Uiso   1.00
H76    H     0.98165   0.18456   0.02465   0.00000  Uiso   1.00
H77    H     0.88253   0.08891   0.26703   0.00000  Uiso   1.00
H78    H     0.73106   0.13910   0.24356   0.00000  Uiso   1.00
H79    H     0.08671   0.04495   0.44595   0.00000  Uiso   1.00
H80    H     0.80859   0.07165   0.10297   0.00000  Uiso   1.00
H81    H     0.59674   0.21212   0.23122   0.00000  Uiso   1.00
H82    H     0.34665   0.01359   0.65795   0.00000  Uiso   1.00
H83    H     0.76018   0.06989   0.93472   0.00000  Uiso   1.00
O84    O     0.61253   0.30489   0.26268   0.00000  Uiso   1.00
O85    O     0.59638   0.04442   0.82252   0.00000  Uiso   1.00
O86    O     0.82695   0.11828   0.87366   0.00000  Uiso   1.00
N87    N     0.78685   0.29292   0.30318   0.00000  Uiso   1.00
N88    N     0.48797   0.10731   0.70216   0.00000  Uiso   1.00
N89    N     0.93970   0.15994   0.02602   0.00000  Uiso   1.00
N90    N     0.66768   0.23122   0.25479   0.00000  Uiso   1.00
N91    N     0.36880   0.04561   0.65376   0.00000  Uiso   1.00
N92    N     0.82053   0.09823   0.97762   0.00000  Uiso   1.00
C93    C     0.77057   0.80816   0.15010   0.00000  Uiso   1.00
C94    C     0.70870   0.79533   0.17449   0.00000  Uiso   1.00
C95    C     0.66880   0.75026   0.16755   0.00000  Uiso   1.00
C96    C     0.61441   0.74588   0.19321   0.00000  Uiso   1.00
C97    C     0.52038   0.71998   0.22625   0.00000  Uiso   1.00
C98    C     0.68222   0.84679   0.06471   0.00000  Uiso   1.00
C99    C     0.62009   0.84499   0.96547   0.00000  Uiso   1.00
C100   C     0.54342   0.88393   0.89872   0.00000  Uiso   1.00
C101   C     0.40838   0.93793   0.76134   0.00000  Uiso   1.00
C102   C     0.90321   0.83196   0.25078   0.00000  Uiso   1.00
C103   C     0.02689   0.81771   0.30799   0.00000  Uiso   1.00
C104   C     0.13629   0.84418   0.39789   0.00000  Uiso   1.00
C105   C     0.34436   0.87516   0.54943   0.00000  Uiso   1.00
C106   C     0.74492   0.88052   0.20803   0.00000  Uiso   1.00
C107   C     0.69476   0.83463   0.20595   0.00000  Uiso   1.00
C108   C     0.64042   0.83032   0.23164   0.00000  Uiso   1.00
C109   C     0.60045   0.78526   0.22474   0.00000  Uiso   1.00
C110   C     0.66828   0.88609   0.09617   0.00000  Uiso   1.00
C111   C     0.59170   0.92505   0.02955   0.00000  Uiso   1.00
C112   C     0.52946   0.92331   0.93023   0.00000  Uiso   1.00
C113   C     0.88928   0.87126   0.28225   0.00000  Uiso   1.00
C114   C     0.99850   0.89776   0.37207   0.00000  Uiso   1.00
C115   C     0.12232   0.88355   0.42941   0.00000  Uiso   1.00
H116   H     0.78142   0.77756   0.12560   0.00000  Uiso   1.00
H117   H     0.67959   0.71985   0.14319   0.00000  Uiso   1.00
H118   H     0.63090   0.81457   0.94115   0.00000  Uiso   1.00
H119   H     0.03764   0.78729   0.28361   0.00000  Uiso   1.00
H120   H     0.56051   0.67321   0.17653   0.00000  Uiso   1.00
H121   H     0.45787   0.87293   0.75052   0.00000  Uiso   1.00
H122   H     0.31556   0.81541   0.47268   0.00000  Uiso   1.00
H123   H     0.73407   0.91112   0.23252   0.00000  Uiso   1.00
H124   H     0.62964   0.86074   0.25598   0.00000  Uiso   1.00
H125   H     0.58094   0.95546   0.05393   0.00000  Uiso   1.00
H126   H     0.98768   0.92818   0.39640   0.00000  Uiso   1.00
H127   H     0.51996   0.78756   0.26807   0.00000  Uiso   1.00
H128   H     0.41733   0.98728   0.84206   0.00000  Uiso   1.00
H129   H     0.27501   0.92976   0.56422   0.00000  Uiso   1.00
O130   O     0.47235   0.69483   0.23577   0.00000  Uiso   1.00
O131   O     0.33772   0.95686   0.67687   0.00000  Uiso   1.00
O132   O     0.46298   0.88139   0.62433   0.00000  Uiso   1.00
N133   N     0.56532   0.70703   0.19488   0.00000  Uiso   1.00
N134   N     0.46934   0.89375   0.79657   0.00000  Uiso   1.00
N135   N     0.27121   0.83998   0.47172   0.00000  Uiso   1.00
N136   N     0.54350   0.76856   0.24413   0.00000  Uiso   1.00
N137   N     0.44753   0.95528   0.84583   0.00000  Uiso   1.00
N138   N     0.24939   0.90151   0.52097   0.00000  Uiso   1.00
C139   C     0.91807   0.69217   0.15200   0.00000  Uiso   1.00
C140   C     0.02853   0.70486   0.17620   0.00000  Uiso   1.00
C141   C     0.05501   0.74990   0.16957   0.00000  Uiso   1.00
C142   C     0.16043   0.75414   0.19497   0.00000  Uiso   1.00
C143   C     0.32032   0.77983   0.22778   0.00000  Uiso   1.00
C144   C     0.83529   0.65370   0.06623   0.00000  Uiso   1.00
C145   C     0.69930   0.65573   0.96714   0.00000  Uiso   1.00
C146   C     0.64206   0.61691   0.89998   0.00000  Uiso   1.00
C147   C     0.50194   0.56317   0.76209   0.00000  Uiso   1.00
C148   C     0.98641   0.66821   0.25258   0.00000  Uiso   1.00
C149   C     0.97746   0.68243   0.31017   0.00000  Uiso   1.00
C150   C     0.04742   0.65581   0.39989   0.00000  Uiso   1.00
C151   C     0.14193   0.62461   0.55134   0.00000  Uiso   1.00
C152   C     0.05821   0.61960   0.20891   0.00000  Uiso   1.00
C153   C     0.10464   0.66544   0.20710   0.00000  Uiso   1.00
C154   C     0.21006   0.66961   0.23253   0.00000  Uiso   1.00
C155   C     0.23669   0.71465   0.22594   0.00000  Uiso   1.00
C156   C     0.91141   0.61429   0.09713   0.00000  Uiso   1.00
C157   C     0.85435   0.57545   0.03010   0.00000  Uiso   1.00
C158   C     0.71832   0.57742   0.93094   0.00000  Uiso   1.00
C159   C     0.06253   0.62880   0.28349   0.00000  Uiso   1.00
C160   C     0.13252   0.60215   0.37313   0.00000  Uiso   1.00
C161   C     0.12368   0.61633   0.43085   0.00000  Uiso   1.00
H162   H     0.85880   0.72285   0.12793   0.00000  Uiso   1.00
H163   H     0.99607   0.78039   0.14563   0.00000  Uiso   1.00
H164   H     0.64042   0.68624   0.94325   0.00000  Uiso   1.00
H165   H     0.91854   0.71294   0.28622   0.00000  Uiso   1.00
H166   H     0.18179   0.82680   0.17885   0.00000  Uiso   1.00
H167   H     0.43189   0.62827   0.75212   0.00000  Uiso   1.00
H168   H     0.01835   0.68456   0.47535   0.00000  Uiso   1.00
H169   H     0.11747   0.58891   0.23297   0.00000  Uiso   1.00
H170   H     0.26894   0.63910   0.25644   0.00000  Uiso   1.00
H171   H     0.91329   0.54495   0.05405   0.00000  Uiso   1.00
H172   H     0.19141   0.57165   0.39703   0.00000  Uiso   1.00
H173   H     0.40326   0.71212   0.26878   0.00000  Uiso   1.00
H174   H     0.65335   0.51359   0.84205   0.00000  Uiso   1.00
H175   H     0.23982   0.56989   0.56528   0.00000  Uiso   1.00
O176   O     0.38747   0.80489   0.23732   0.00000  Uiso   1.00
O177   O     0.40362   0.54442   0.67748   0.00000  Uiso   1.00
O178   O     0.17305   0.61828   0.62634   0.00000  Uiso   1.00
N179   N     0.21315   0.79292   0.19682   0.00000  Uiso   1.00
N180   N     0.51203   0.60731   0.79784   0.00000  Uiso   1.00
N181   N     0.06030   0.65994   0.47398   0.00000  Uiso   1.00
N182   N     0.33232   0.73122   0.24521   0.00000  Uiso   1.00
N183   N     0.63120   0.54561   0.84624   0.00000  Uiso   1.00
N184   N     0.17947   0.59823   0.52238   0.00000  Uiso   1.00
C185   C     0.77057   0.69184   0.65010   0.00000  Uiso   1.00
C186   C     0.70870   0.70467   0.67449   0.00000  Uiso   1.00
C187   C     0.66880   0.74974   0.66755   0.00000  Uiso   1.00
C188   C     0.61441   0.75412   0.69321   0.00000  Uiso   1.00
C189   C     0.52038   0.78002   0.72625   0.00000  Uiso   1.00
C190   C     0.68222   0.65321   0.56471   0.00000  Uiso   1.00
C191   C     0.62009   0.65501   0.46547   0.00000  Uiso   1.00
C192   C     0.54342   0.61607   0.39872   0.00000  Uiso   1.00
C193   C     0.40838   0.56207   0.26134   0.00000  Uiso   1.00
C194   C     0.90321   0.66804   0.75078   0.00000  Uiso   1.00
C195   C     0.02689   0.68229   0.80799   0.00000  Uiso   1.00
C196   C     0.13629   0.65582   0.89789   0.00000  Uiso   1.00
C197   C     0.34436   0.62484   0.04943   0.00000  Uiso   1.00
C198   C     0.74492   0.61948   0.70803   0.00000  Uiso   1.00
C199   C     0.69476   0.66537   0.70595   0.00000  Uiso   1.00
C200   C     0.64042   0.66968   0.73164   0.00000  Uiso   1.00
C201   C     0.60045   0.71474   0.72474   0.00000  Uiso   1.00
C202   C     0.66828   0.61391   0.59617   0.00000  Uiso   1.00
C203   C     0.59170   0.57495   0.52955   0.00000  Uiso   1.00
C204   C     0.52946   0.57669   0.43023   0.00000  Uiso   1.00
C205   C     0.88928   0.62874   0.78225   0.00000  Uiso   1.00
C206   C     0.99850   0.60224   0.87207   0.00000  Uiso   1.00
C207   C     0.12232   0.61645   0.92941   0.00000  Uiso   1.00
H208   H     0.78142   0.72244   0.62560   0.00000  Uiso   1.00
H209   H     0.67959   0.78015   0.64319   0.00000  Uiso   1.00
H210   H     0.63090   0.68543   0.44115   0.00000  Uiso   1.00
H211   H     0.03764   0.71271   0.78361   0.00000  Uiso   1.00
H212   H     0.56051   0.82679   0.67653   0.00000  Uiso   1.00
H213   H     0.45787   0.62707   0.25052   0.00000  Uiso   1.00
H214   H     0.31556   0.68459   0.97268   0.00000  Uiso   1.00
H215   H     0.73407   0.58888   0.73252   0.00000  Uiso   1.00
H216   H     0.62964   0.63926   0.75598   0.00000  Uiso   1.00
H217   H     0.58094   0.54454   0.55393   0.00000  Uiso   1.00
H218   H     0.98768   0.57182   0.89640   0.00000  Uiso   1.00
H219   H     0.51996   0.71244   0.76807   0.00000  Uiso   1.00
H220   H     0.41733   0.51272   0.34206   0.00000  Uiso   1.00
H221   H     0.27501   0.57024   0.06422   0.00000  Uiso   1.00
O222   O     0.47235   0.80517   0.73577   0.00000  Uiso   1.00
O223   O     0.33772   0.54314   0.17687   0.00000  Uiso   1.00
O224   O     0.46298   0.61861   0.12433   0.00000  Uiso   1.00
N225   N     0.56532   0.79297   0.69488   0.00000  Uiso   1.00
N226   N     0.46934   0.60625   0.29657   0.00000  Uiso   1.00
N227   N     0.27121   0.66002   0.97172   0.00000  Uiso   1.00
N228   N     0.54350   0.73144   0.74413   0.00000  Uiso   1.00
N229   N     0.44753   0.54472   0.34583   0.00000  Uiso   1.00
N230   N     0.24939   0.59849   0.02097   0.00000  Uiso   1.00
C231   C     0.91807   0.80783   0.65200   0.00000  Uiso   1.00
C232   C     0.02853   0.79514   0.67620   0.00000  Uiso   1.00
C233   C     0.05501   0.75010   0.66957   0.00000  Uiso   1.00
C234   C     0.16043   0.74586   0.69497   0.00000  Uiso   1.00
C235   C     0.32032   0.72017   0.72778   0.00000  Uiso   1.00
C236   C     0.83529   0.84630   0.56623   0.00000  Uiso   1.00
C237   C     0.69930   0.84427   0.46714   0.00000  Uiso   1.00
C238   C     0.64206   0.88309   0.39998   0.00000  Uiso   1.00
C239   C     0.50194   0.93683   0.26209   0.00000  Uiso   1.00
C240   C     0.98641   0.83179   0.75258   0.00000  Uiso   1.00
C241   C     0.97746   0.81757   0.81017   0.00000  Uiso   1.00
C242   C     0.04742   0.84419   0.89989   0.00000  Uiso   1.00
C243   C     0.14193   0.87539   0.05134   0.00000  Uiso   1.00
C244   C     0.05821   0.88040   0.70891   0.00000  Uiso   1.00
C245   C     0.10464   0.83456   0.70710   0.00000  Uiso   1.00
C246   C     0.21006   0.83039   0.73253   0.00000  Uiso   1.00
C247   C     0.23669   0.78535   0.72594   0.00000  Uiso   1.00
C248   C     0.91141   0.88571   0.59713   0.00000  Uiso   1.00
C249   C     0.85435   0.92455   0.53010   0.00000  Uiso   1.00
C250   C     0.71832   0.92258   0.43094   0.00000  Uiso   1.00
C251   C     0.06253   0.87120   0.78349   0.00000  Uiso   1.00
C252   C     0.13252   0.89785   0.87313   0.00000  Uiso   1.00
C253   C     0.12368   0.88367   0.93085   0.00000  Uiso   1.00
H254   H     0.85880   0.77715   0.62793   0.00000  Uiso   1.00
H255   H     0.99607   0.71961   0.64563   0.00000  Uiso   1.00
H256   H     0.64042   0.81376   0.44325   0.00000  Uiso   1.00
H257   H     0.91854   0.78706   0.78622   0.00000  Uiso   1.00
H258   H     0.18179   0.67320   0.67885   0.00000  Uiso   1.00
H259   H     0.43189   0.87173   0.25212   0.00000  Uiso   1.00
H260   H     0.01835   0.81544   0.97535   0.00000  Uiso   1.00
H261   H     0.11747   0.91109   0.73297   0.00000  Uiso   1.00
H262   H     0.26894   0.86090   0.75644   0.00000  Uiso   1.00
H263   H     0.91329   0.95505   0.55405   0.00000  Uiso   1.00
H264   H     0.19141   0.92835   0.89703   0.00000  Uiso   1.00
H265   H     0.40326   0.78788   0.76878   0.00000  Uiso   1.00
H266   H     0.65335   0.98641   0.34205   0.00000  Uiso   1.00
H267   H     0.23982   0.93011   0.06528   0.00000  Uiso   1.00
O268   O     0.38747   0.69511   0.73732   0.00000  Uiso   1.00
O269   O     0.40362   0.95558   0.17748   0.00000  Uiso   1.00
O270   O     0.17305   0.88172   0.12634   0.00000  Uiso   1.00
N271   N     0.21315   0.70708   0.69682   0.00000  Uiso   1.00
N272   N     0.51203   0.89269   0.29784   0.00000  Uiso   1.00
N273   N     0.06030   0.84006   0.97398   0.00000  Uiso   1.00
N274   N     0.33232   0.76878   0.74521   0.00000  Uiso   1.00
N275   N     0.63120   0.95439   0.34624   0.00000  Uiso   1.00
N276   N     0.17947   0.90177   0.02238   0.00000  Uiso   1.00
C277   C     0.22943   0.19184   0.84990   0.00000  Uiso   1.00
C278   C     0.29130   0.20467   0.82551   0.00000  Uiso   1.00
C279   C     0.33120   0.24974   0.83245   0.00000  Uiso   1.00
C280   C     0.38559   0.25412   0.80679   0.00000  Uiso   1.00
C281   C     0.47962   0.28002   0.77375   0.00000  Uiso   1.00
C282   C     0.31778   0.15321   0.93529   0.00000  Uiso   1.00
C283   C     0.37991   0.15501   0.03453   0.00000  Uiso   1.00
C284   C     0.45658   0.11607   0.10128   0.00000  Uiso   1.00
C285   C     0.59162   0.06207   0.23866   0.00000  Uiso   1.00
C286   C     0.09679   0.16804   0.74922   0.00000  Uiso   1.00
C287   C     0.97311   0.18229   0.69201   0.00000  Uiso   1.00
C288   C     0.86371   0.15582   0.60211   0.00000  Uiso   1.00
C289   C     0.65564   0.12484   0.45057   0.00000  Uiso   1.00
C290   C     0.25508   0.11948   0.79197   0.00000  Uiso   1.00
C291   C     0.30524   0.16537   0.79405   0.00000  Uiso   1.00
C292   C     0.35958   0.16968   0.76836   0.00000  Uiso   1.00
C293   C     0.39955   0.21474   0.77526   0.00000  Uiso   1.00
C294   C     0.33172   0.11391   0.90383   0.00000  Uiso   1.00
C295   C     0.40830   0.07495   0.97045   0.00000  Uiso   1.00
C296   C     0.47054   0.07669   0.06977   0.00000  Uiso   1.00
C297   C     0.11072   0.12874   0.71775   0.00000  Uiso   1.00
C298   C     0.00150   0.10224   0.62793   0.00000  Uiso   1.00
C299   C     0.87768   0.11645   0.57059   0.00000  Uiso   1.00
H300   H     0.21858   0.22244   0.87440   0.00000  Uiso   1.00
H301   H     0.32041   0.28015   0.85681   0.00000  Uiso   1.00
H302   H     0.36910   0.18543   0.05885   0.00000  Uiso   1.00
H303   H     0.96236   0.21271   0.71639   0.00000  Uiso   1.00
H304   H     0.43949   0.32679   0.82347   0.00000  Uiso   1.00
H305   H     0.54213   0.12707   0.24948   0.00000  Uiso   1.00
H306   H     0.68444   0.18459   0.52732   0.00000  Uiso   1.00
H307   H     0.26593   0.08888   0.76748   0.00000  Uiso   1.00
H308   H     0.37036   0.13926   0.74402   0.00000  Uiso   1.00
H309   H     0.41906   0.04454   0.94607   0.00000  Uiso   1.00
H310   H     0.01232   0.07182   0.60360   0.00000  Uiso   1.00
H311   H     0.48004   0.21244   0.73193   0.00000  Uiso   1.00
H312   H     0.58267   0.01272   0.15794   0.00000  Uiso   1.00
H313   H     0.72499   0.07024   0.43578   0.00000  Uiso   1.00
O314   O     0.52765   0.30517   0.76423   0.00000  Uiso   1.00
O315   O     0.66228   0.04314   0.32313   0.00000  Uiso   1.00
O316   O     0.53702   0.11861   0.37567   0.00000  Uiso   1.00
N317   N     0.43468   0.29297   0.80512   0.00000  Uiso   1.00
N318   N     0.53066   0.10625   0.20343   0.00000  Uiso   1.00
N319   N     0.72879   0.16002   0.52828   0.00000  Uiso   1.00
N320   N     0.45650   0.23144   0.75587   0.00000  Uiso   1.00
N321   N     0.55247   0.04472   0.15417   0.00000  Uiso   1.00
N322   N     0.75061   0.09849   0.47903   0.00000  Uiso   1.00
C323   C     0.08193   0.30783   0.84800   0.00000  Uiso   1.00
C324   C     0.97147   0.29514   0.82380   0.00000  Uiso   1.00
C325   C     0.94499   0.25010   0.83043   0.00000  Uiso   1.00
C326   C     0.83957   0.24586   0.80503   0.00000  Uiso   1.00
C327   C     0.67968   0.22017   0.77222   0.00000  Uiso   1.00
C328   C     0.16471   0.34630   0.93377   0.00000  Uiso   1.00
C329   C     0.30070   0.34427   0.03286   0.00000  Uiso   1.00
C330   C     0.35794   0.38309   0.10002   0.00000  Uiso   1.00
C331   C     0.49806   0.43683   0.23791   0.00000  Uiso   1.00
C332   C     0.01359   0.33179   0.74742   0.00000  Uiso   1.00
C333   C     0.02254   0.31757   0.68983   0.00000  Uiso   1.00
C334   C     0.95258   0.34419   0.60011   0.00000  Uiso   1.00
C335   C     0.85807   0.37539   0.44866   0.00000  Uiso   1.00
C336   C     0.94179   0.38040   0.79109   0.00000  Uiso   1.00
C337   C     0.89536   0.33456   0.79290   0.00000  Uiso   1.00
C338   C     0.78994   0.33039   0.76747   0.00000  Uiso   1.00
C339   C     0.76331   0.28535   0.77406   0.00000  Uiso   1.00
C340   C     0.08859   0.38571   0.90287   0.00000  Uiso   1.00
C341   C     0.14565   0.42455   0.96990   0.00000  Uiso   1.00
C342   C     0.28168   0.42258   0.06906   0.00000  Uiso   1.00
C343   C     0.93747   0.37120   0.71651   0.00000  Uiso   1.00
C344   C     0.86748   0.39785   0.62687   0.00000  Uiso   1.00
C345   C     0.87632   0.38367   0.56915   0.00000  Uiso   1.00
H346   H     0.14120   0.27715   0.87207   0.00000  Uiso   1.00
H347   H     0.00393   0.21961   0.85437   0.00000  Uiso   1.00
H348   H     0.35958   0.31376   0.05675   0.00000  Uiso   1.00
H349   H     0.08146   0.28706   0.71378   0.00000  Uiso   1.00
H350   H     0.81821   0.17320   0.82115   0.00000  Uiso   1.00
H351   H     0.56811   0.37173   0.24788   0.00000  Uiso   1.00
H352   H     0.98165   0.31544   0.52465   0.00000  Uiso   1.00
H353   H     0.88253   0.41109   0.76703   0.00000  Uiso   1.00
H354   H     0.73106   0.36090   0.74356   0.00000  Uiso   1.00
H355   H     0.08671   0.45505   0.94595   0.00000  Uiso   1.00
H356   H     0.80859   0.42835   0.60297   0.00000  Uiso   1.00
H357   H     0.59674   0.28788   0.73122   0.00000  Uiso   1.00
H358   H     0.34665   0.48641   0.15795   0.00000  Uiso   1.00
H359   H     0.76018   0.43011   0.43472   0.00000  Uiso   1.00
O360   O     0.61253   0.19511   0.76268   0.00000  Uiso   1.00
O361   O     0.59638   0.45558   0.32252   0.00000  Uiso   1.00
O362   O     0.82695   0.38172   0.37366   0.00000  Uiso   1.00
N363   N     0.78685   0.20708   0.80318   0.00000  Uiso   1.00
N364   N     0.48797   0.39269   0.20216   0.00000  Uiso   1.00
N365   N     0.93970   0.34006   0.52602   0.00000  Uiso   1.00
N366   N     0.66768   0.26878   0.75479   0.00000  Uiso   1.00
N367   N     0.36880   0.45439   0.15376   0.00000  Uiso   1.00
N368   N     0.82053   0.40177   0.47762   0.00000  Uiso   1.00
