data_job_01200
_audit_creation_date              2018-12-19
_audit_creation_method            'Materials Studio'
_symmetry_space_group_name_H-M    'P1'
_symmetry_Int_Tables_number       1
_symmetry_cell_setting            triclinic
loop_
_symmetry_equiv_pos_as_xyz
  x,y,z
_cell_length_a                    22.7845
_cell_length_b                    11.6951
_cell_length_c                    23.0853
_cell_angle_alpha                 90.0000
_cell_angle_beta                  25.6557
_cell_angle_gamma                 90.0000
loop_
_atom_site_label
_atom_site_type_symbol
_atom_site_fract_x
_atom_site_fract_y
_atom_site_fract_z
_atom_site_U_iso_or_equiv
_atom_site_adp_type
_atom_site_occupancy
C1     C     0.29182   0.16054   0.79732   0.00000  Uiso   1.00
C2     C     0.44158   0.16855   0.64822   0.00000  Uiso   1.00
C3     C     0.53291   0.07831   0.56652   0.00000  Uiso   1.00
C4     C     0.66548   0.10324   0.43282   0.00000  Uiso   1.00
C5     C     0.89199   0.09877   0.20893   0.00000  Uiso   1.00
C6     C     0.26983   0.24578   0.86599   0.00000  Uiso   1.00
C7     C     0.21674   0.22046   0.96739   0.00000  Uiso   1.00
C8     C     0.20471   0.31041   0.01701   0.00000  Uiso   1.00
C9     C     0.16449   0.42585   0.13128   0.00000  Uiso   1.00
C10    C     0.21409   0.20761   0.81460   0.00000  Uiso   1.00
C11    C     0.11411   0.15022   0.87284   0.00000  Uiso   1.00
C12    C     0.05513   0.20804   0.87923   0.00000  Uiso   1.00
C13    C     0.92836   0.26421   0.91371   0.00000  Uiso   1.00
C14    C     0.36482   0.36529   0.70516   0.00000  Uiso   1.00
C15    C     0.48122   0.27977   0.59817   0.00000  Uiso   1.00
C16    C     0.61368   0.30484   0.46455   0.00000  Uiso   1.00
C17    C     0.70520   0.21465   0.38266   0.00000  Uiso   1.00
C18    C     0.30948   0.35699   0.81593   0.00000  Uiso   1.00
C19    C     0.29751   0.44700   0.86542   0.00000  Uiso   1.00
C20    C     0.24444   0.42183   0.96686   0.00000  Uiso   1.00
C21    C     0.25374   0.31882   0.76454   0.00000  Uiso   1.00
C22    C     0.19489   0.37675   0.77085   0.00000  Uiso   1.00
C23    C     0.09485   0.31945   0.82908   0.00000  Uiso   1.00
H24    H     0.26095   0.07396   0.83631   0.00000  Uiso   1.00
H25    H     0.50219   0.99225   0.60531   0.00000  Uiso   1.00
H26    H     0.18606   0.13440   0.00612   0.00000  Uiso   1.00
H27    H     0.08345   0.06416   0.91157   0.00000  Uiso   1.00
H28    H     0.78715   0.95072   0.32713   0.00000  Uiso   1.00
H29    H     0.12052   0.25044   0.17230   0.00000  Uiso   1.00
H30    H     0.90415   0.10232   0.97293   0.00000  Uiso   1.00
H31    H     0.39569   0.45188   0.66618   0.00000  Uiso   1.00
H32    H     0.64434   0.39091   0.42583   0.00000  Uiso   1.00
H33    H     0.32820   0.53305   0.82665   0.00000  Uiso   1.00
H34    H     0.22560   0.46281   0.73210   0.00000  Uiso   1.00
H35    H     0.90253   0.27429   0.18147   0.00000  Uiso   1.00
H36    H     0.23589   0.57400   0.02665   0.00000  Uiso   1.00
H37    H     0.01953   0.42589   0.82727   0.00000  Uiso   1.00
O38    O     0.00599   0.06559   0.09928   0.00000  Uiso   1.00
O39    O     0.13137   0.45880   0.20812   0.00000  Uiso   1.00
O40    O     0.84750   0.26447   0.94654   0.00000  Uiso   1.00
N41    N     0.78018   0.03524   0.32583   0.00000  Uiso   1.00
N42    N     0.15694   0.31545   0.11600   0.00000  Uiso   1.00
N43    N     0.95462   0.17698   0.92963   0.00000  Uiso   1.00
N44    N     0.84226   0.20934   0.24745   0.00000  Uiso   1.00
N45    N     0.21902   0.48956   0.03762   0.00000  Uiso   1.00
N46    N     0.01670   0.35109   0.85125   0.00000  Uiso   1.00
C47    C     0.70818   0.16054   0.70268   0.00000  Uiso   1.00
C48    C     0.55842   0.16855   0.85178   0.00000  Uiso   1.00
C49    C     0.46709   0.07831   0.93348   0.00000  Uiso   1.00
C50    C     0.33452   0.10324   0.06718   0.00000  Uiso   1.00
C51    C     0.10801   0.09877   0.29107   0.00000  Uiso   1.00
C52    C     0.73017   0.24578   0.63401   0.00000  Uiso   1.00
C53    C     0.78326   0.22046   0.53261   0.00000  Uiso   1.00
C54    C     0.79529   0.31041   0.48299   0.00000  Uiso   1.00
C55    C     0.83551   0.42585   0.36872   0.00000  Uiso   1.00
C56    C     0.78591   0.20761   0.68540   0.00000  Uiso   1.00
C57    C     0.88589   0.15022   0.62716   0.00000  Uiso   1.00
C58    C     0.94487   0.20804   0.62077   0.00000  Uiso   1.00
C59    C     0.07164   0.26421   0.58629   0.00000  Uiso   1.00
C60    C     0.63518   0.36529   0.79484   0.00000  Uiso   1.00
C61    C     0.51878   0.27977   0.90183   0.00000  Uiso   1.00
C62    C     0.38632   0.30484   0.03545   0.00000  Uiso   1.00
C63    C     0.29480   0.21465   0.11734   0.00000  Uiso   1.00
C64    C     0.69052   0.35699   0.68407   0.00000  Uiso   1.00
C65    C     0.70249   0.44700   0.63458   0.00000  Uiso   1.00
C66    C     0.75556   0.42183   0.53314   0.00000  Uiso   1.00
C67    C     0.74626   0.31882   0.73546   0.00000  Uiso   1.00
C68    C     0.80511   0.37675   0.72915   0.00000  Uiso   1.00
C69    C     0.90515   0.31945   0.67092   0.00000  Uiso   1.00
H70    H     0.73905   0.07396   0.66369   0.00000  Uiso   1.00
H71    H     0.49781   0.99225   0.89469   0.00000  Uiso   1.00
H72    H     0.81394   0.13440   0.49388   0.00000  Uiso   1.00
H73    H     0.91655   0.06416   0.58843   0.00000  Uiso   1.00
H74    H     0.21285   0.95072   0.17287   0.00000  Uiso   1.00
H75    H     0.87948   0.25044   0.32770   0.00000  Uiso   1.00
H76    H     0.09585   0.10232   0.52707   0.00000  Uiso   1.00
H77    H     0.60431   0.45188   0.83382   0.00000  Uiso   1.00
H78    H     0.35566   0.39091   0.07417   0.00000  Uiso   1.00
H79    H     0.67180   0.53305   0.67335   0.00000  Uiso   1.00
H80    H     0.77440   0.46281   0.76790   0.00000  Uiso   1.00
H81    H     0.09747   0.27429   0.31853   0.00000  Uiso   1.00
H82    H     0.76411   0.57400   0.47335   0.00000  Uiso   1.00
H83    H     0.98047   0.42589   0.67273   0.00000  Uiso   1.00
O84    O     0.99401   0.06559   0.40072   0.00000  Uiso   1.00
O85    O     0.86863   0.45880   0.29188   0.00000  Uiso   1.00
O86    O     0.15250   0.26447   0.55346   0.00000  Uiso   1.00
N87    N     0.21982   0.03524   0.17417   0.00000  Uiso   1.00
N88    N     0.84306   0.31545   0.38400   0.00000  Uiso   1.00
N89    N     0.04538   0.17698   0.57037   0.00000  Uiso   1.00
N90    N     0.15774   0.20934   0.25255   0.00000  Uiso   1.00
N91    N     0.78098   0.48956   0.46238   0.00000  Uiso   1.00
N92    N     0.98330   0.35109   0.64875   0.00000  Uiso   1.00
C93    C     0.70818   0.83946   0.20268   0.00000  Uiso   1.00
C94    C     0.55842   0.83145   0.35178   0.00000  Uiso   1.00
C95    C     0.46709   0.92169   0.43348   0.00000  Uiso   1.00
C96    C     0.33452   0.89676   0.56718   0.00000  Uiso   1.00
C97    C     0.10801   0.90123   0.79107   0.00000  Uiso   1.00
C98    C     0.73017   0.75422   0.13401   0.00000  Uiso   1.00
C99    C     0.78326   0.77954   0.03261   0.00000  Uiso   1.00
C100   C     0.79529   0.68959   0.98299   0.00000  Uiso   1.00
C101   C     0.83551   0.57415   0.86872   0.00000  Uiso   1.00
C102   C     0.78591   0.79239   0.18540   0.00000  Uiso   1.00
C103   C     0.88589   0.84978   0.12716   0.00000  Uiso   1.00
C104   C     0.94487   0.79196   0.12077   0.00000  Uiso   1.00
C105   C     0.07164   0.73579   0.08629   0.00000  Uiso   1.00
C106   C     0.63518   0.63471   0.29484   0.00000  Uiso   1.00
C107   C     0.51878   0.72023   0.40183   0.00000  Uiso   1.00
C108   C     0.38632   0.69516   0.53545   0.00000  Uiso   1.00
C109   C     0.29480   0.78535   0.61734   0.00000  Uiso   1.00
C110   C     0.69052   0.64301   0.18407   0.00000  Uiso   1.00
C111   C     0.70249   0.55300   0.13458   0.00000  Uiso   1.00
C112   C     0.75556   0.57817   0.03314   0.00000  Uiso   1.00
C113   C     0.74626   0.68118   0.23546   0.00000  Uiso   1.00
C114   C     0.80511   0.62325   0.22915   0.00000  Uiso   1.00
C115   C     0.90515   0.68055   0.17092   0.00000  Uiso   1.00
H116   H     0.73905   0.92604   0.16369   0.00000  Uiso   1.00
H117   H     0.49781   0.00775   0.39469   0.00000  Uiso   1.00
H118   H     0.81394   0.86560   0.99388   0.00000  Uiso   1.00
H119   H     0.91655   0.93584   0.08843   0.00000  Uiso   1.00
H120   H     0.21285   0.04928   0.67287   0.00000  Uiso   1.00
H121   H     0.87948   0.74956   0.82770   0.00000  Uiso   1.00
H122   H     0.09585   0.89768   0.02707   0.00000  Uiso   1.00
H123   H     0.60431   0.54812   0.33382   0.00000  Uiso   1.00
H124   H     0.35566   0.60909   0.57417   0.00000  Uiso   1.00
H125   H     0.67180   0.46695   0.17335   0.00000  Uiso   1.00
H126   H     0.77440   0.53719   0.26790   0.00000  Uiso   1.00
H127   H     0.09747   0.72571   0.81853   0.00000  Uiso   1.00
H128   H     0.76411   0.42600   0.97335   0.00000  Uiso   1.00
H129   H     0.98047   0.57411   0.17273   0.00000  Uiso   1.00
O130   O     0.99401   0.93441   0.90072   0.00000  Uiso   1.00
O131   O     0.86863   0.54120   0.79188   0.00000  Uiso   1.00
O132   O     0.15250   0.73553   0.05346   0.00000  Uiso   1.00
N133   N     0.21982   0.96476   0.67417   0.00000  Uiso   1.00
N134   N     0.84306   0.68455   0.88400   0.00000  Uiso   1.00
N135   N     0.04538   0.82302   0.07037   0.00000  Uiso   1.00
N136   N     0.15774   0.79066   0.75255   0.00000  Uiso   1.00
N137   N     0.78098   0.51044   0.96238   0.00000  Uiso   1.00
N138   N     0.98330   0.64891   0.14875   0.00000  Uiso   1.00
C139   C     0.29182   0.83946   0.29732   0.00000  Uiso   1.00
C140   C     0.44158   0.83145   0.14822   0.00000  Uiso   1.00
C141   C     0.53291   0.92169   0.06652   0.00000  Uiso   1.00
C142   C     0.66548   0.89676   0.93282   0.00000  Uiso   1.00
C143   C     0.89199   0.90123   0.70893   0.00000  Uiso   1.00
C144   C     0.26983   0.75422   0.36599   0.00000  Uiso   1.00
C145   C     0.21674   0.77954   0.46739   0.00000  Uiso   1.00
C146   C     0.20471   0.68959   0.51701   0.00000  Uiso   1.00
C147   C     0.16449   0.57415   0.63128   0.00000  Uiso   1.00
C148   C     0.21409   0.79239   0.31460   0.00000  Uiso   1.00
C149   C     0.11411   0.84978   0.37284   0.00000  Uiso   1.00
C150   C     0.05513   0.79196   0.37923   0.00000  Uiso   1.00
C151   C     0.92836   0.73579   0.41371   0.00000  Uiso   1.00
C152   C     0.36482   0.63471   0.20516   0.00000  Uiso   1.00
C153   C     0.48122   0.72023   0.09817   0.00000  Uiso   1.00
C154   C     0.61368   0.69516   0.96455   0.00000  Uiso   1.00
C155   C     0.70520   0.78535   0.88266   0.00000  Uiso   1.00
C156   C     0.30948   0.64301   0.31593   0.00000  Uiso   1.00
C157   C     0.29751   0.55300   0.36542   0.00000  Uiso   1.00
C158   C     0.24444   0.57817   0.46686   0.00000  Uiso   1.00
C159   C     0.25374   0.68118   0.26454   0.00000  Uiso   1.00
C160   C     0.19489   0.62325   0.27085   0.00000  Uiso   1.00
C161   C     0.09485   0.68055   0.32908   0.00000  Uiso   1.00
H162   H     0.26095   0.92604   0.33631   0.00000  Uiso   1.00
H163   H     0.50219   0.00775   0.10531   0.00000  Uiso   1.00
H164   H     0.18606   0.86560   0.50612   0.00000  Uiso   1.00
H165   H     0.08345   0.93584   0.41157   0.00000  Uiso   1.00
H166   H     0.78715   0.04928   0.82713   0.00000  Uiso   1.00
H167   H     0.12052   0.74956   0.67230   0.00000  Uiso   1.00
H168   H     0.90415   0.89768   0.47293   0.00000  Uiso   1.00
H169   H     0.39569   0.54812   0.16618   0.00000  Uiso   1.00
H170   H     0.64434   0.60909   0.92583   0.00000  Uiso   1.00
H171   H     0.32820   0.46695   0.32665   0.00000  Uiso   1.00
H172   H     0.22560   0.53719   0.23210   0.00000  Uiso   1.00
H173   H     0.90253   0.72571   0.68147   0.00000  Uiso   1.00
H174   H     0.23589   0.42600   0.52665   0.00000  Uiso   1.00
H175   H     0.01953   0.57411   0.32727   0.00000  Uiso   1.00
O176   O     0.00599   0.93441   0.59928   0.00000  Uiso   1.00
O177   O     0.13137   0.54120   0.70812   0.00000  Uiso   1.00
O178   O     0.84750   0.73553   0.44654   0.00000  Uiso   1.00
N179   N     0.78018   0.96476   0.82583   0.00000  Uiso   1.00
N180   N     0.15694   0.68455   0.61600   0.00000  Uiso   1.00
N181   N     0.95462   0.82302   0.42963   0.00000  Uiso   1.00
N182   N     0.84226   0.79066   0.74745   0.00000  Uiso   1.00
N183   N     0.21902   0.51044   0.53762   0.00000  Uiso   1.00
N184   N     0.01670   0.64891   0.35125   0.00000  Uiso   1.00
