data_job_00340
_audit_creation_date              2018-12-19
_audit_creation_method            'Materials Studio'
_symmetry_space_group_name_H-M    'P1'
_symmetry_Int_Tables_number       1
_symmetry_cell_setting            triclinic
loop_
_symmetry_equiv_pos_as_xyz
  x,y,z
_cell_length_a                    20.6775
_cell_length_b                    20.6775
_cell_length_c                    14.1788
_cell_angle_alpha                 90.0000
_cell_angle_beta                  90.0000
_cell_angle_gamma                 90.0000
loop_
_atom_site_label
_atom_site_type_symbol
_atom_site_fract_x
_atom_site_fract_y
_atom_site_fract_z
_atom_site_U_iso_or_equiv
_atom_site_adp_type
_atom_site_occupancy
C1     C     0.73881   0.49100   0.60117   0.00000  Uiso   1.00
C2     C     0.73365   0.41756   0.59468   0.00000  Uiso   1.00
C3     C     0.68430   0.38350   0.55072   0.00000  Uiso   1.00
C4     C     0.68839   0.31649   0.55248   0.00000  Uiso   1.00
C5     C     0.67250   0.20729   0.53572   0.00000  Uiso   1.00
C6     C     0.74371   0.50675   0.70600   0.00000  Uiso   1.00
C7     C     0.70283   0.54767   0.75564   0.00000  Uiso   1.00
C8     C     0.71540   0.55574   0.85111   0.00000  Uiso   1.00
C9     C     0.71517   0.58504   0.00716   0.00000  Uiso   1.00
C10    C     0.80418   0.50864   0.55856   0.00000  Uiso   1.00
C11    C     0.81414   0.55117   0.48425   0.00000  Uiso   1.00
C12    C     0.87762   0.56085   0.45560   0.00000  Uiso   1.00
C13    C     0.97127   0.59309   0.38272   0.00000  Uiso   1.00
C14    C     0.83383   0.43257   0.68245   0.00000  Uiso   1.00
C15    C     0.78526   0.38583   0.63883   0.00000  Uiso   1.00
C16    C     0.78942   0.31886   0.64065   0.00000  Uiso   1.00
C17    C     0.74009   0.28469   0.59671   0.00000  Uiso   1.00
C18    C     0.79532   0.47501   0.75015   0.00000  Uiso   1.00
C19    C     0.80795   0.48303   0.84557   0.00000  Uiso   1.00
C20    C     0.76710   0.52395   0.89534   0.00000  Uiso   1.00
C21    C     0.85579   0.47691   0.60270   0.00000  Uiso   1.00
C22    C     0.91927   0.48653   0.57417   0.00000  Uiso   1.00
C23    C     0.92932   0.52906   0.49983   0.00000  Uiso   1.00
H24    H     0.69863   0.51570   0.56681   0.00000  Uiso   1.00
H25    H     0.64436   0.40807   0.51657   0.00000  Uiso   1.00
H26    H     0.66290   0.57223   0.72145   0.00000  Uiso   1.00
H27    H     0.77419   0.57572   0.45010   0.00000  Uiso   1.00
H28    H     0.60695   0.27475   0.48038   0.00000  Uiso   1.00
H29    H     0.64604   0.62089   0.91237   0.00000  Uiso   1.00
H30    H     0.88073   0.62826   0.34017   0.00000  Uiso   1.00
H31    H     0.87401   0.40787   0.71683   0.00000  Uiso   1.00
H32    H     0.82937   0.29431   0.67482   0.00000  Uiso   1.00
H33    H     0.84790   0.45847   0.87970   0.00000  Uiso   1.00
H34    H     0.95919   0.46196   0.60835   0.00000  Uiso   1.00
H35    H     0.75710   0.18241   0.60882   0.00000  Uiso   1.00
H36    H     0.79619   0.52856   0.04082   0.00000  Uiso   1.00
H37    H     0.03088   0.53593   0.46861   0.00000  Uiso   1.00
O38    O     0.64948   0.15583   0.51429   0.00000  Uiso   1.00
O39    O     0.70078   0.60997   0.08104   0.00000  Uiso   1.00
O40    O     0.00867   0.61963   0.33032   0.00000  Uiso   1.00
N41    N     0.64842   0.26860   0.51635   0.00000  Uiso   1.00
N42    N     0.68496   0.59222   0.92025   0.00000  Uiso   1.00
N43    N     0.90437   0.59912   0.38530   0.00000  Uiso   1.00
N44    N     0.72922   0.21892   0.58547   0.00000  Uiso   1.00
N45    N     0.76576   0.54253   0.98936   0.00000  Uiso   1.00
N46    N     0.98517   0.54944   0.45442   0.00000  Uiso   1.00
C47    C     0.26119   0.50900   0.10117   0.00000  Uiso   1.00
C48    C     0.26635   0.58244   0.09468   0.00000  Uiso   1.00
C49    C     0.31570   0.61650   0.05072   0.00000  Uiso   1.00
C50    C     0.31161   0.68351   0.05248   0.00000  Uiso   1.00
C51    C     0.32750   0.79271   0.03572   0.00000  Uiso   1.00
C52    C     0.25629   0.49325   0.20600   0.00000  Uiso   1.00
C53    C     0.29717   0.45233   0.25564   0.00000  Uiso   1.00
C54    C     0.28460   0.44426   0.35111   0.00000  Uiso   1.00
C55    C     0.28483   0.41496   0.50716   0.00000  Uiso   1.00
C56    C     0.19582   0.49136   0.05856   0.00000  Uiso   1.00
C57    C     0.18586   0.44883   0.98425   0.00000  Uiso   1.00
C58    C     0.12238   0.43915   0.95560   0.00000  Uiso   1.00
C59    C     0.02873   0.40691   0.88272   0.00000  Uiso   1.00
C60    C     0.16617   0.56743   0.18245   0.00000  Uiso   1.00
C61    C     0.21474   0.61417   0.13883   0.00000  Uiso   1.00
C62    C     0.21058   0.68114   0.14065   0.00000  Uiso   1.00
C63    C     0.25991   0.71531   0.09671   0.00000  Uiso   1.00
C64    C     0.20468   0.52499   0.25015   0.00000  Uiso   1.00
C65    C     0.19205   0.51697   0.34557   0.00000  Uiso   1.00
C66    C     0.23290   0.47605   0.39534   0.00000  Uiso   1.00
C67    C     0.14421   0.52309   0.10270   0.00000  Uiso   1.00
C68    C     0.08073   0.51347   0.07417   0.00000  Uiso   1.00
C69    C     0.07068   0.47094   0.99983   0.00000  Uiso   1.00
H70    H     0.30137   0.48430   0.06681   0.00000  Uiso   1.00
H71    H     0.35564   0.59193   0.01657   0.00000  Uiso   1.00
H72    H     0.33710   0.42777   0.22145   0.00000  Uiso   1.00
H73    H     0.22581   0.42428   0.95010   0.00000  Uiso   1.00
H74    H     0.39305   0.72525   0.98038   0.00000  Uiso   1.00
H75    H     0.35396   0.37911   0.41237   0.00000  Uiso   1.00
H76    H     0.11927   0.37174   0.84017   0.00000  Uiso   1.00
H77    H     0.12599   0.59213   0.21683   0.00000  Uiso   1.00
H78    H     0.17063   0.70569   0.17482   0.00000  Uiso   1.00
H79    H     0.15210   0.54153   0.37970   0.00000  Uiso   1.00
H80    H     0.04081   0.53804   0.10835   0.00000  Uiso   1.00
H81    H     0.24290   0.81759   0.10882   0.00000  Uiso   1.00
H82    H     0.20381   0.47144   0.54082   0.00000  Uiso   1.00
H83    H     0.96912   0.46407   0.96861   0.00000  Uiso   1.00
O84    O     0.35052   0.84417   0.01429   0.00000  Uiso   1.00
O85    O     0.29922   0.39003   0.58104   0.00000  Uiso   1.00
O86    O     0.99133   0.38037   0.83032   0.00000  Uiso   1.00
N87    N     0.35158   0.73140   0.01635   0.00000  Uiso   1.00
N88    N     0.31504   0.40778   0.42025   0.00000  Uiso   1.00
N89    N     0.09563   0.40088   0.88530   0.00000  Uiso   1.00
N90    N     0.27078   0.78108   0.08547   0.00000  Uiso   1.00
N91    N     0.23424   0.45747   0.48936   0.00000  Uiso   1.00
N92    N     0.01483   0.45056   0.95442   0.00000  Uiso   1.00
C93    C     0.00900   0.23881   0.35117   0.00000  Uiso   1.00
C94    C     0.08244   0.23365   0.34468   0.00000  Uiso   1.00
C95    C     0.11650   0.18430   0.30072   0.00000  Uiso   1.00
C96    C     0.18351   0.18839   0.30248   0.00000  Uiso   1.00
C97    C     0.29271   0.17250   0.28572   0.00000  Uiso   1.00
C98    C     0.99325   0.24371   0.45600   0.00000  Uiso   1.00
C99    C     0.95233   0.20283   0.50564   0.00000  Uiso   1.00
C100   C     0.94426   0.21540   0.60111   0.00000  Uiso   1.00
C101   C     0.91496   0.21517   0.75716   0.00000  Uiso   1.00
C102   C     0.99136   0.30418   0.30856   0.00000  Uiso   1.00
C103   C     0.94883   0.31414   0.23425   0.00000  Uiso   1.00
C104   C     0.93915   0.37762   0.20560   0.00000  Uiso   1.00
C105   C     0.90691   0.47127   0.13272   0.00000  Uiso   1.00
C106   C     0.06743   0.33383   0.43245   0.00000  Uiso   1.00
C107   C     0.11417   0.28526   0.38883   0.00000  Uiso   1.00
C108   C     0.18114   0.28942   0.39065   0.00000  Uiso   1.00
C109   C     0.21531   0.24009   0.34671   0.00000  Uiso   1.00
C110   C     0.02499   0.29532   0.50015   0.00000  Uiso   1.00
C111   C     0.01697   0.30795   0.59557   0.00000  Uiso   1.00
C112   C     0.97605   0.26710   0.64534   0.00000  Uiso   1.00
C113   C     0.02309   0.35579   0.35270   0.00000  Uiso   1.00
C114   C     0.01347   0.41927   0.32417   0.00000  Uiso   1.00
C115   C     0.97094   0.42932   0.24983   0.00000  Uiso   1.00
H116   H     0.98430   0.19863   0.31681   0.00000  Uiso   1.00
H117   H     0.09193   0.14436   0.26657   0.00000  Uiso   1.00
H118   H     0.92777   0.16290   0.47145   0.00000  Uiso   1.00
H119   H     0.92428   0.27419   0.20010   0.00000  Uiso   1.00
H120   H     0.22525   0.10695   0.23038   0.00000  Uiso   1.00
H121   H     0.87911   0.14604   0.66237   0.00000  Uiso   1.00
H122   H     0.87174   0.38073   0.09017   0.00000  Uiso   1.00
H123   H     0.09213   0.37401   0.46683   0.00000  Uiso   1.00
H124   H     0.20569   0.32937   0.42482   0.00000  Uiso   1.00
H125   H     0.04153   0.34790   0.62970   0.00000  Uiso   1.00
H126   H     0.03804   0.45919   0.35835   0.00000  Uiso   1.00
H127   H     0.31759   0.25710   0.35882   0.00000  Uiso   1.00
H128   H     0.97144   0.29619   0.79082   0.00000  Uiso   1.00
H129   H     0.96407   0.53088   0.21861   0.00000  Uiso   1.00
O130   O     0.34417   0.14948   0.26429   0.00000  Uiso   1.00
O131   O     0.89003   0.20078   0.83104   0.00000  Uiso   1.00
O132   O     0.88037   0.50867   0.08032   0.00000  Uiso   1.00
N133   N     0.23140   0.14842   0.26635   0.00000  Uiso   1.00
N134   N     0.90778   0.18496   0.67025   0.00000  Uiso   1.00
N135   N     0.90088   0.40437   0.13530   0.00000  Uiso   1.00
N136   N     0.28108   0.22922   0.33547   0.00000  Uiso   1.00
N137   N     0.95747   0.26576   0.73936   0.00000  Uiso   1.00
N138   N     0.95056   0.48517   0.20442   0.00000  Uiso   1.00
C139   C     0.99100   0.76119   0.85117   0.00000  Uiso   1.00
C140   C     0.91756   0.76635   0.84468   0.00000  Uiso   1.00
C141   C     0.88350   0.81570   0.80072   0.00000  Uiso   1.00
C142   C     0.81649   0.81161   0.80248   0.00000  Uiso   1.00
C143   C     0.70729   0.82750   0.78572   0.00000  Uiso   1.00
C144   C     0.00675   0.75629   0.95600   0.00000  Uiso   1.00
C145   C     0.04767   0.79717   0.00564   0.00000  Uiso   1.00
C146   C     0.05574   0.78460   0.10111   0.00000  Uiso   1.00
C147   C     0.08504   0.78483   0.25716   0.00000  Uiso   1.00
C148   C     0.00864   0.69582   0.80856   0.00000  Uiso   1.00
C149   C     0.05117   0.68586   0.73425   0.00000  Uiso   1.00
C150   C     0.06085   0.62238   0.70560   0.00000  Uiso   1.00
C151   C     0.09309   0.52873   0.63272   0.00000  Uiso   1.00
C152   C     0.93257   0.66617   0.93245   0.00000  Uiso   1.00
C153   C     0.88583   0.71474   0.88883   0.00000  Uiso   1.00
C154   C     0.81886   0.71058   0.89065   0.00000  Uiso   1.00
C155   C     0.78469   0.75991   0.84671   0.00000  Uiso   1.00
C156   C     0.97501   0.70468   0.00015   0.00000  Uiso   1.00
C157   C     0.98303   0.69205   0.09557   0.00000  Uiso   1.00
C158   C     0.02395   0.73290   0.14534   0.00000  Uiso   1.00
C159   C     0.97691   0.64421   0.85270   0.00000  Uiso   1.00
C160   C     0.98653   0.58073   0.82417   0.00000  Uiso   1.00
C161   C     0.02906   0.57068   0.74983   0.00000  Uiso   1.00
H162   H     0.01570   0.80137   0.81681   0.00000  Uiso   1.00
H163   H     0.90807   0.85564   0.76657   0.00000  Uiso   1.00
H164   H     0.07223   0.83710   0.97145   0.00000  Uiso   1.00
H165   H     0.07572   0.72581   0.70010   0.00000  Uiso   1.00
H166   H     0.77475   0.89305   0.73038   0.00000  Uiso   1.00
H167   H     0.12089   0.85396   0.16237   0.00000  Uiso   1.00
H168   H     0.12826   0.61927   0.59017   0.00000  Uiso   1.00
H169   H     0.90787   0.62599   0.96683   0.00000  Uiso   1.00
H170   H     0.79431   0.67063   0.92482   0.00000  Uiso   1.00
H171   H     0.95847   0.65210   0.12970   0.00000  Uiso   1.00
H172   H     0.96196   0.54081   0.85835   0.00000  Uiso   1.00
H173   H     0.68241   0.74290   0.85882   0.00000  Uiso   1.00
H174   H     0.02856   0.70381   0.29082   0.00000  Uiso   1.00
H175   H     0.03593   0.46912   0.71861   0.00000  Uiso   1.00
O176   O     0.65583   0.85052   0.76429   0.00000  Uiso   1.00
O177   O     0.10997   0.79922   0.33104   0.00000  Uiso   1.00
O178   O     0.11963   0.49133   0.58032   0.00000  Uiso   1.00
N179   N     0.76860   0.85158   0.76635   0.00000  Uiso   1.00
N180   N     0.09222   0.81504   0.17025   0.00000  Uiso   1.00
N181   N     0.09912   0.59563   0.63530   0.00000  Uiso   1.00
N182   N     0.71892   0.77078   0.83547   0.00000  Uiso   1.00
N183   N     0.04253   0.73424   0.23936   0.00000  Uiso   1.00
N184   N     0.04944   0.51483   0.70442   0.00000  Uiso   1.00
C185   C     0.76119   0.99100   0.14883   0.00000  Uiso   1.00
C186   C     0.76635   0.91756   0.15532   0.00000  Uiso   1.00
C187   C     0.81570   0.88350   0.19928   0.00000  Uiso   1.00
C188   C     0.81161   0.81649   0.19752   0.00000  Uiso   1.00
C189   C     0.82750   0.70729   0.21428   0.00000  Uiso   1.00
C190   C     0.75629   0.00675   0.04400   0.00000  Uiso   1.00
C191   C     0.79717   0.04767   0.99436   0.00000  Uiso   1.00
C192   C     0.78460   0.05574   0.89889   0.00000  Uiso   1.00
C193   C     0.78483   0.08504   0.74284   0.00000  Uiso   1.00
C194   C     0.69582   0.00864   0.19144   0.00000  Uiso   1.00
C195   C     0.68586   0.05117   0.26575   0.00000  Uiso   1.00
C196   C     0.62238   0.06085   0.29440   0.00000  Uiso   1.00
C197   C     0.52873   0.09309   0.36728   0.00000  Uiso   1.00
C198   C     0.66617   0.93257   0.06755   0.00000  Uiso   1.00
C199   C     0.71474   0.88583   0.11117   0.00000  Uiso   1.00
C200   C     0.71058   0.81886   0.10935   0.00000  Uiso   1.00
C201   C     0.75991   0.78469   0.15329   0.00000  Uiso   1.00
C202   C     0.70468   0.97501   0.99985   0.00000  Uiso   1.00
C203   C     0.69205   0.98303   0.90443   0.00000  Uiso   1.00
C204   C     0.73290   0.02395   0.85466   0.00000  Uiso   1.00
C205   C     0.64421   0.97691   0.14730   0.00000  Uiso   1.00
C206   C     0.58073   0.98653   0.17583   0.00000  Uiso   1.00
C207   C     0.57068   0.02906   0.25017   0.00000  Uiso   1.00
H208   H     0.80137   0.01570   0.18319   0.00000  Uiso   1.00
H209   H     0.85564   0.90807   0.23343   0.00000  Uiso   1.00
H210   H     0.83710   0.07223   0.02855   0.00000  Uiso   1.00
H211   H     0.72581   0.07572   0.29990   0.00000  Uiso   1.00
H212   H     0.89305   0.77475   0.26962   0.00000  Uiso   1.00
H213   H     0.85396   0.12089   0.83763   0.00000  Uiso   1.00
H214   H     0.61927   0.12826   0.40983   0.00000  Uiso   1.00
H215   H     0.62599   0.90787   0.03317   0.00000  Uiso   1.00
H216   H     0.67063   0.79431   0.07518   0.00000  Uiso   1.00
H217   H     0.65210   0.95847   0.87030   0.00000  Uiso   1.00
H218   H     0.54081   0.96196   0.14165   0.00000  Uiso   1.00
H219   H     0.74290   0.68241   0.14118   0.00000  Uiso   1.00
H220   H     0.70381   0.02856   0.70918   0.00000  Uiso   1.00
H221   H     0.46912   0.03593   0.28139   0.00000  Uiso   1.00
O222   O     0.85052   0.65583   0.23571   0.00000  Uiso   1.00
O223   O     0.79922   0.10997   0.66896   0.00000  Uiso   1.00
O224   O     0.49133   0.11963   0.41968   0.00000  Uiso   1.00
N225   N     0.85158   0.76860   0.23365   0.00000  Uiso   1.00
N226   N     0.81504   0.09222   0.82975   0.00000  Uiso   1.00
N227   N     0.59563   0.09912   0.36470   0.00000  Uiso   1.00
N228   N     0.77078   0.71892   0.16453   0.00000  Uiso   1.00
N229   N     0.73424   0.04253   0.76064   0.00000  Uiso   1.00
N230   N     0.51483   0.04944   0.29558   0.00000  Uiso   1.00
C231   C     0.23881   0.00900   0.64883   0.00000  Uiso   1.00
C232   C     0.23365   0.08244   0.65532   0.00000  Uiso   1.00
C233   C     0.18430   0.11650   0.69928   0.00000  Uiso   1.00
C234   C     0.18839   0.18351   0.69752   0.00000  Uiso   1.00
C235   C     0.17250   0.29271   0.71428   0.00000  Uiso   1.00
C236   C     0.24371   0.99325   0.54400   0.00000  Uiso   1.00
C237   C     0.20283   0.95233   0.49436   0.00000  Uiso   1.00
C238   C     0.21540   0.94426   0.39889   0.00000  Uiso   1.00
C239   C     0.21517   0.91496   0.24284   0.00000  Uiso   1.00
C240   C     0.30418   0.99136   0.69144   0.00000  Uiso   1.00
C241   C     0.31414   0.94883   0.76575   0.00000  Uiso   1.00
C242   C     0.37762   0.93915   0.79440   0.00000  Uiso   1.00
C243   C     0.47127   0.90691   0.86728   0.00000  Uiso   1.00
C244   C     0.33383   0.06743   0.56755   0.00000  Uiso   1.00
C245   C     0.28526   0.11417   0.61117   0.00000  Uiso   1.00
C246   C     0.28942   0.18114   0.60935   0.00000  Uiso   1.00
C247   C     0.24009   0.21531   0.65329   0.00000  Uiso   1.00
C248   C     0.29532   0.02499   0.49985   0.00000  Uiso   1.00
C249   C     0.30795   0.01697   0.40443   0.00000  Uiso   1.00
C250   C     0.26710   0.97605   0.35466   0.00000  Uiso   1.00
C251   C     0.35579   0.02309   0.64730   0.00000  Uiso   1.00
C252   C     0.41927   0.01347   0.67583   0.00000  Uiso   1.00
C253   C     0.42932   0.97094   0.75017   0.00000  Uiso   1.00
H254   H     0.19863   0.98430   0.68319   0.00000  Uiso   1.00
H255   H     0.14436   0.09193   0.73343   0.00000  Uiso   1.00
H256   H     0.16290   0.92777   0.52855   0.00000  Uiso   1.00
H257   H     0.27419   0.92428   0.79990   0.00000  Uiso   1.00
H258   H     0.10695   0.22525   0.76962   0.00000  Uiso   1.00
H259   H     0.14604   0.87911   0.33763   0.00000  Uiso   1.00
H260   H     0.38073   0.87174   0.90983   0.00000  Uiso   1.00
H261   H     0.37401   0.09213   0.53317   0.00000  Uiso   1.00
H262   H     0.32937   0.20569   0.57518   0.00000  Uiso   1.00
H263   H     0.34790   0.04153   0.37030   0.00000  Uiso   1.00
H264   H     0.45919   0.03804   0.64165   0.00000  Uiso   1.00
H265   H     0.25710   0.31759   0.64118   0.00000  Uiso   1.00
H266   H     0.29619   0.97144   0.20918   0.00000  Uiso   1.00
H267   H     0.53088   0.96407   0.78139   0.00000  Uiso   1.00
O268   O     0.14948   0.34417   0.73571   0.00000  Uiso   1.00
O269   O     0.20078   0.89003   0.16896   0.00000  Uiso   1.00
O270   O     0.50867   0.88037   0.91968   0.00000  Uiso   1.00
N271   N     0.14842   0.23140   0.73365   0.00000  Uiso   1.00
N272   N     0.18496   0.90778   0.32975   0.00000  Uiso   1.00
N273   N     0.40437   0.90088   0.86470   0.00000  Uiso   1.00
N274   N     0.22922   0.28108   0.66453   0.00000  Uiso   1.00
N275   N     0.26576   0.95747   0.26064   0.00000  Uiso   1.00
N276   N     0.48517   0.95056   0.79558   0.00000  Uiso   1.00
C277   C     0.49100   0.73881   0.39883   0.00000  Uiso   1.00
C278   C     0.41756   0.73365   0.40532   0.00000  Uiso   1.00
C279   C     0.38350   0.68430   0.44928   0.00000  Uiso   1.00
C280   C     0.31649   0.68839   0.44752   0.00000  Uiso   1.00
C281   C     0.20729   0.67250   0.46428   0.00000  Uiso   1.00
C282   C     0.50675   0.74371   0.29400   0.00000  Uiso   1.00
C283   C     0.54767   0.70283   0.24436   0.00000  Uiso   1.00
C284   C     0.55574   0.71540   0.14889   0.00000  Uiso   1.00
C285   C     0.58504   0.71517   0.99284   0.00000  Uiso   1.00
C286   C     0.50864   0.80418   0.44144   0.00000  Uiso   1.00
C287   C     0.55117   0.81414   0.51575   0.00000  Uiso   1.00
C288   C     0.56085   0.87762   0.54440   0.00000  Uiso   1.00
C289   C     0.59309   0.97127   0.61728   0.00000  Uiso   1.00
C290   C     0.43257   0.83383   0.31755   0.00000  Uiso   1.00
C291   C     0.38583   0.78526   0.36117   0.00000  Uiso   1.00
C292   C     0.31886   0.78942   0.35935   0.00000  Uiso   1.00
C293   C     0.28469   0.74009   0.40329   0.00000  Uiso   1.00
C294   C     0.47501   0.79532   0.24985   0.00000  Uiso   1.00
C295   C     0.48303   0.80795   0.15443   0.00000  Uiso   1.00
C296   C     0.52395   0.76710   0.10466   0.00000  Uiso   1.00
C297   C     0.47691   0.85579   0.39730   0.00000  Uiso   1.00
C298   C     0.48653   0.91927   0.42583   0.00000  Uiso   1.00
C299   C     0.52906   0.92932   0.50017   0.00000  Uiso   1.00
H300   H     0.51570   0.69863   0.43319   0.00000  Uiso   1.00
H301   H     0.40807   0.64436   0.48343   0.00000  Uiso   1.00
H302   H     0.57223   0.66290   0.27855   0.00000  Uiso   1.00
H303   H     0.57572   0.77419   0.54990   0.00000  Uiso   1.00
H304   H     0.27475   0.60695   0.51962   0.00000  Uiso   1.00
H305   H     0.62089   0.64604   0.08763   0.00000  Uiso   1.00
H306   H     0.62826   0.88073   0.65983   0.00000  Uiso   1.00
H307   H     0.40787   0.87401   0.28317   0.00000  Uiso   1.00
H308   H     0.29431   0.82937   0.32518   0.00000  Uiso   1.00
H309   H     0.45847   0.84790   0.12030   0.00000  Uiso   1.00
H310   H     0.46196   0.95919   0.39165   0.00000  Uiso   1.00
H311   H     0.18241   0.75710   0.39118   0.00000  Uiso   1.00
H312   H     0.52856   0.79619   0.95918   0.00000  Uiso   1.00
H313   H     0.53593   0.03088   0.53139   0.00000  Uiso   1.00
O314   O     0.15583   0.64948   0.48571   0.00000  Uiso   1.00
O315   O     0.60997   0.70078   0.91896   0.00000  Uiso   1.00
O316   O     0.61963   0.00867   0.66968   0.00000  Uiso   1.00
N317   N     0.26860   0.64842   0.48365   0.00000  Uiso   1.00
N318   N     0.59222   0.68496   0.07975   0.00000  Uiso   1.00
N319   N     0.59912   0.90437   0.61470   0.00000  Uiso   1.00
N320   N     0.21892   0.72922   0.41453   0.00000  Uiso   1.00
N321   N     0.54253   0.76576   0.01064   0.00000  Uiso   1.00
N322   N     0.54944   0.98517   0.54558   0.00000  Uiso   1.00
C323   C     0.50900   0.26119   0.89883   0.00000  Uiso   1.00
C324   C     0.58244   0.26635   0.90532   0.00000  Uiso   1.00
C325   C     0.61650   0.31570   0.94928   0.00000  Uiso   1.00
C326   C     0.68351   0.31161   0.94752   0.00000  Uiso   1.00
C327   C     0.79271   0.32750   0.96428   0.00000  Uiso   1.00
C328   C     0.49325   0.25629   0.79400   0.00000  Uiso   1.00
C329   C     0.45233   0.29717   0.74436   0.00000  Uiso   1.00
C330   C     0.44426   0.28460   0.64889   0.00000  Uiso   1.00
C331   C     0.41496   0.28483   0.49284   0.00000  Uiso   1.00
C332   C     0.49136   0.19582   0.94144   0.00000  Uiso   1.00
C333   C     0.44883   0.18586   0.01575   0.00000  Uiso   1.00
C334   C     0.43915   0.12238   0.04440   0.00000  Uiso   1.00
C335   C     0.40691   0.02873   0.11728   0.00000  Uiso   1.00
C336   C     0.56743   0.16617   0.81755   0.00000  Uiso   1.00
C337   C     0.61417   0.21474   0.86117   0.00000  Uiso   1.00
C338   C     0.68114   0.21058   0.85935   0.00000  Uiso   1.00
C339   C     0.71531   0.25991   0.90329   0.00000  Uiso   1.00
C340   C     0.52499   0.20468   0.74985   0.00000  Uiso   1.00
C341   C     0.51697   0.19205   0.65443   0.00000  Uiso   1.00
C342   C     0.47605   0.23290   0.60466   0.00000  Uiso   1.00
C343   C     0.52309   0.14421   0.89730   0.00000  Uiso   1.00
C344   C     0.51347   0.08073   0.92583   0.00000  Uiso   1.00
C345   C     0.47094   0.07068   0.00017   0.00000  Uiso   1.00
H346   H     0.48430   0.30137   0.93319   0.00000  Uiso   1.00
H347   H     0.59193   0.35564   0.98343   0.00000  Uiso   1.00
H348   H     0.42777   0.33710   0.77855   0.00000  Uiso   1.00
H349   H     0.42428   0.22581   0.04990   0.00000  Uiso   1.00
H350   H     0.72525   0.39305   0.01962   0.00000  Uiso   1.00
H351   H     0.37911   0.35396   0.58763   0.00000  Uiso   1.00
H352   H     0.37174   0.11927   0.15983   0.00000  Uiso   1.00
H353   H     0.59213   0.12599   0.78317   0.00000  Uiso   1.00
H354   H     0.70569   0.17063   0.82518   0.00000  Uiso   1.00
H355   H     0.54153   0.15210   0.62030   0.00000  Uiso   1.00
H356   H     0.53804   0.04081   0.89165   0.00000  Uiso   1.00
H357   H     0.81759   0.24290   0.89118   0.00000  Uiso   1.00
H358   H     0.47144   0.20381   0.45918   0.00000  Uiso   1.00
H359   H     0.46407   0.96912   0.03139   0.00000  Uiso   1.00
O360   O     0.84417   0.35052   0.98571   0.00000  Uiso   1.00
O361   O     0.39003   0.29922   0.41896   0.00000  Uiso   1.00
O362   O     0.38037   0.99133   0.16968   0.00000  Uiso   1.00
N363   N     0.73140   0.35158   0.98365   0.00000  Uiso   1.00
N364   N     0.40778   0.31504   0.57975   0.00000  Uiso   1.00
N365   N     0.40088   0.09563   0.11470   0.00000  Uiso   1.00
N366   N     0.78108   0.27078   0.91453   0.00000  Uiso   1.00
N367   N     0.45747   0.23424   0.51064   0.00000  Uiso   1.00
N368   N     0.45056   0.01483   0.04558   0.00000  Uiso   1.00
