data_job_05528
_audit_creation_date              2018-12-19
_audit_creation_method            'Materials Studio'
_symmetry_space_group_name_H-M    'P1'
_symmetry_Int_Tables_number       1
_symmetry_cell_setting            triclinic
loop_
_symmetry_equiv_pos_as_xyz
  x,y,z
_cell_length_a                    22.2427
_cell_length_b                    22.2427
_cell_length_c                    12.4751
_cell_angle_alpha                 90.0000
_cell_angle_beta                  90.0000
_cell_angle_gamma                 90.0000
loop_
_atom_site_label
_atom_site_type_symbol
_atom_site_fract_x
_atom_site_fract_y
_atom_site_fract_z
_atom_site_U_iso_or_equiv
_atom_site_adp_type
_atom_site_occupancy
C1     C     0.16146   0.96266   0.09154   0.00000  Uiso   1.00
C2     C     0.15803   0.93285   0.98163   0.00000  Uiso   1.00
C3     C     0.10757   0.93059   0.91633   0.00000  Uiso   1.00
C4     C     0.11359   0.90121   0.81872   0.00000  Uiso   1.00
C5     C     0.09996   0.85889   0.65281   0.00000  Uiso   1.00
C6     C     0.18256   0.91398   0.16896   0.00000  Uiso   1.00
C7     C     0.15273   0.89586   0.26117   0.00000  Uiso   1.00
C8     C     0.17942   0.85060   0.32126   0.00000  Uiso   1.00
C9     C     0.20390   0.77901   0.44623   0.00000  Uiso   1.00
C10    C     0.21261   0.00814   0.08482   0.00000  Uiso   1.00
C11    C     0.20806   0.06919   0.10631   0.00000  Uiso   1.00
C12    C     0.26005   0.10321   0.09559   0.00000  Uiso   1.00
C13    C     0.33119   0.17781   0.08992   0.00000  Uiso   1.00
C14    C     0.26190   0.91451   0.03431   0.00000  Uiso   1.00
C15    C     0.21259   0.90670   0.95054   0.00000  Uiso   1.00
C16    C     0.21869   0.87732   0.85301   0.00000  Uiso   1.00
C17    C     0.16825   0.87502   0.78758   0.00000  Uiso   1.00
C18    C     0.23712   0.88783   0.13787   0.00000  Uiso   1.00
C19    C     0.26386   0.84259   0.19785   0.00000  Uiso   1.00
C20    C     0.23408   0.82440   0.29012   0.00000  Uiso   1.00
C21    C     0.26717   0.98199   0.05373   0.00000  Uiso   1.00
C22    C     0.31918   0.01592   0.04298   0.00000  Uiso   1.00
C23    C     0.31471   0.07701   0.06445   0.00000  Uiso   1.00
H24    H     0.11899   0.98302   0.11575   0.00000  Uiso   1.00
H25    H     0.06535   0.95083   0.94042   0.00000  Uiso   1.00
H26    H     0.11052   0.91611   0.28521   0.00000  Uiso   1.00
H27    H     0.16583   0.08941   0.13037   0.00000  Uiso   1.00
H28    H     0.02994   0.90359   0.73235   0.00000  Uiso   1.00
H29    H     0.12519   0.83039   0.45938   0.00000  Uiso   1.00
H30    H     0.24183   0.19584   0.13287   0.00000  Uiso   1.00
H31    H     0.30438   0.89415   0.01011   0.00000  Uiso   1.00
H32    H     0.26092   0.85709   0.82897   0.00000  Uiso   1.00
H33    H     0.30608   0.82237   0.17377   0.00000  Uiso   1.00
H34    H     0.36139   0.99567   0.01893   0.00000  Uiso   1.00
H35    H     0.18867   0.82751   0.64190   0.00000  Uiso   1.00
H36    H     0.28391   0.75431   0.36893   0.00000  Uiso   1.00
H37    H     0.40055   0.11976   0.04242   0.00000  Uiso   1.00
O38    O     0.07737   0.84275   0.56989   0.00000  Uiso   1.00
O39    O     0.20233   0.74673   0.52374   0.00000  Uiso   1.00
O40    O     0.35535   0.22619   0.09536   0.00000  Uiso   1.00
N41    N     0.07327   0.89078   0.73591   0.00000  Uiso   1.00
N42    N     0.16231   0.82234   0.41563   0.00000  Uiso   1.00
N43    N     0.27136   0.16400   0.11040   0.00000  Uiso   1.00
N44    N     0.15868   0.84984   0.68724   0.00000  Uiso   1.00
N45    N     0.24772   0.78140   0.36696   0.00000  Uiso   1.00
N46    N     0.35677   0.12306   0.06173   0.00000  Uiso   1.00
C47    C     0.66146   0.46266   0.59154   0.00000  Uiso   1.00
C48    C     0.65803   0.43285   0.48163   0.00000  Uiso   1.00
C49    C     0.60757   0.43059   0.41633   0.00000  Uiso   1.00
C50    C     0.61359   0.40121   0.31872   0.00000  Uiso   1.00
C51    C     0.59996   0.35889   0.15281   0.00000  Uiso   1.00
C52    C     0.68256   0.41398   0.66896   0.00000  Uiso   1.00
C53    C     0.65273   0.39586   0.76117   0.00000  Uiso   1.00
C54    C     0.67942   0.35060   0.82126   0.00000  Uiso   1.00
C55    C     0.70390   0.27901   0.94623   0.00000  Uiso   1.00
C56    C     0.71261   0.50814   0.58482   0.00000  Uiso   1.00
C57    C     0.70806   0.56919   0.60631   0.00000  Uiso   1.00
C58    C     0.76005   0.60321   0.59559   0.00000  Uiso   1.00
C59    C     0.83119   0.67781   0.58992   0.00000  Uiso   1.00
C60    C     0.76190   0.41451   0.53431   0.00000  Uiso   1.00
C61    C     0.71259   0.40670   0.45054   0.00000  Uiso   1.00
C62    C     0.71869   0.37732   0.35301   0.00000  Uiso   1.00
C63    C     0.66825   0.37502   0.28758   0.00000  Uiso   1.00
C64    C     0.73712   0.38783   0.63787   0.00000  Uiso   1.00
C65    C     0.76386   0.34259   0.69785   0.00000  Uiso   1.00
C66    C     0.73408   0.32440   0.79012   0.00000  Uiso   1.00
C67    C     0.76717   0.48199   0.55373   0.00000  Uiso   1.00
C68    C     0.81918   0.51592   0.54298   0.00000  Uiso   1.00
C69    C     0.81471   0.57701   0.56445   0.00000  Uiso   1.00
H70    H     0.61899   0.48302   0.61575   0.00000  Uiso   1.00
H71    H     0.56535   0.45083   0.44042   0.00000  Uiso   1.00
H72    H     0.61052   0.41611   0.78521   0.00000  Uiso   1.00
H73    H     0.66583   0.58941   0.63037   0.00000  Uiso   1.00
H74    H     0.52994   0.40359   0.23235   0.00000  Uiso   1.00
H75    H     0.62519   0.33039   0.95938   0.00000  Uiso   1.00
H76    H     0.74183   0.69584   0.63287   0.00000  Uiso   1.00
H77    H     0.80438   0.39415   0.51011   0.00000  Uiso   1.00
H78    H     0.76092   0.35709   0.32897   0.00000  Uiso   1.00
H79    H     0.80608   0.32237   0.67377   0.00000  Uiso   1.00
H80    H     0.86139   0.49567   0.51893   0.00000  Uiso   1.00
H81    H     0.68867   0.32751   0.14190   0.00000  Uiso   1.00
H82    H     0.78391   0.25431   0.86893   0.00000  Uiso   1.00
H83    H     0.90055   0.61976   0.54242   0.00000  Uiso   1.00
O84    O     0.57737   0.34275   0.06989   0.00000  Uiso   1.00
O85    O     0.70233   0.24673   0.02374   0.00000  Uiso   1.00
O86    O     0.85535   0.72619   0.59536   0.00000  Uiso   1.00
N87    N     0.57327   0.39078   0.23591   0.00000  Uiso   1.00
N88    N     0.66231   0.32234   0.91563   0.00000  Uiso   1.00
N89    N     0.77136   0.66400   0.61040   0.00000  Uiso   1.00
N90    N     0.65868   0.34984   0.18724   0.00000  Uiso   1.00
N91    N     0.74772   0.28140   0.86696   0.00000  Uiso   1.00
N92    N     0.85677   0.62306   0.56173   0.00000  Uiso   1.00
C93    C     0.83854   0.03734   0.09154   0.00000  Uiso   1.00
C94    C     0.84197   0.06715   0.98163   0.00000  Uiso   1.00
C95    C     0.89243   0.06941   0.91633   0.00000  Uiso   1.00
C96    C     0.88641   0.09879   0.81872   0.00000  Uiso   1.00
C97    C     0.90004   0.14111   0.65281   0.00000  Uiso   1.00
C98    C     0.81744   0.08602   0.16896   0.00000  Uiso   1.00
C99    C     0.84727   0.10414   0.26117   0.00000  Uiso   1.00
C100   C     0.82058   0.14940   0.32126   0.00000  Uiso   1.00
C101   C     0.79610   0.22099   0.44623   0.00000  Uiso   1.00
C102   C     0.78739   0.99186   0.08482   0.00000  Uiso   1.00
C103   C     0.79194   0.93081   0.10631   0.00000  Uiso   1.00
C104   C     0.73995   0.89679   0.09559   0.00000  Uiso   1.00
C105   C     0.66881   0.82219   0.08992   0.00000  Uiso   1.00
C106   C     0.73810   0.08549   0.03431   0.00000  Uiso   1.00
C107   C     0.78741   0.09330   0.95054   0.00000  Uiso   1.00
C108   C     0.78131   0.12268   0.85301   0.00000  Uiso   1.00
C109   C     0.83175   0.12498   0.78758   0.00000  Uiso   1.00
C110   C     0.76288   0.11217   0.13787   0.00000  Uiso   1.00
C111   C     0.73614   0.15741   0.19785   0.00000  Uiso   1.00
C112   C     0.76592   0.17560   0.29012   0.00000  Uiso   1.00
C113   C     0.73283   0.01801   0.05373   0.00000  Uiso   1.00
C114   C     0.68082   0.98408   0.04298   0.00000  Uiso   1.00
C115   C     0.68529   0.92299   0.06445   0.00000  Uiso   1.00
H116   H     0.88101   0.01698   0.11575   0.00000  Uiso   1.00
H117   H     0.93465   0.04917   0.94042   0.00000  Uiso   1.00
H118   H     0.88948   0.08389   0.28521   0.00000  Uiso   1.00
H119   H     0.83417   0.91059   0.13037   0.00000  Uiso   1.00
H120   H     0.97006   0.09641   0.73235   0.00000  Uiso   1.00
H121   H     0.87481   0.16961   0.45938   0.00000  Uiso   1.00
H122   H     0.75817   0.80416   0.13287   0.00000  Uiso   1.00
H123   H     0.69562   0.10585   0.01011   0.00000  Uiso   1.00
H124   H     0.73908   0.14291   0.82897   0.00000  Uiso   1.00
H125   H     0.69392   0.17763   0.17377   0.00000  Uiso   1.00
H126   H     0.63861   0.00433   0.01893   0.00000  Uiso   1.00
H127   H     0.81133   0.17249   0.64190   0.00000  Uiso   1.00
H128   H     0.71609   0.24569   0.36893   0.00000  Uiso   1.00
H129   H     0.59945   0.88024   0.04242   0.00000  Uiso   1.00
O130   O     0.92263   0.15725   0.56989   0.00000  Uiso   1.00
O131   O     0.79767   0.25327   0.52374   0.00000  Uiso   1.00
O132   O     0.64465   0.77381   0.09536   0.00000  Uiso   1.00
N133   N     0.92673   0.10922   0.73591   0.00000  Uiso   1.00
N134   N     0.83769   0.17766   0.41563   0.00000  Uiso   1.00
N135   N     0.72864   0.83600   0.11040   0.00000  Uiso   1.00
N136   N     0.84132   0.15016   0.68724   0.00000  Uiso   1.00
N137   N     0.75228   0.21860   0.36696   0.00000  Uiso   1.00
N138   N     0.64323   0.87694   0.06173   0.00000  Uiso   1.00
C139   C     0.33854   0.53734   0.59154   0.00000  Uiso   1.00
C140   C     0.34197   0.56715   0.48163   0.00000  Uiso   1.00
C141   C     0.39243   0.56941   0.41633   0.00000  Uiso   1.00
C142   C     0.38641   0.59879   0.31872   0.00000  Uiso   1.00
C143   C     0.40004   0.64111   0.15281   0.00000  Uiso   1.00
C144   C     0.31744   0.58602   0.66896   0.00000  Uiso   1.00
C145   C     0.34727   0.60414   0.76117   0.00000  Uiso   1.00
C146   C     0.32058   0.64940   0.82126   0.00000  Uiso   1.00
C147   C     0.29610   0.72099   0.94623   0.00000  Uiso   1.00
C148   C     0.28739   0.49186   0.58482   0.00000  Uiso   1.00
C149   C     0.29194   0.43081   0.60631   0.00000  Uiso   1.00
C150   C     0.23995   0.39679   0.59559   0.00000  Uiso   1.00
C151   C     0.16881   0.32219   0.58992   0.00000  Uiso   1.00
C152   C     0.23810   0.58549   0.53431   0.00000  Uiso   1.00
C153   C     0.28741   0.59330   0.45054   0.00000  Uiso   1.00
C154   C     0.28131   0.62268   0.35301   0.00000  Uiso   1.00
C155   C     0.33175   0.62498   0.28758   0.00000  Uiso   1.00
C156   C     0.26288   0.61217   0.63787   0.00000  Uiso   1.00
C157   C     0.23614   0.65741   0.69785   0.00000  Uiso   1.00
C158   C     0.26592   0.67560   0.79012   0.00000  Uiso   1.00
C159   C     0.23283   0.51801   0.55373   0.00000  Uiso   1.00
C160   C     0.18082   0.48408   0.54298   0.00000  Uiso   1.00
C161   C     0.18529   0.42299   0.56445   0.00000  Uiso   1.00
H162   H     0.38101   0.51698   0.61575   0.00000  Uiso   1.00
H163   H     0.43465   0.54917   0.44042   0.00000  Uiso   1.00
H164   H     0.38948   0.58389   0.78521   0.00000  Uiso   1.00
H165   H     0.33417   0.41059   0.63037   0.00000  Uiso   1.00
H166   H     0.47006   0.59641   0.23235   0.00000  Uiso   1.00
H167   H     0.37481   0.66961   0.95938   0.00000  Uiso   1.00
H168   H     0.25817   0.30416   0.63287   0.00000  Uiso   1.00
H169   H     0.19562   0.60585   0.51011   0.00000  Uiso   1.00
H170   H     0.23908   0.64291   0.32897   0.00000  Uiso   1.00
H171   H     0.19392   0.67763   0.67377   0.00000  Uiso   1.00
H172   H     0.13861   0.50433   0.51893   0.00000  Uiso   1.00
H173   H     0.31133   0.67249   0.14190   0.00000  Uiso   1.00
H174   H     0.21609   0.74569   0.86893   0.00000  Uiso   1.00
H175   H     0.09945   0.38024   0.54242   0.00000  Uiso   1.00
O176   O     0.42263   0.65725   0.06989   0.00000  Uiso   1.00
O177   O     0.29767   0.75327   0.02374   0.00000  Uiso   1.00
O178   O     0.14465   0.27381   0.59536   0.00000  Uiso   1.00
N179   N     0.42673   0.60922   0.23591   0.00000  Uiso   1.00
N180   N     0.33769   0.67766   0.91563   0.00000  Uiso   1.00
N181   N     0.22864   0.33600   0.61040   0.00000  Uiso   1.00
N182   N     0.34132   0.65016   0.18724   0.00000  Uiso   1.00
N183   N     0.25228   0.71860   0.86696   0.00000  Uiso   1.00
N184   N     0.14323   0.37694   0.56173   0.00000  Uiso   1.00
C185   C     0.03734   0.16146   0.09154   0.00000  Uiso   1.00
C186   C     0.06715   0.15803   0.98163   0.00000  Uiso   1.00
C187   C     0.06941   0.10757   0.91633   0.00000  Uiso   1.00
C188   C     0.09879   0.11359   0.81872   0.00000  Uiso   1.00
C189   C     0.14111   0.09996   0.65281   0.00000  Uiso   1.00
C190   C     0.08602   0.18256   0.16896   0.00000  Uiso   1.00
C191   C     0.10414   0.15273   0.26117   0.00000  Uiso   1.00
C192   C     0.14940   0.17942   0.32126   0.00000  Uiso   1.00
C193   C     0.22099   0.20390   0.44623   0.00000  Uiso   1.00
C194   C     0.99186   0.21261   0.08482   0.00000  Uiso   1.00
C195   C     0.93081   0.20806   0.10631   0.00000  Uiso   1.00
C196   C     0.89679   0.26005   0.09559   0.00000  Uiso   1.00
C197   C     0.82219   0.33119   0.08992   0.00000  Uiso   1.00
C198   C     0.08549   0.26190   0.03431   0.00000  Uiso   1.00
C199   C     0.09330   0.21259   0.95054   0.00000  Uiso   1.00
C200   C     0.12268   0.21869   0.85301   0.00000  Uiso   1.00
C201   C     0.12498   0.16825   0.78758   0.00000  Uiso   1.00
C202   C     0.11217   0.23712   0.13787   0.00000  Uiso   1.00
C203   C     0.15741   0.26386   0.19785   0.00000  Uiso   1.00
C204   C     0.17560   0.23408   0.29012   0.00000  Uiso   1.00
C205   C     0.01801   0.26717   0.05373   0.00000  Uiso   1.00
C206   C     0.98408   0.31918   0.04298   0.00000  Uiso   1.00
C207   C     0.92299   0.31471   0.06445   0.00000  Uiso   1.00
H208   H     0.01698   0.11899   0.11575   0.00000  Uiso   1.00
H209   H     0.04917   0.06535   0.94042   0.00000  Uiso   1.00
H210   H     0.08389   0.11052   0.28521   0.00000  Uiso   1.00
H211   H     0.91059   0.16583   0.13037   0.00000  Uiso   1.00
H212   H     0.09641   0.02994   0.73235   0.00000  Uiso   1.00
H213   H     0.16961   0.12519   0.45938   0.00000  Uiso   1.00
H214   H     0.80416   0.24183   0.13287   0.00000  Uiso   1.00
H215   H     0.10585   0.30438   0.01011   0.00000  Uiso   1.00
H216   H     0.14291   0.26092   0.82897   0.00000  Uiso   1.00
H217   H     0.17763   0.30608   0.17377   0.00000  Uiso   1.00
H218   H     0.00433   0.36139   0.01893   0.00000  Uiso   1.00
H219   H     0.17249   0.18867   0.64190   0.00000  Uiso   1.00
H220   H     0.24569   0.28391   0.36893   0.00000  Uiso   1.00
H221   H     0.88024   0.40055   0.04242   0.00000  Uiso   1.00
O222   O     0.15725   0.07737   0.56989   0.00000  Uiso   1.00
O223   O     0.25327   0.20233   0.52374   0.00000  Uiso   1.00
O224   O     0.77381   0.35535   0.09536   0.00000  Uiso   1.00
N225   N     0.10922   0.07327   0.73591   0.00000  Uiso   1.00
N226   N     0.17766   0.16231   0.41563   0.00000  Uiso   1.00
N227   N     0.83600   0.27136   0.11040   0.00000  Uiso   1.00
N228   N     0.15016   0.15868   0.68724   0.00000  Uiso   1.00
N229   N     0.21860   0.24772   0.36696   0.00000  Uiso   1.00
N230   N     0.87694   0.35677   0.06173   0.00000  Uiso   1.00
C231   C     0.53734   0.66146   0.59154   0.00000  Uiso   1.00
C232   C     0.56715   0.65803   0.48163   0.00000  Uiso   1.00
C233   C     0.56941   0.60757   0.41633   0.00000  Uiso   1.00
C234   C     0.59879   0.61359   0.31872   0.00000  Uiso   1.00
C235   C     0.64111   0.59996   0.15281   0.00000  Uiso   1.00
C236   C     0.58602   0.68256   0.66896   0.00000  Uiso   1.00
C237   C     0.60414   0.65273   0.76117   0.00000  Uiso   1.00
C238   C     0.64940   0.67942   0.82126   0.00000  Uiso   1.00
C239   C     0.72099   0.70390   0.94623   0.00000  Uiso   1.00
C240   C     0.49186   0.71261   0.58482   0.00000  Uiso   1.00
C241   C     0.43081   0.70806   0.60631   0.00000  Uiso   1.00
C242   C     0.39679   0.76005   0.59559   0.00000  Uiso   1.00
C243   C     0.32219   0.83119   0.58992   0.00000  Uiso   1.00
C244   C     0.58549   0.76190   0.53431   0.00000  Uiso   1.00
C245   C     0.59330   0.71259   0.45054   0.00000  Uiso   1.00
C246   C     0.62268   0.71869   0.35301   0.00000  Uiso   1.00
C247   C     0.62498   0.66825   0.28758   0.00000  Uiso   1.00
C248   C     0.61217   0.73712   0.63787   0.00000  Uiso   1.00
C249   C     0.65741   0.76386   0.69785   0.00000  Uiso   1.00
C250   C     0.67560   0.73408   0.79012   0.00000  Uiso   1.00
C251   C     0.51801   0.76717   0.55373   0.00000  Uiso   1.00
C252   C     0.48408   0.81918   0.54298   0.00000  Uiso   1.00
C253   C     0.42299   0.81471   0.56445   0.00000  Uiso   1.00
H254   H     0.51698   0.61899   0.61575   0.00000  Uiso   1.00
H255   H     0.54917   0.56535   0.44042   0.00000  Uiso   1.00
H256   H     0.58389   0.61052   0.78521   0.00000  Uiso   1.00
H257   H     0.41059   0.66583   0.63037   0.00000  Uiso   1.00
H258   H     0.59641   0.52994   0.23235   0.00000  Uiso   1.00
H259   H     0.66961   0.62519   0.95938   0.00000  Uiso   1.00
H260   H     0.30416   0.74183   0.63287   0.00000  Uiso   1.00
H261   H     0.60585   0.80438   0.51011   0.00000  Uiso   1.00
H262   H     0.64291   0.76092   0.32897   0.00000  Uiso   1.00
H263   H     0.67763   0.80608   0.67377   0.00000  Uiso   1.00
H264   H     0.50433   0.86139   0.51893   0.00000  Uiso   1.00
H265   H     0.67249   0.68867   0.14190   0.00000  Uiso   1.00
H266   H     0.74569   0.78391   0.86893   0.00000  Uiso   1.00
H267   H     0.38024   0.90055   0.54242   0.00000  Uiso   1.00
O268   O     0.65725   0.57737   0.06989   0.00000  Uiso   1.00
O269   O     0.75327   0.70233   0.02374   0.00000  Uiso   1.00
O270   O     0.27381   0.85535   0.59536   0.00000  Uiso   1.00
N271   N     0.60922   0.57327   0.23591   0.00000  Uiso   1.00
N272   N     0.67766   0.66231   0.91563   0.00000  Uiso   1.00
N273   N     0.33600   0.77136   0.61040   0.00000  Uiso   1.00
N274   N     0.65016   0.65868   0.18724   0.00000  Uiso   1.00
N275   N     0.71860   0.74772   0.86696   0.00000  Uiso   1.00
N276   N     0.37694   0.85677   0.56173   0.00000  Uiso   1.00
C277   C     0.96266   0.83854   0.09154   0.00000  Uiso   1.00
C278   C     0.93285   0.84197   0.98163   0.00000  Uiso   1.00
C279   C     0.93059   0.89243   0.91633   0.00000  Uiso   1.00
C280   C     0.90121   0.88641   0.81872   0.00000  Uiso   1.00
C281   C     0.85889   0.90004   0.65281   0.00000  Uiso   1.00
C282   C     0.91398   0.81744   0.16896   0.00000  Uiso   1.00
C283   C     0.89586   0.84727   0.26117   0.00000  Uiso   1.00
C284   C     0.85060   0.82058   0.32126   0.00000  Uiso   1.00
C285   C     0.77901   0.79610   0.44623   0.00000  Uiso   1.00
C286   C     0.00814   0.78739   0.08482   0.00000  Uiso   1.00
C287   C     0.06919   0.79194   0.10631   0.00000  Uiso   1.00
C288   C     0.10321   0.73995   0.09559   0.00000  Uiso   1.00
C289   C     0.17781   0.66881   0.08992   0.00000  Uiso   1.00
C290   C     0.91451   0.73810   0.03431   0.00000  Uiso   1.00
C291   C     0.90670   0.78741   0.95054   0.00000  Uiso   1.00
C292   C     0.87732   0.78131   0.85301   0.00000  Uiso   1.00
C293   C     0.87502   0.83175   0.78758   0.00000  Uiso   1.00
C294   C     0.88783   0.76288   0.13787   0.00000  Uiso   1.00
C295   C     0.84259   0.73614   0.19785   0.00000  Uiso   1.00
C296   C     0.82440   0.76592   0.29012   0.00000  Uiso   1.00
C297   C     0.98199   0.73283   0.05373   0.00000  Uiso   1.00
C298   C     0.01592   0.68082   0.04298   0.00000  Uiso   1.00
C299   C     0.07701   0.68529   0.06445   0.00000  Uiso   1.00
H300   H     0.98302   0.88101   0.11575   0.00000  Uiso   1.00
H301   H     0.95083   0.93465   0.94042   0.00000  Uiso   1.00
H302   H     0.91611   0.88948   0.28521   0.00000  Uiso   1.00
H303   H     0.08941   0.83417   0.13037   0.00000  Uiso   1.00
H304   H     0.90359   0.97006   0.73235   0.00000  Uiso   1.00
H305   H     0.83039   0.87481   0.45938   0.00000  Uiso   1.00
H306   H     0.19584   0.75817   0.13287   0.00000  Uiso   1.00
H307   H     0.89415   0.69562   0.01011   0.00000  Uiso   1.00
H308   H     0.85709   0.73908   0.82897   0.00000  Uiso   1.00
H309   H     0.82237   0.69392   0.17377   0.00000  Uiso   1.00
H310   H     0.99567   0.63861   0.01893   0.00000  Uiso   1.00
H311   H     0.82751   0.81133   0.64190   0.00000  Uiso   1.00
H312   H     0.75431   0.71609   0.36893   0.00000  Uiso   1.00
H313   H     0.11976   0.59945   0.04242   0.00000  Uiso   1.00
O314   O     0.84275   0.92263   0.56989   0.00000  Uiso   1.00
O315   O     0.74673   0.79767   0.52374   0.00000  Uiso   1.00
O316   O     0.22619   0.64465   0.09536   0.00000  Uiso   1.00
N317   N     0.89078   0.92673   0.73591   0.00000  Uiso   1.00
N318   N     0.82234   0.83769   0.41563   0.00000  Uiso   1.00
N319   N     0.16400   0.72864   0.11040   0.00000  Uiso   1.00
N320   N     0.84984   0.84132   0.68724   0.00000  Uiso   1.00
N321   N     0.78140   0.75228   0.36696   0.00000  Uiso   1.00
N322   N     0.12306   0.64323   0.06173   0.00000  Uiso   1.00
C323   C     0.46266   0.33854   0.59154   0.00000  Uiso   1.00
C324   C     0.43285   0.34197   0.48163   0.00000  Uiso   1.00
C325   C     0.43059   0.39243   0.41633   0.00000  Uiso   1.00
C326   C     0.40121   0.38641   0.31872   0.00000  Uiso   1.00
C327   C     0.35889   0.40004   0.15281   0.00000  Uiso   1.00
C328   C     0.41398   0.31744   0.66896   0.00000  Uiso   1.00
C329   C     0.39586   0.34727   0.76117   0.00000  Uiso   1.00
C330   C     0.35060   0.32058   0.82126   0.00000  Uiso   1.00
C331   C     0.27901   0.29610   0.94623   0.00000  Uiso   1.00
C332   C     0.50814   0.28739   0.58482   0.00000  Uiso   1.00
C333   C     0.56919   0.29194   0.60631   0.00000  Uiso   1.00
C334   C     0.60321   0.23995   0.59559   0.00000  Uiso   1.00
C335   C     0.67781   0.16881   0.58992   0.00000  Uiso   1.00
C336   C     0.41451   0.23810   0.53431   0.00000  Uiso   1.00
C337   C     0.40670   0.28741   0.45054   0.00000  Uiso   1.00
C338   C     0.37732   0.28131   0.35301   0.00000  Uiso   1.00
C339   C     0.37502   0.33175   0.28758   0.00000  Uiso   1.00
C340   C     0.38783   0.26288   0.63787   0.00000  Uiso   1.00
C341   C     0.34259   0.23614   0.69785   0.00000  Uiso   1.00
C342   C     0.32440   0.26592   0.79012   0.00000  Uiso   1.00
C343   C     0.48199   0.23283   0.55373   0.00000  Uiso   1.00
C344   C     0.51592   0.18082   0.54298   0.00000  Uiso   1.00
C345   C     0.57701   0.18529   0.56445   0.00000  Uiso   1.00
H346   H     0.48302   0.38101   0.61575   0.00000  Uiso   1.00
H347   H     0.45083   0.43465   0.44042   0.00000  Uiso   1.00
H348   H     0.41611   0.38948   0.78521   0.00000  Uiso   1.00
H349   H     0.58941   0.33417   0.63037   0.00000  Uiso   1.00
H350   H     0.40359   0.47006   0.23235   0.00000  Uiso   1.00
H351   H     0.33039   0.37481   0.95938   0.00000  Uiso   1.00
H352   H     0.69584   0.25817   0.63287   0.00000  Uiso   1.00
H353   H     0.39415   0.19562   0.51011   0.00000  Uiso   1.00
H354   H     0.35709   0.23908   0.32897   0.00000  Uiso   1.00
H355   H     0.32237   0.19392   0.67377   0.00000  Uiso   1.00
H356   H     0.49567   0.13861   0.51893   0.00000  Uiso   1.00
H357   H     0.32751   0.31133   0.14190   0.00000  Uiso   1.00
H358   H     0.25431   0.21609   0.86893   0.00000  Uiso   1.00
H359   H     0.61976   0.09945   0.54242   0.00000  Uiso   1.00
O360   O     0.34275   0.42263   0.06989   0.00000  Uiso   1.00
O361   O     0.24673   0.29767   0.02374   0.00000  Uiso   1.00
O362   O     0.72619   0.14465   0.59536   0.00000  Uiso   1.00
N363   N     0.39078   0.42673   0.23591   0.00000  Uiso   1.00
N364   N     0.32234   0.33769   0.91563   0.00000  Uiso   1.00
N365   N     0.66400   0.22864   0.61040   0.00000  Uiso   1.00
N366   N     0.34984   0.34132   0.18724   0.00000  Uiso   1.00
N367   N     0.28140   0.25228   0.86696   0.00000  Uiso   1.00
N368   N     0.62306   0.14323   0.56173   0.00000  Uiso   1.00
