data_job_00797
_audit_creation_date              2018-12-19
_audit_creation_method            'Materials Studio'
_symmetry_space_group_name_H-M    'P1'
_symmetry_Int_Tables_number       1
_symmetry_cell_setting            triclinic
loop_
_symmetry_equiv_pos_as_xyz
  x,y,z
_cell_length_a                    21.9648
_cell_length_b                    23.6989
_cell_length_c                    12.8196
_cell_angle_alpha                 90.0000
_cell_angle_beta                  62.9533
_cell_angle_gamma                 90.0000
loop_
_atom_site_label
_atom_site_type_symbol
_atom_site_fract_x
_atom_site_fract_y
_atom_site_fract_z
_atom_site_U_iso_or_equiv
_atom_site_adp_type
_atom_site_occupancy
C1     C     0.19664   0.61086   0.23255   0.00000  Uiso   1.00
C2     C     0.18444   0.64054   0.34594   0.00000  Uiso   1.00
C3     C     0.12366   0.66550   0.42469   0.00000  Uiso   1.00
C4     C     0.12286   0.69050   0.52326   0.00000  Uiso   1.00
C5     C     0.09510   0.73661   0.69641   0.00000  Uiso   1.00
C6     C     0.25758   0.64054   0.13515   0.00000  Uiso   1.00
C7     C     0.25829   0.66549   0.03666   0.00000  Uiso   1.00
C8     C     0.31907   0.69047   0.95776   0.00000  Uiso   1.00
C9     C     0.40489   0.73654   0.80361   0.00000  Uiso   1.00
C10    C     0.22101   0.55151   0.24054   0.00000  Uiso   1.00
C11    C     0.19099   0.50160   0.23063   0.00000  Uiso   1.00
C12    C     0.22099   0.45163   0.24044   0.00000  Uiso   1.00
C13    C     0.25003   0.35947   0.24992   0.00000  Uiso   1.00
C14    C     0.30332   0.61086   0.26756   0.00000  Uiso   1.00
C15    C     0.24238   0.64054   0.36495   0.00000  Uiso   1.00
C16    C     0.24168   0.66550   0.46343   0.00000  Uiso   1.00
C17    C     0.18090   0.69050   0.54231   0.00000  Uiso   1.00
C18    C     0.31552   0.64054   0.15416   0.00000  Uiso   1.00
C19    C     0.37631   0.66549   0.07539   0.00000  Uiso   1.00
C20    C     0.37712   0.69048   0.97681   0.00000  Uiso   1.00
C21    C     0.27896   0.55151   0.25956   0.00000  Uiso   1.00
C22    C     0.30901   0.50161   0.26937   0.00000  Uiso   1.00
C23    C     0.27904   0.45163   0.25949   0.00000  Uiso   1.00
H24    H     0.15154   0.61086   0.21774   0.00000  Uiso   1.00
H25    H     0.07883   0.66550   0.40994   0.00000  Uiso   1.00
H26    H     0.21345   0.66548   0.02196   0.00000  Uiso   1.00
H27    H     0.14616   0.50162   0.21591   0.00000  Uiso   1.00
H28    H     0.02378   0.72609   0.63140   0.00000  Uiso   1.00
H29    H     0.30764   0.72603   0.81330   0.00000  Uiso   1.00
H30    H     0.16574   0.38050   0.22228   0.00000  Uiso   1.00
H31    H     0.34843   0.61086   0.28236   0.00000  Uiso   1.00
H32    H     0.28652   0.66550   0.47812   0.00000  Uiso   1.00
H33    H     0.42114   0.66548   0.09013   0.00000  Uiso   1.00
H34    H     0.35385   0.50162   0.28409   0.00000  Uiso   1.00
H35    H     0.19235   0.72609   0.68673   0.00000  Uiso   1.00
H36    H     0.47621   0.72603   0.86862   0.00000  Uiso   1.00
H37    H     0.33431   0.38051   0.27762   0.00000  Uiso   1.00
O38    O     0.06379   0.76205   0.78666   0.00000  Uiso   1.00
O39    O     0.43621   0.76196   0.71333   0.00000  Uiso   1.00
O40    O     0.25004   0.30864   0.24991   0.00000  Uiso   1.00
N41    N     0.07194   0.71858   0.61757   0.00000  Uiso   1.00
N42    N     0.33733   0.71854   0.85270   0.00000  Uiso   1.00
N43    N     0.20468   0.39550   0.23504   0.00000  Uiso   1.00
N44    N     0.16265   0.71858   0.64734   0.00000  Uiso   1.00
N45    N     0.42804   0.71854   0.88248   0.00000  Uiso   1.00
N46    N     0.29538   0.39550   0.26481   0.00000  Uiso   1.00
C47    C     0.69664   0.11086   0.23255   0.00000  Uiso   1.00
C48    C     0.68444   0.14054   0.34594   0.00000  Uiso   1.00
C49    C     0.62366   0.16550   0.42469   0.00000  Uiso   1.00
C50    C     0.62286   0.19050   0.52326   0.00000  Uiso   1.00
C51    C     0.59510   0.23661   0.69641   0.00000  Uiso   1.00
C52    C     0.75758   0.14054   0.13515   0.00000  Uiso   1.00
C53    C     0.75829   0.16549   0.03666   0.00000  Uiso   1.00
C54    C     0.81907   0.19047   0.95776   0.00000  Uiso   1.00
C55    C     0.90489   0.23654   0.80361   0.00000  Uiso   1.00
C56    C     0.72101   0.05151   0.24054   0.00000  Uiso   1.00
C57    C     0.69099   0.00160   0.23063   0.00000  Uiso   1.00
C58    C     0.72099   0.95163   0.24044   0.00000  Uiso   1.00
C59    C     0.75003   0.85947   0.24992   0.00000  Uiso   1.00
C60    C     0.80332   0.11086   0.26756   0.00000  Uiso   1.00
C61    C     0.74238   0.14054   0.36495   0.00000  Uiso   1.00
C62    C     0.74168   0.16550   0.46343   0.00000  Uiso   1.00
C63    C     0.68090   0.19050   0.54231   0.00000  Uiso   1.00
C64    C     0.81552   0.14054   0.15416   0.00000  Uiso   1.00
C65    C     0.87631   0.16549   0.07539   0.00000  Uiso   1.00
C66    C     0.87712   0.19048   0.97681   0.00000  Uiso   1.00
C67    C     0.77896   0.05151   0.25956   0.00000  Uiso   1.00
C68    C     0.80901   0.00161   0.26937   0.00000  Uiso   1.00
C69    C     0.77904   0.95163   0.25949   0.00000  Uiso   1.00
H70    H     0.65154   0.11086   0.21774   0.00000  Uiso   1.00
H71    H     0.57883   0.16550   0.40994   0.00000  Uiso   1.00
H72    H     0.71345   0.16548   0.02196   0.00000  Uiso   1.00
H73    H     0.64616   0.00162   0.21591   0.00000  Uiso   1.00
H74    H     0.52378   0.22609   0.63140   0.00000  Uiso   1.00
H75    H     0.80764   0.22603   0.81330   0.00000  Uiso   1.00
H76    H     0.66574   0.88050   0.22228   0.00000  Uiso   1.00
H77    H     0.84843   0.11086   0.28236   0.00000  Uiso   1.00
H78    H     0.78652   0.16550   0.47812   0.00000  Uiso   1.00
H79    H     0.92114   0.16548   0.09013   0.00000  Uiso   1.00
H80    H     0.85385   0.00162   0.28409   0.00000  Uiso   1.00
H81    H     0.69235   0.22609   0.68673   0.00000  Uiso   1.00
H82    H     0.97621   0.22603   0.86862   0.00000  Uiso   1.00
H83    H     0.83431   0.88051   0.27762   0.00000  Uiso   1.00
O84    O     0.56379   0.26205   0.78666   0.00000  Uiso   1.00
O85    O     0.93621   0.26196   0.71333   0.00000  Uiso   1.00
O86    O     0.75004   0.80864   0.24991   0.00000  Uiso   1.00
N87    N     0.57194   0.21858   0.61757   0.00000  Uiso   1.00
N88    N     0.83733   0.21854   0.85270   0.00000  Uiso   1.00
N89    N     0.70468   0.89550   0.23504   0.00000  Uiso   1.00
N90    N     0.66265   0.21858   0.64734   0.00000  Uiso   1.00
N91    N     0.92804   0.21854   0.88248   0.00000  Uiso   1.00
N92    N     0.79538   0.89550   0.26481   0.00000  Uiso   1.00
C93    C     0.80336   0.61086   0.26745   0.00000  Uiso   1.00
C94    C     0.81556   0.64054   0.15406   0.00000  Uiso   1.00
C95    C     0.87634   0.66550   0.07531   0.00000  Uiso   1.00
C96    C     0.87714   0.69050   0.97674   0.00000  Uiso   1.00
C97    C     0.90490   0.73661   0.80359   0.00000  Uiso   1.00
C98    C     0.74242   0.64054   0.36485   0.00000  Uiso   1.00
C99    C     0.74171   0.66549   0.46334   0.00000  Uiso   1.00
C100   C     0.68093   0.69047   0.54224   0.00000  Uiso   1.00
C101   C     0.59511   0.73654   0.69639   0.00000  Uiso   1.00
C102   C     0.77899   0.55151   0.25946   0.00000  Uiso   1.00
C103   C     0.80901   0.50160   0.26937   0.00000  Uiso   1.00
C104   C     0.77901   0.45163   0.25956   0.00000  Uiso   1.00
C105   C     0.74997   0.35947   0.25008   0.00000  Uiso   1.00
C106   C     0.69668   0.61086   0.23244   0.00000  Uiso   1.00
C107   C     0.75762   0.64054   0.13505   0.00000  Uiso   1.00
C108   C     0.75832   0.66550   0.03657   0.00000  Uiso   1.00
C109   C     0.81910   0.69050   0.95769   0.00000  Uiso   1.00
C110   C     0.68448   0.64054   0.34584   0.00000  Uiso   1.00
C111   C     0.62369   0.66549   0.42461   0.00000  Uiso   1.00
C112   C     0.62288   0.69048   0.52319   0.00000  Uiso   1.00
C113   C     0.72104   0.55151   0.24044   0.00000  Uiso   1.00
C114   C     0.69099   0.50161   0.23063   0.00000  Uiso   1.00
C115   C     0.72096   0.45163   0.24051   0.00000  Uiso   1.00
H116   H     0.84846   0.61086   0.28226   0.00000  Uiso   1.00
H117   H     0.92117   0.66550   0.09006   0.00000  Uiso   1.00
H118   H     0.78655   0.66548   0.47804   0.00000  Uiso   1.00
H119   H     0.85384   0.50162   0.28409   0.00000  Uiso   1.00
H120   H     0.97622   0.72609   0.86860   0.00000  Uiso   1.00
H121   H     0.69236   0.72603   0.68670   0.00000  Uiso   1.00
H122   H     0.83426   0.38050   0.27772   0.00000  Uiso   1.00
H123   H     0.65157   0.61086   0.21764   0.00000  Uiso   1.00
H124   H     0.71348   0.66550   0.02188   0.00000  Uiso   1.00
H125   H     0.57886   0.66548   0.40987   0.00000  Uiso   1.00
H126   H     0.64615   0.50162   0.21591   0.00000  Uiso   1.00
H127   H     0.80765   0.72609   0.81327   0.00000  Uiso   1.00
H128   H     0.52379   0.72603   0.63138   0.00000  Uiso   1.00
H129   H     0.66569   0.38051   0.22238   0.00000  Uiso   1.00
O130   O     0.93621   0.76205   0.71334   0.00000  Uiso   1.00
O131   O     0.56379   0.76196   0.78667   0.00000  Uiso   1.00
O132   O     0.74996   0.30864   0.25009   0.00000  Uiso   1.00
N133   N     0.92806   0.71858   0.88243   0.00000  Uiso   1.00
N134   N     0.66267   0.71854   0.64730   0.00000  Uiso   1.00
N135   N     0.79532   0.39550   0.26496   0.00000  Uiso   1.00
N136   N     0.83735   0.71858   0.85266   0.00000  Uiso   1.00
N137   N     0.57196   0.71854   0.61752   0.00000  Uiso   1.00
N138   N     0.70462   0.39550   0.23519   0.00000  Uiso   1.00
C139   C     0.30336   0.11086   0.26745   0.00000  Uiso   1.00
C140   C     0.31556   0.14054   0.15406   0.00000  Uiso   1.00
C141   C     0.37634   0.16550   0.07531   0.00000  Uiso   1.00
C142   C     0.37714   0.19050   0.97674   0.00000  Uiso   1.00
C143   C     0.40490   0.23661   0.80359   0.00000  Uiso   1.00
C144   C     0.24242   0.14054   0.36485   0.00000  Uiso   1.00
C145   C     0.24171   0.16549   0.46334   0.00000  Uiso   1.00
C146   C     0.18093   0.19047   0.54224   0.00000  Uiso   1.00
C147   C     0.09511   0.23654   0.69639   0.00000  Uiso   1.00
C148   C     0.27899   0.05151   0.25946   0.00000  Uiso   1.00
C149   C     0.30901   0.00160   0.26937   0.00000  Uiso   1.00
C150   C     0.27901   0.95163   0.25956   0.00000  Uiso   1.00
C151   C     0.24997   0.85947   0.25008   0.00000  Uiso   1.00
C152   C     0.19668   0.11086   0.23244   0.00000  Uiso   1.00
C153   C     0.25762   0.14054   0.13505   0.00000  Uiso   1.00
C154   C     0.25832   0.16550   0.03657   0.00000  Uiso   1.00
C155   C     0.31910   0.19050   0.95769   0.00000  Uiso   1.00
C156   C     0.18448   0.14054   0.34584   0.00000  Uiso   1.00
C157   C     0.12369   0.16549   0.42461   0.00000  Uiso   1.00
C158   C     0.12288   0.19048   0.52319   0.00000  Uiso   1.00
C159   C     0.22104   0.05151   0.24044   0.00000  Uiso   1.00
C160   C     0.19099   0.00161   0.23063   0.00000  Uiso   1.00
C161   C     0.22096   0.95163   0.24051   0.00000  Uiso   1.00
H162   H     0.34846   0.11086   0.28226   0.00000  Uiso   1.00
H163   H     0.42117   0.16550   0.09006   0.00000  Uiso   1.00
H164   H     0.28655   0.16548   0.47804   0.00000  Uiso   1.00
H165   H     0.35384   0.00162   0.28409   0.00000  Uiso   1.00
H166   H     0.47622   0.22609   0.86860   0.00000  Uiso   1.00
H167   H     0.19236   0.22603   0.68670   0.00000  Uiso   1.00
H168   H     0.33426   0.88050   0.27772   0.00000  Uiso   1.00
H169   H     0.15157   0.11086   0.21764   0.00000  Uiso   1.00
H170   H     0.21348   0.16550   0.02188   0.00000  Uiso   1.00
H171   H     0.07886   0.16548   0.40987   0.00000  Uiso   1.00
H172   H     0.14615   0.00162   0.21591   0.00000  Uiso   1.00
H173   H     0.30765   0.22609   0.81327   0.00000  Uiso   1.00
H174   H     0.02379   0.22603   0.63138   0.00000  Uiso   1.00
H175   H     0.16569   0.88051   0.22238   0.00000  Uiso   1.00
O176   O     0.43621   0.26205   0.71334   0.00000  Uiso   1.00
O177   O     0.06379   0.26196   0.78667   0.00000  Uiso   1.00
O178   O     0.24996   0.80864   0.25009   0.00000  Uiso   1.00
N179   N     0.42806   0.21858   0.88243   0.00000  Uiso   1.00
N180   N     0.16267   0.21854   0.64730   0.00000  Uiso   1.00
N181   N     0.29532   0.89550   0.26496   0.00000  Uiso   1.00
N182   N     0.33735   0.21858   0.85266   0.00000  Uiso   1.00
N183   N     0.07196   0.21854   0.61752   0.00000  Uiso   1.00
N184   N     0.20462   0.89550   0.23519   0.00000  Uiso   1.00
C185   C     0.80336   0.38914   0.76745   0.00000  Uiso   1.00
C186   C     0.81556   0.35946   0.65406   0.00000  Uiso   1.00
C187   C     0.87634   0.33450   0.57531   0.00000  Uiso   1.00
C188   C     0.87714   0.30950   0.47674   0.00000  Uiso   1.00
C189   C     0.90490   0.26339   0.30359   0.00000  Uiso   1.00
C190   C     0.74242   0.35946   0.86485   0.00000  Uiso   1.00
C191   C     0.74171   0.33451   0.96334   0.00000  Uiso   1.00
C192   C     0.68093   0.30953   0.04224   0.00000  Uiso   1.00
C193   C     0.59511   0.26346   0.19639   0.00000  Uiso   1.00
C194   C     0.77899   0.44849   0.75946   0.00000  Uiso   1.00
C195   C     0.80901   0.49840   0.76937   0.00000  Uiso   1.00
C196   C     0.77901   0.54837   0.75956   0.00000  Uiso   1.00
C197   C     0.74997   0.64053   0.75008   0.00000  Uiso   1.00
C198   C     0.69668   0.38914   0.73244   0.00000  Uiso   1.00
C199   C     0.75762   0.35946   0.63505   0.00000  Uiso   1.00
C200   C     0.75832   0.33450   0.53657   0.00000  Uiso   1.00
C201   C     0.81910   0.30950   0.45769   0.00000  Uiso   1.00
C202   C     0.68448   0.35946   0.84584   0.00000  Uiso   1.00
C203   C     0.62369   0.33451   0.92461   0.00000  Uiso   1.00
C204   C     0.62288   0.30952   0.02319   0.00000  Uiso   1.00
C205   C     0.72104   0.44849   0.74044   0.00000  Uiso   1.00
C206   C     0.69099   0.49839   0.73063   0.00000  Uiso   1.00
C207   C     0.72096   0.54837   0.74051   0.00000  Uiso   1.00
H208   H     0.84846   0.38914   0.78226   0.00000  Uiso   1.00
H209   H     0.92117   0.33450   0.59006   0.00000  Uiso   1.00
H210   H     0.78655   0.33452   0.97804   0.00000  Uiso   1.00
H211   H     0.85384   0.49838   0.78409   0.00000  Uiso   1.00
H212   H     0.97622   0.27391   0.36860   0.00000  Uiso   1.00
H213   H     0.69236   0.27397   0.18670   0.00000  Uiso   1.00
H214   H     0.83426   0.61950   0.77772   0.00000  Uiso   1.00
H215   H     0.65157   0.38914   0.71764   0.00000  Uiso   1.00
H216   H     0.71348   0.33450   0.52188   0.00000  Uiso   1.00
H217   H     0.57886   0.33452   0.90987   0.00000  Uiso   1.00
H218   H     0.64615   0.49838   0.71591   0.00000  Uiso   1.00
H219   H     0.80765   0.27391   0.31327   0.00000  Uiso   1.00
H220   H     0.52379   0.27397   0.13138   0.00000  Uiso   1.00
H221   H     0.66569   0.61949   0.72238   0.00000  Uiso   1.00
O222   O     0.93621   0.23795   0.21334   0.00000  Uiso   1.00
O223   O     0.56379   0.23804   0.28667   0.00000  Uiso   1.00
O224   O     0.74996   0.69136   0.75009   0.00000  Uiso   1.00
N225   N     0.92806   0.28142   0.38243   0.00000  Uiso   1.00
N226   N     0.66267   0.28146   0.14730   0.00000  Uiso   1.00
N227   N     0.79532   0.60450   0.76496   0.00000  Uiso   1.00
N228   N     0.83735   0.28142   0.35266   0.00000  Uiso   1.00
N229   N     0.57196   0.28146   0.11752   0.00000  Uiso   1.00
N230   N     0.70462   0.60450   0.73519   0.00000  Uiso   1.00
C231   C     0.30336   0.88914   0.76745   0.00000  Uiso   1.00
C232   C     0.31556   0.85946   0.65406   0.00000  Uiso   1.00
C233   C     0.37634   0.83450   0.57531   0.00000  Uiso   1.00
C234   C     0.37714   0.80950   0.47674   0.00000  Uiso   1.00
C235   C     0.40490   0.76339   0.30359   0.00000  Uiso   1.00
C236   C     0.24242   0.85946   0.86485   0.00000  Uiso   1.00
C237   C     0.24171   0.83451   0.96334   0.00000  Uiso   1.00
C238   C     0.18093   0.80953   0.04224   0.00000  Uiso   1.00
C239   C     0.09511   0.76346   0.19639   0.00000  Uiso   1.00
C240   C     0.27899   0.94849   0.75946   0.00000  Uiso   1.00
C241   C     0.30901   0.99840   0.76937   0.00000  Uiso   1.00
C242   C     0.27901   0.04837   0.75956   0.00000  Uiso   1.00
C243   C     0.24997   0.14053   0.75008   0.00000  Uiso   1.00
C244   C     0.19668   0.88914   0.73244   0.00000  Uiso   1.00
C245   C     0.25762   0.85946   0.63505   0.00000  Uiso   1.00
C246   C     0.25832   0.83450   0.53657   0.00000  Uiso   1.00
C247   C     0.31910   0.80950   0.45769   0.00000  Uiso   1.00
C248   C     0.18448   0.85946   0.84584   0.00000  Uiso   1.00
C249   C     0.12369   0.83451   0.92461   0.00000  Uiso   1.00
C250   C     0.12288   0.80952   0.02319   0.00000  Uiso   1.00
C251   C     0.22104   0.94849   0.74044   0.00000  Uiso   1.00
C252   C     0.19099   0.99839   0.73063   0.00000  Uiso   1.00
C253   C     0.22096   0.04837   0.74051   0.00000  Uiso   1.00
H254   H     0.34846   0.88914   0.78226   0.00000  Uiso   1.00
H255   H     0.42117   0.83450   0.59006   0.00000  Uiso   1.00
H256   H     0.28655   0.83452   0.97804   0.00000  Uiso   1.00
H257   H     0.35384   0.99838   0.78409   0.00000  Uiso   1.00
H258   H     0.47622   0.77391   0.36860   0.00000  Uiso   1.00
H259   H     0.19236   0.77397   0.18670   0.00000  Uiso   1.00
H260   H     0.33426   0.11950   0.77772   0.00000  Uiso   1.00
H261   H     0.15157   0.88914   0.71764   0.00000  Uiso   1.00
H262   H     0.21348   0.83450   0.52188   0.00000  Uiso   1.00
H263   H     0.07886   0.83452   0.90987   0.00000  Uiso   1.00
H264   H     0.14615   0.99838   0.71591   0.00000  Uiso   1.00
H265   H     0.30765   0.77391   0.31327   0.00000  Uiso   1.00
H266   H     0.02379   0.77397   0.13138   0.00000  Uiso   1.00
H267   H     0.16569   0.11949   0.72238   0.00000  Uiso   1.00
O268   O     0.43621   0.73795   0.21334   0.00000  Uiso   1.00
O269   O     0.06379   0.73804   0.28667   0.00000  Uiso   1.00
O270   O     0.24996   0.19136   0.75009   0.00000  Uiso   1.00
N271   N     0.42806   0.78142   0.38243   0.00000  Uiso   1.00
N272   N     0.16267   0.78146   0.14730   0.00000  Uiso   1.00
N273   N     0.29532   0.10450   0.76496   0.00000  Uiso   1.00
N274   N     0.33735   0.78142   0.35266   0.00000  Uiso   1.00
N275   N     0.07196   0.78146   0.11752   0.00000  Uiso   1.00
N276   N     0.20462   0.10450   0.73519   0.00000  Uiso   1.00
C277   C     0.19664   0.38914   0.73255   0.00000  Uiso   1.00
C278   C     0.18444   0.35946   0.84594   0.00000  Uiso   1.00
C279   C     0.12366   0.33450   0.92469   0.00000  Uiso   1.00
C280   C     0.12286   0.30950   0.02326   0.00000  Uiso   1.00
C281   C     0.09510   0.26339   0.19641   0.00000  Uiso   1.00
C282   C     0.25758   0.35946   0.63515   0.00000  Uiso   1.00
C283   C     0.25829   0.33451   0.53666   0.00000  Uiso   1.00
C284   C     0.31907   0.30953   0.45776   0.00000  Uiso   1.00
C285   C     0.40489   0.26346   0.30361   0.00000  Uiso   1.00
C286   C     0.22101   0.44849   0.74054   0.00000  Uiso   1.00
C287   C     0.19099   0.49840   0.73063   0.00000  Uiso   1.00
C288   C     0.22099   0.54837   0.74044   0.00000  Uiso   1.00
C289   C     0.25003   0.64053   0.74992   0.00000  Uiso   1.00
C290   C     0.30332   0.38914   0.76756   0.00000  Uiso   1.00
C291   C     0.24238   0.35946   0.86495   0.00000  Uiso   1.00
C292   C     0.24168   0.33450   0.96343   0.00000  Uiso   1.00
C293   C     0.18090   0.30950   0.04231   0.00000  Uiso   1.00
C294   C     0.31552   0.35946   0.65416   0.00000  Uiso   1.00
C295   C     0.37631   0.33451   0.57539   0.00000  Uiso   1.00
C296   C     0.37712   0.30952   0.47681   0.00000  Uiso   1.00
C297   C     0.27896   0.44849   0.75956   0.00000  Uiso   1.00
C298   C     0.30901   0.49839   0.76937   0.00000  Uiso   1.00
C299   C     0.27904   0.54837   0.75949   0.00000  Uiso   1.00
H300   H     0.15154   0.38914   0.71774   0.00000  Uiso   1.00
H301   H     0.07883   0.33450   0.90994   0.00000  Uiso   1.00
H302   H     0.21345   0.33452   0.52196   0.00000  Uiso   1.00
H303   H     0.14616   0.49838   0.71591   0.00000  Uiso   1.00
H304   H     0.02378   0.27391   0.13140   0.00000  Uiso   1.00
H305   H     0.30764   0.27397   0.31330   0.00000  Uiso   1.00
H306   H     0.16574   0.61950   0.72228   0.00000  Uiso   1.00
H307   H     0.34843   0.38914   0.78236   0.00000  Uiso   1.00
H308   H     0.28652   0.33450   0.97812   0.00000  Uiso   1.00
H309   H     0.42114   0.33452   0.59013   0.00000  Uiso   1.00
H310   H     0.35385   0.49838   0.78409   0.00000  Uiso   1.00
H311   H     0.19235   0.27391   0.18673   0.00000  Uiso   1.00
H312   H     0.47621   0.27397   0.36862   0.00000  Uiso   1.00
H313   H     0.33431   0.61949   0.77762   0.00000  Uiso   1.00
O314   O     0.06379   0.23795   0.28666   0.00000  Uiso   1.00
O315   O     0.43621   0.23804   0.21333   0.00000  Uiso   1.00
O316   O     0.25004   0.69136   0.74991   0.00000  Uiso   1.00
N317   N     0.07194   0.28142   0.11757   0.00000  Uiso   1.00
N318   N     0.33733   0.28146   0.35270   0.00000  Uiso   1.00
N319   N     0.20468   0.60450   0.73504   0.00000  Uiso   1.00
N320   N     0.16265   0.28142   0.14734   0.00000  Uiso   1.00
N321   N     0.42804   0.28146   0.38248   0.00000  Uiso   1.00
N322   N     0.29538   0.60450   0.76481   0.00000  Uiso   1.00
C323   C     0.69664   0.88914   0.73255   0.00000  Uiso   1.00
C324   C     0.68444   0.85946   0.84594   0.00000  Uiso   1.00
C325   C     0.62366   0.83450   0.92469   0.00000  Uiso   1.00
C326   C     0.62286   0.80950   0.02326   0.00000  Uiso   1.00
C327   C     0.59510   0.76339   0.19641   0.00000  Uiso   1.00
C328   C     0.75758   0.85946   0.63515   0.00000  Uiso   1.00
C329   C     0.75829   0.83451   0.53666   0.00000  Uiso   1.00
C330   C     0.81907   0.80953   0.45776   0.00000  Uiso   1.00
C331   C     0.90489   0.76346   0.30361   0.00000  Uiso   1.00
C332   C     0.72101   0.94849   0.74054   0.00000  Uiso   1.00
C333   C     0.69099   0.99840   0.73063   0.00000  Uiso   1.00
C334   C     0.72099   0.04837   0.74044   0.00000  Uiso   1.00
C335   C     0.75003   0.14053   0.74992   0.00000  Uiso   1.00
C336   C     0.80332   0.88914   0.76756   0.00000  Uiso   1.00
C337   C     0.74238   0.85946   0.86495   0.00000  Uiso   1.00
C338   C     0.74168   0.83450   0.96343   0.00000  Uiso   1.00
C339   C     0.68090   0.80950   0.04231   0.00000  Uiso   1.00
C340   C     0.81552   0.85946   0.65416   0.00000  Uiso   1.00
C341   C     0.87631   0.83451   0.57539   0.00000  Uiso   1.00
C342   C     0.87712   0.80952   0.47681   0.00000  Uiso   1.00
C343   C     0.77896   0.94849   0.75956   0.00000  Uiso   1.00
C344   C     0.80901   0.99839   0.76937   0.00000  Uiso   1.00
C345   C     0.77904   0.04837   0.75949   0.00000  Uiso   1.00
H346   H     0.65154   0.88914   0.71774   0.00000  Uiso   1.00
H347   H     0.57883   0.83450   0.90994   0.00000  Uiso   1.00
H348   H     0.71345   0.83452   0.52196   0.00000  Uiso   1.00
H349   H     0.64616   0.99838   0.71591   0.00000  Uiso   1.00
H350   H     0.52378   0.77391   0.13140   0.00000  Uiso   1.00
H351   H     0.80764   0.77397   0.31330   0.00000  Uiso   1.00
H352   H     0.66574   0.11950   0.72228   0.00000  Uiso   1.00
H353   H     0.84843   0.88914   0.78236   0.00000  Uiso   1.00
H354   H     0.78652   0.83450   0.97812   0.00000  Uiso   1.00
H355   H     0.92114   0.83452   0.59013   0.00000  Uiso   1.00
H356   H     0.85385   0.99838   0.78409   0.00000  Uiso   1.00
H357   H     0.69235   0.77391   0.18673   0.00000  Uiso   1.00
H358   H     0.97621   0.77397   0.36862   0.00000  Uiso   1.00
H359   H     0.83431   0.11949   0.77762   0.00000  Uiso   1.00
O360   O     0.56379   0.73795   0.28666   0.00000  Uiso   1.00
O361   O     0.93621   0.73804   0.21333   0.00000  Uiso   1.00
O362   O     0.75004   0.19136   0.74991   0.00000  Uiso   1.00
N363   N     0.57194   0.78142   0.11757   0.00000  Uiso   1.00
N364   N     0.83733   0.78146   0.35270   0.00000  Uiso   1.00
N365   N     0.70468   0.10450   0.73504   0.00000  Uiso   1.00
N366   N     0.66265   0.78142   0.14734   0.00000  Uiso   1.00
N367   N     0.92804   0.78146   0.38248   0.00000  Uiso   1.00
N368   N     0.79538   0.10450   0.76481   0.00000  Uiso   1.00
