data_job_05681
_audit_creation_date              2018-12-19
_audit_creation_method            'Materials Studio'
_symmetry_space_group_name_H-M    'P1'
_symmetry_Int_Tables_number       1
_symmetry_cell_setting            triclinic
loop_
_symmetry_equiv_pos_as_xyz
  x,y,z
_cell_length_a                    19.1924
_cell_length_b                    14.3848
_cell_length_c                    9.5783
_cell_angle_alpha                 90.0000
_cell_angle_beta                  90.0000
_cell_angle_gamma                 90.0000
loop_
_atom_site_label
_atom_site_type_symbol
_atom_site_fract_x
_atom_site_fract_y
_atom_site_fract_z
_atom_site_U_iso_or_equiv
_atom_site_adp_type
_atom_site_occupancy
C1     C     0.29836   0.33305   0.81039   0.00000  Uiso   1.00
C2     C     0.26300   0.26946   0.91625   0.00000  Uiso   1.00
C3     C     0.26771   0.27724   0.06036   0.00000  Uiso   1.00
C4     C     0.23151   0.21221   0.13916   0.00000  Uiso   1.00
C5     C     0.18264   0.12413   0.31315   0.00000  Uiso   1.00
C6     C     0.34197   0.26985   0.71711   0.00000  Uiso   1.00
C7     C     0.41308   0.27796   0.69377   0.00000  Uiso   1.00
C8     C     0.44334   0.21327   0.60491   0.00000  Uiso   1.00
C9     C     0.51707   0.12583   0.46966   0.00000  Uiso   1.00
C10    C     0.24029   0.37123   0.71809   0.00000  Uiso   1.00
C11    C     0.22591   0.46458   0.69553   0.00000  Uiso   1.00
C12    C     0.17057   0.48524   0.60746   0.00000  Uiso   1.00
C13    C     0.08642   0.55520   0.47372   0.00000  Uiso   1.00
C14    C     0.22566   0.20375   0.69407   0.00000  Uiso   1.00
C15    C     0.22352   0.19923   0.85307   0.00000  Uiso   1.00
C16    C     0.18729   0.13418   0.93167   0.00000  Uiso   1.00
C17    C     0.19195   0.14185   0.07587   0.00000  Uiso   1.00
C18    C     0.30249   0.19962   0.65393   0.00000  Uiso   1.00
C19    C     0.33265   0.13490   0.56508   0.00000  Uiso   1.00
C20    C     0.40378   0.14291   0.54162   0.00000  Uiso   1.00
C21    C     0.20080   0.30099   0.65491   0.00000  Uiso   1.00
C22    C     0.14548   0.32151   0.56685   0.00000  Uiso   1.00
C23    C     0.13102   0.41488   0.54417   0.00000  Uiso   1.00
H24    H     0.32910   0.38773   0.85957   0.00000  Uiso   1.00
H25    H     0.29828   0.33160   0.10921   0.00000  Uiso   1.00
H26    H     0.44362   0.33233   0.74266   0.00000  Uiso   1.00
H27    H     0.25648   0.51891   0.74443   0.00000  Uiso   1.00
H28    H     0.24672   0.23837   0.35812   0.00000  Uiso   1.00
H29    H     0.55317   0.23993   0.58521   0.00000  Uiso   1.00
H30    H     0.15854   0.63338   0.58893   0.00000  Uiso   1.00
H31    H     0.19492   0.14906   0.64488   0.00000  Uiso   1.00
H32    H     0.15673   0.07983   0.88275   0.00000  Uiso   1.00
H33    H     0.30207   0.08056   0.51621   0.00000  Uiso   1.00
H34    H     0.11493   0.26714   0.51797   0.00000  Uiso   1.00
H35    H     0.13184   0.03402   0.17432   0.00000  Uiso   1.00
H36    H     0.43829   0.03558   0.40140   0.00000  Uiso   1.00
H37    H     0.04366   0.42903   0.40513   0.00000  Uiso   1.00
O38    O     0.16661   0.09494   0.42657   0.00000  Uiso   1.00
O39    O     0.56865   0.09700   0.41252   0.00000  Uiso   1.00
O40    O     0.05091   0.61319   0.41741   0.00000  Uiso   1.00
N41    N     0.22492   0.19979   0.28222   0.00000  Uiso   1.00
N42    N     0.51143   0.20124   0.55961   0.00000  Uiso   1.00
N43    N     0.14250   0.56908   0.56306   0.00000  Uiso   1.00
N44    N     0.16310   0.08983   0.18332   0.00000  Uiso   1.00
N45    N     0.44961   0.09128   0.46071   0.00000  Uiso   1.00
N46    N     0.08068   0.45912   0.46416   0.00000  Uiso   1.00
C47    C     0.70164   0.66695   0.81039   0.00000  Uiso   1.00
C48    C     0.73700   0.73054   0.91625   0.00000  Uiso   1.00
C49    C     0.73229   0.72276   0.06036   0.00000  Uiso   1.00
C50    C     0.76849   0.78779   0.13916   0.00000  Uiso   1.00
C51    C     0.81736   0.87587   0.31315   0.00000  Uiso   1.00
C52    C     0.65803   0.73015   0.71711   0.00000  Uiso   1.00
C53    C     0.58692   0.72204   0.69377   0.00000  Uiso   1.00
C54    C     0.55666   0.78673   0.60491   0.00000  Uiso   1.00
C55    C     0.48293   0.87417   0.46966   0.00000  Uiso   1.00
C56    C     0.75971   0.62877   0.71809   0.00000  Uiso   1.00
C57    C     0.77409   0.53542   0.69553   0.00000  Uiso   1.00
C58    C     0.82943   0.51476   0.60746   0.00000  Uiso   1.00
C59    C     0.91358   0.44480   0.47372   0.00000  Uiso   1.00
C60    C     0.77434   0.79625   0.69407   0.00000  Uiso   1.00
C61    C     0.77648   0.80077   0.85307   0.00000  Uiso   1.00
C62    C     0.81271   0.86582   0.93167   0.00000  Uiso   1.00
C63    C     0.80805   0.85815   0.07587   0.00000  Uiso   1.00
C64    C     0.69751   0.80038   0.65393   0.00000  Uiso   1.00
C65    C     0.66735   0.86510   0.56508   0.00000  Uiso   1.00
C66    C     0.59622   0.85709   0.54162   0.00000  Uiso   1.00
C67    C     0.79920   0.69901   0.65491   0.00000  Uiso   1.00
C68    C     0.85452   0.67849   0.56685   0.00000  Uiso   1.00
C69    C     0.86898   0.58512   0.54417   0.00000  Uiso   1.00
H70    H     0.67090   0.61227   0.85957   0.00000  Uiso   1.00
H71    H     0.70172   0.66840   0.10921   0.00000  Uiso   1.00
H72    H     0.55638   0.66767   0.74266   0.00000  Uiso   1.00
H73    H     0.74352   0.48109   0.74443   0.00000  Uiso   1.00
H74    H     0.75328   0.76163   0.35812   0.00000  Uiso   1.00
H75    H     0.44683   0.76007   0.58521   0.00000  Uiso   1.00
H76    H     0.84146   0.36662   0.58893   0.00000  Uiso   1.00
H77    H     0.80508   0.85094   0.64488   0.00000  Uiso   1.00
H78    H     0.84327   0.92017   0.88275   0.00000  Uiso   1.00
H79    H     0.69793   0.91944   0.51621   0.00000  Uiso   1.00
H80    H     0.88507   0.73286   0.51797   0.00000  Uiso   1.00
H81    H     0.86816   0.96598   0.17432   0.00000  Uiso   1.00
H82    H     0.56171   0.96442   0.40140   0.00000  Uiso   1.00
H83    H     0.95634   0.57097   0.40513   0.00000  Uiso   1.00
O84    O     0.83339   0.90506   0.42657   0.00000  Uiso   1.00
O85    O     0.43135   0.90300   0.41252   0.00000  Uiso   1.00
O86    O     0.94909   0.38681   0.41741   0.00000  Uiso   1.00
N87    N     0.77508   0.80021   0.28222   0.00000  Uiso   1.00
N88    N     0.48857   0.79876   0.55961   0.00000  Uiso   1.00
N89    N     0.85750   0.43092   0.56306   0.00000  Uiso   1.00
N90    N     0.83690   0.91017   0.18332   0.00000  Uiso   1.00
N91    N     0.55039   0.90872   0.46071   0.00000  Uiso   1.00
N92    N     0.91932   0.54088   0.46416   0.00000  Uiso   1.00
C93    C     0.29836   0.66695   0.31039   0.00000  Uiso   1.00
C94    C     0.26300   0.73054   0.41625   0.00000  Uiso   1.00
C95    C     0.26771   0.72276   0.56036   0.00000  Uiso   1.00
C96    C     0.23151   0.78779   0.63916   0.00000  Uiso   1.00
C97    C     0.18264   0.87587   0.81315   0.00000  Uiso   1.00
C98    C     0.34197   0.73015   0.21711   0.00000  Uiso   1.00
C99    C     0.41308   0.72204   0.19377   0.00000  Uiso   1.00
C100   C     0.44334   0.78673   0.10491   0.00000  Uiso   1.00
C101   C     0.51707   0.87417   0.96966   0.00000  Uiso   1.00
C102   C     0.24029   0.62877   0.21809   0.00000  Uiso   1.00
C103   C     0.22591   0.53542   0.19553   0.00000  Uiso   1.00
C104   C     0.17057   0.51476   0.10746   0.00000  Uiso   1.00
C105   C     0.08642   0.44480   0.97372   0.00000  Uiso   1.00
C106   C     0.22566   0.79625   0.19407   0.00000  Uiso   1.00
C107   C     0.22352   0.80077   0.35307   0.00000  Uiso   1.00
C108   C     0.18729   0.86582   0.43167   0.00000  Uiso   1.00
C109   C     0.19195   0.85815   0.57587   0.00000  Uiso   1.00
C110   C     0.30249   0.80038   0.15393   0.00000  Uiso   1.00
C111   C     0.33265   0.86510   0.06508   0.00000  Uiso   1.00
C112   C     0.40378   0.85709   0.04162   0.00000  Uiso   1.00
C113   C     0.20080   0.69901   0.15491   0.00000  Uiso   1.00
C114   C     0.14548   0.67849   0.06685   0.00000  Uiso   1.00
C115   C     0.13102   0.58512   0.04417   0.00000  Uiso   1.00
H116   H     0.32910   0.61227   0.35957   0.00000  Uiso   1.00
H117   H     0.29828   0.66840   0.60921   0.00000  Uiso   1.00
H118   H     0.44362   0.66767   0.24266   0.00000  Uiso   1.00
H119   H     0.25648   0.48109   0.24443   0.00000  Uiso   1.00
H120   H     0.24672   0.76163   0.85812   0.00000  Uiso   1.00
H121   H     0.55317   0.76007   0.08521   0.00000  Uiso   1.00
H122   H     0.15854   0.36662   0.08893   0.00000  Uiso   1.00
H123   H     0.19492   0.85094   0.14488   0.00000  Uiso   1.00
H124   H     0.15673   0.92017   0.38275   0.00000  Uiso   1.00
H125   H     0.30207   0.91944   0.01621   0.00000  Uiso   1.00
H126   H     0.11493   0.73286   0.01797   0.00000  Uiso   1.00
H127   H     0.13184   0.96598   0.67432   0.00000  Uiso   1.00
H128   H     0.43829   0.96442   0.90140   0.00000  Uiso   1.00
H129   H     0.04366   0.57097   0.90513   0.00000  Uiso   1.00
O130   O     0.16661   0.90506   0.92657   0.00000  Uiso   1.00
O131   O     0.56865   0.90300   0.91252   0.00000  Uiso   1.00
O132   O     0.05091   0.38681   0.91741   0.00000  Uiso   1.00
N133   N     0.22492   0.80021   0.78222   0.00000  Uiso   1.00
N134   N     0.51143   0.79876   0.05961   0.00000  Uiso   1.00
N135   N     0.14250   0.43092   0.06306   0.00000  Uiso   1.00
N136   N     0.16310   0.91017   0.68332   0.00000  Uiso   1.00
N137   N     0.44961   0.90872   0.96071   0.00000  Uiso   1.00
N138   N     0.08068   0.54088   0.96416   0.00000  Uiso   1.00
C139   C     0.70164   0.33305   0.31039   0.00000  Uiso   1.00
C140   C     0.73700   0.26946   0.41625   0.00000  Uiso   1.00
C141   C     0.73229   0.27724   0.56036   0.00000  Uiso   1.00
C142   C     0.76849   0.21221   0.63916   0.00000  Uiso   1.00
C143   C     0.81736   0.12413   0.81315   0.00000  Uiso   1.00
C144   C     0.65803   0.26985   0.21711   0.00000  Uiso   1.00
C145   C     0.58692   0.27796   0.19377   0.00000  Uiso   1.00
C146   C     0.55666   0.21327   0.10491   0.00000  Uiso   1.00
C147   C     0.48293   0.12583   0.96966   0.00000  Uiso   1.00
C148   C     0.75971   0.37123   0.21809   0.00000  Uiso   1.00
C149   C     0.77409   0.46458   0.19553   0.00000  Uiso   1.00
C150   C     0.82943   0.48524   0.10746   0.00000  Uiso   1.00
C151   C     0.91358   0.55520   0.97372   0.00000  Uiso   1.00
C152   C     0.77434   0.20375   0.19407   0.00000  Uiso   1.00
C153   C     0.77648   0.19923   0.35307   0.00000  Uiso   1.00
C154   C     0.81271   0.13418   0.43167   0.00000  Uiso   1.00
C155   C     0.80805   0.14185   0.57587   0.00000  Uiso   1.00
C156   C     0.69751   0.19962   0.15393   0.00000  Uiso   1.00
C157   C     0.66735   0.13490   0.06508   0.00000  Uiso   1.00
C158   C     0.59622   0.14291   0.04162   0.00000  Uiso   1.00
C159   C     0.79920   0.30099   0.15491   0.00000  Uiso   1.00
C160   C     0.85452   0.32151   0.06685   0.00000  Uiso   1.00
C161   C     0.86898   0.41488   0.04417   0.00000  Uiso   1.00
H162   H     0.67090   0.38773   0.35957   0.00000  Uiso   1.00
H163   H     0.70172   0.33160   0.60921   0.00000  Uiso   1.00
H164   H     0.55638   0.33233   0.24266   0.00000  Uiso   1.00
H165   H     0.74352   0.51891   0.24443   0.00000  Uiso   1.00
H166   H     0.75328   0.23837   0.85812   0.00000  Uiso   1.00
H167   H     0.44683   0.23993   0.08521   0.00000  Uiso   1.00
H168   H     0.84146   0.63338   0.08893   0.00000  Uiso   1.00
H169   H     0.80508   0.14906   0.14488   0.00000  Uiso   1.00
H170   H     0.84327   0.07983   0.38275   0.00000  Uiso   1.00
H171   H     0.69793   0.08056   0.01621   0.00000  Uiso   1.00
H172   H     0.88507   0.26714   0.01797   0.00000  Uiso   1.00
H173   H     0.86816   0.03402   0.67432   0.00000  Uiso   1.00
H174   H     0.56171   0.03558   0.90140   0.00000  Uiso   1.00
H175   H     0.95634   0.42903   0.90513   0.00000  Uiso   1.00
O176   O     0.83339   0.09494   0.92657   0.00000  Uiso   1.00
O177   O     0.43135   0.09700   0.91252   0.00000  Uiso   1.00
O178   O     0.94909   0.61319   0.91741   0.00000  Uiso   1.00
N179   N     0.77508   0.19979   0.78222   0.00000  Uiso   1.00
N180   N     0.48857   0.20124   0.05961   0.00000  Uiso   1.00
N181   N     0.85750   0.56908   0.06306   0.00000  Uiso   1.00
N182   N     0.83690   0.08983   0.68332   0.00000  Uiso   1.00
N183   N     0.55039   0.09128   0.96071   0.00000  Uiso   1.00
N184   N     0.91932   0.45912   0.96416   0.00000  Uiso   1.00
