data_job_03043
_audit_creation_date              2018-12-19
_audit_creation_method            'Materials Studio'
_symmetry_space_group_name_H-M    'P1'
_symmetry_Int_Tables_number       1
_symmetry_cell_setting            triclinic
loop_
_symmetry_equiv_pos_as_xyz
  x,y,z
_cell_length_a                    21.8352
_cell_length_b                    14.0872
_cell_length_c                    9.9316
_cell_angle_alpha                 90.0000
_cell_angle_beta                  77.9735
_cell_angle_gamma                 90.0000
loop_
_atom_site_label
_atom_site_type_symbol
_atom_site_fract_x
_atom_site_fract_y
_atom_site_fract_z
_atom_site_U_iso_or_equiv
_atom_site_adp_type
_atom_site_occupancy
C1     C     0.83238   0.94513   0.15537   0.00000  Uiso   1.00
C2     C     0.86416   0.03680   0.18554   0.00000  Uiso   1.00
C3     C     0.91593   0.04312   0.24582   0.00000  Uiso   1.00
C4     C     0.93799   0.13355   0.26465   0.00000  Uiso   1.00
C5     C     0.99173   0.26354   0.31753   0.00000  Uiso   1.00
C6     C     0.83284   0.94670   0.00164   0.00000  Uiso   1.00
C7     C     0.85826   0.87726   0.90730   0.00000  Uiso   1.00
C8     C     0.85395   0.89184   0.77132   0.00000  Uiso   1.00
C9     C     0.85901   0.88191   0.53870   0.00000  Uiso   1.00
C10    C     0.76392   0.95426   0.22839   0.00000  Uiso   1.00
C11    C     0.73138   0.89116   0.32468   0.00000  Uiso   1.00
C12    C     0.66905   0.91210   0.37959   0.00000  Uiso   1.00
C13    C     0.56710   0.91390   0.49904   0.00000  Uiso   1.00
C14    C     0.77952   0.09449   0.08164   0.00000  Uiso   1.00
C15    C     0.83545   0.11792   0.14549   0.00000  Uiso   1.00
C16    C     0.85744   0.20837   0.16424   0.00000  Uiso   1.00
C17    C     0.90923   0.21482   0.22453   0.00000  Uiso   1.00
C18    C     0.80412   0.02781   0.96158   0.00000  Uiso   1.00
C19    C     0.79977   0.04250   0.82572   0.00000  Uiso   1.00
C20    C     0.82518   0.97311   0.73119   0.00000  Uiso   1.00
C21    C     0.73520   0.03538   0.18834   0.00000  Uiso   1.00
C22    C     0.67290   0.05641   0.24310   0.00000  Uiso   1.00
C23    C     0.64028   0.99336   0.33947   0.00000  Uiso   1.00
H24    H     0.85473   0.88197   0.18654   0.00000  Uiso   1.00
H25    H     0.93814   0.98032   0.27679   0.00000  Uiso   1.00
H26    H     0.88047   0.81448   0.93832   0.00000  Uiso   1.00
H27    H     0.75362   0.82839   0.35565   0.00000  Uiso   1.00
H28    H     0.01796   0.12514   0.35913   0.00000  Uiso   1.00
H29    H     0.89634   0.77544   0.64547   0.00000  Uiso   1.00
H30    H     0.62886   0.80476   0.52548   0.00000  Uiso   1.00
H31    H     0.75716   0.15765   0.05045   0.00000  Uiso   1.00
H32    H     0.83521   0.27113   0.13323   0.00000  Uiso   1.00
H33    H     0.77755   0.10528   0.79476   0.00000  Uiso   1.00
H34    H     0.65070   0.11919   0.21209   0.00000  Uiso   1.00
H35    H     0.93442   0.36117   0.24261   0.00000  Uiso   1.00
H36    H     0.81281   0.01146   0.52894   0.00000  Uiso   1.00
H37    H     0.54532   0.04079   0.40896   0.00000  Uiso   1.00
O38    O     0.02931   0.31283   0.35774   0.00000  Uiso   1.00
O39    O     0.86974   0.85402   0.42145   0.00000  Uiso   1.00
O40    O     0.51881   0.89250   0.57600   0.00000  Uiso   1.00
N41    N     0.98758   0.16511   0.32037   0.00000  Uiso   1.00
N42    N     0.87389   0.83817   0.65313   0.00000  Uiso   1.00
N43    N     0.62380   0.86557   0.47584   0.00000  Uiso   1.00
N44    N     0.94263   0.29212   0.25767   0.00000  Uiso   1.00
N45    N     0.82894   0.96517   0.59044   0.00000  Uiso   1.00
N46    N     0.57885   0.99258   0.41315   0.00000  Uiso   1.00
C47    C     0.16762   0.44513   0.34463   0.00000  Uiso   1.00
C48    C     0.13584   0.53680   0.31446   0.00000  Uiso   1.00
C49    C     0.08407   0.54312   0.25418   0.00000  Uiso   1.00
C50    C     0.06201   0.63355   0.23535   0.00000  Uiso   1.00
C51    C     0.00827   0.76354   0.18247   0.00000  Uiso   1.00
C52    C     0.16716   0.44670   0.49836   0.00000  Uiso   1.00
C53    C     0.14174   0.37726   0.59270   0.00000  Uiso   1.00
C54    C     0.14605   0.39184   0.72868   0.00000  Uiso   1.00
C55    C     0.14099   0.38191   0.96130   0.00000  Uiso   1.00
C56    C     0.23608   0.45426   0.27161   0.00000  Uiso   1.00
C57    C     0.26862   0.39116   0.17532   0.00000  Uiso   1.00
C58    C     0.33095   0.41210   0.12041   0.00000  Uiso   1.00
C59    C     0.43290   0.41390   0.00096   0.00000  Uiso   1.00
C60    C     0.22048   0.59449   0.41836   0.00000  Uiso   1.00
C61    C     0.16455   0.61792   0.35451   0.00000  Uiso   1.00
C62    C     0.14256   0.70837   0.33576   0.00000  Uiso   1.00
C63    C     0.09077   0.71482   0.27547   0.00000  Uiso   1.00
C64    C     0.19588   0.52781   0.53842   0.00000  Uiso   1.00
C65    C     0.20023   0.54250   0.67428   0.00000  Uiso   1.00
C66    C     0.17482   0.47311   0.76881   0.00000  Uiso   1.00
C67    C     0.26480   0.53538   0.31166   0.00000  Uiso   1.00
C68    C     0.32710   0.55641   0.25690   0.00000  Uiso   1.00
C69    C     0.35972   0.49336   0.16053   0.00000  Uiso   1.00
H70    H     0.14527   0.38197   0.31346   0.00000  Uiso   1.00
H71    H     0.06186   0.48032   0.22321   0.00000  Uiso   1.00
H72    H     0.11953   0.31448   0.56168   0.00000  Uiso   1.00
H73    H     0.24638   0.32839   0.14435   0.00000  Uiso   1.00
H74    H     0.98204   0.62514   0.14087   0.00000  Uiso   1.00
H75    H     0.10366   0.27544   0.85453   0.00000  Uiso   1.00
H76    H     0.37114   0.30476   0.97452   0.00000  Uiso   1.00
H77    H     0.24284   0.65765   0.44955   0.00000  Uiso   1.00
H78    H     0.16479   0.77113   0.36677   0.00000  Uiso   1.00
H79    H     0.22245   0.60528   0.70524   0.00000  Uiso   1.00
H80    H     0.34930   0.61919   0.28791   0.00000  Uiso   1.00
H81    H     0.06558   0.86117   0.25739   0.00000  Uiso   1.00
H82    H     0.18719   0.51146   0.97106   0.00000  Uiso   1.00
H83    H     0.45468   0.54079   0.09104   0.00000  Uiso   1.00
O84    O     0.97069   0.81283   0.14226   0.00000  Uiso   1.00
O85    O     0.13026   0.35402   0.07855   0.00000  Uiso   1.00
O86    O     0.48119   0.39250   0.92400   0.00000  Uiso   1.00
N87    N     0.01242   0.66511   0.17963   0.00000  Uiso   1.00
N88    N     0.12611   0.33817   0.84687   0.00000  Uiso   1.00
N89    N     0.37620   0.36557   0.02416   0.00000  Uiso   1.00
N90    N     0.05737   0.79212   0.24233   0.00000  Uiso   1.00
N91    N     0.17106   0.46517   0.90956   0.00000  Uiso   1.00
N92    N     0.42115   0.49258   0.08685   0.00000  Uiso   1.00
C93    C     0.16762   0.05487   0.84463   0.00000  Uiso   1.00
C94    C     0.13584   0.96320   0.81446   0.00000  Uiso   1.00
C95    C     0.08407   0.95688   0.75418   0.00000  Uiso   1.00
C96    C     0.06201   0.86645   0.73535   0.00000  Uiso   1.00
C97    C     0.00827   0.73646   0.68247   0.00000  Uiso   1.00
C98    C     0.16716   0.05330   0.99836   0.00000  Uiso   1.00
C99    C     0.14174   0.12274   0.09270   0.00000  Uiso   1.00
C100   C     0.14605   0.10816   0.22868   0.00000  Uiso   1.00
C101   C     0.14099   0.11809   0.46130   0.00000  Uiso   1.00
C102   C     0.23608   0.04574   0.77161   0.00000  Uiso   1.00
C103   C     0.26862   0.10884   0.67532   0.00000  Uiso   1.00
C104   C     0.33095   0.08790   0.62041   0.00000  Uiso   1.00
C105   C     0.43290   0.08610   0.50096   0.00000  Uiso   1.00
C106   C     0.22048   0.90551   0.91836   0.00000  Uiso   1.00
C107   C     0.16455   0.88208   0.85451   0.00000  Uiso   1.00
C108   C     0.14256   0.79163   0.83576   0.00000  Uiso   1.00
C109   C     0.09077   0.78518   0.77547   0.00000  Uiso   1.00
C110   C     0.19588   0.97219   0.03842   0.00000  Uiso   1.00
C111   C     0.20023   0.95750   0.17428   0.00000  Uiso   1.00
C112   C     0.17482   0.02689   0.26881   0.00000  Uiso   1.00
C113   C     0.26480   0.96462   0.81166   0.00000  Uiso   1.00
C114   C     0.32710   0.94359   0.75690   0.00000  Uiso   1.00
C115   C     0.35972   0.00664   0.66053   0.00000  Uiso   1.00
H116   H     0.14527   0.11803   0.81346   0.00000  Uiso   1.00
H117   H     0.06186   0.01968   0.72321   0.00000  Uiso   1.00
H118   H     0.11953   0.18552   0.06168   0.00000  Uiso   1.00
H119   H     0.24638   0.17161   0.64435   0.00000  Uiso   1.00
H120   H     0.98204   0.87486   0.64087   0.00000  Uiso   1.00
H121   H     0.10366   0.22456   0.35453   0.00000  Uiso   1.00
H122   H     0.37114   0.19524   0.47452   0.00000  Uiso   1.00
H123   H     0.24284   0.84235   0.94955   0.00000  Uiso   1.00
H124   H     0.16479   0.72887   0.86677   0.00000  Uiso   1.00
H125   H     0.22245   0.89472   0.20524   0.00000  Uiso   1.00
H126   H     0.34930   0.88081   0.78791   0.00000  Uiso   1.00
H127   H     0.06558   0.63883   0.75739   0.00000  Uiso   1.00
H128   H     0.18719   0.98854   0.47106   0.00000  Uiso   1.00
H129   H     0.45468   0.95921   0.59104   0.00000  Uiso   1.00
O130   O     0.97069   0.68717   0.64226   0.00000  Uiso   1.00
O131   O     0.13026   0.14598   0.57855   0.00000  Uiso   1.00
O132   O     0.48119   0.10750   0.42400   0.00000  Uiso   1.00
N133   N     0.01242   0.83489   0.67963   0.00000  Uiso   1.00
N134   N     0.12611   0.16183   0.34687   0.00000  Uiso   1.00
N135   N     0.37620   0.13443   0.52416   0.00000  Uiso   1.00
N136   N     0.05737   0.70788   0.74233   0.00000  Uiso   1.00
N137   N     0.17106   0.03483   0.40956   0.00000  Uiso   1.00
N138   N     0.42115   0.00742   0.58685   0.00000  Uiso   1.00
C139   C     0.83238   0.55487   0.65537   0.00000  Uiso   1.00
C140   C     0.86416   0.46320   0.68554   0.00000  Uiso   1.00
C141   C     0.91593   0.45688   0.74582   0.00000  Uiso   1.00
C142   C     0.93799   0.36645   0.76465   0.00000  Uiso   1.00
C143   C     0.99173   0.23646   0.81753   0.00000  Uiso   1.00
C144   C     0.83284   0.55330   0.50164   0.00000  Uiso   1.00
C145   C     0.85826   0.62274   0.40730   0.00000  Uiso   1.00
C146   C     0.85395   0.60816   0.27132   0.00000  Uiso   1.00
C147   C     0.85901   0.61809   0.03870   0.00000  Uiso   1.00
C148   C     0.76392   0.54574   0.72839   0.00000  Uiso   1.00
C149   C     0.73138   0.60884   0.82468   0.00000  Uiso   1.00
C150   C     0.66905   0.58790   0.87959   0.00000  Uiso   1.00
C151   C     0.56710   0.58610   0.99904   0.00000  Uiso   1.00
C152   C     0.77952   0.40551   0.58164   0.00000  Uiso   1.00
C153   C     0.83545   0.38208   0.64549   0.00000  Uiso   1.00
C154   C     0.85744   0.29163   0.66424   0.00000  Uiso   1.00
C155   C     0.90923   0.28518   0.72453   0.00000  Uiso   1.00
C156   C     0.80412   0.47219   0.46158   0.00000  Uiso   1.00
C157   C     0.79977   0.45750   0.32572   0.00000  Uiso   1.00
C158   C     0.82518   0.52689   0.23119   0.00000  Uiso   1.00
C159   C     0.73520   0.46462   0.68834   0.00000  Uiso   1.00
C160   C     0.67290   0.44359   0.74310   0.00000  Uiso   1.00
C161   C     0.64028   0.50664   0.83947   0.00000  Uiso   1.00
H162   H     0.85473   0.61803   0.68654   0.00000  Uiso   1.00
H163   H     0.93814   0.51968   0.77679   0.00000  Uiso   1.00
H164   H     0.88047   0.68552   0.43832   0.00000  Uiso   1.00
H165   H     0.75362   0.67161   0.85565   0.00000  Uiso   1.00
H166   H     0.01796   0.37486   0.85913   0.00000  Uiso   1.00
H167   H     0.89634   0.72456   0.14547   0.00000  Uiso   1.00
H168   H     0.62886   0.69524   0.02548   0.00000  Uiso   1.00
H169   H     0.75716   0.34235   0.55045   0.00000  Uiso   1.00
H170   H     0.83521   0.22887   0.63323   0.00000  Uiso   1.00
H171   H     0.77755   0.39472   0.29476   0.00000  Uiso   1.00
H172   H     0.65070   0.38081   0.71209   0.00000  Uiso   1.00
H173   H     0.93442   0.13883   0.74261   0.00000  Uiso   1.00
H174   H     0.81281   0.48854   0.02894   0.00000  Uiso   1.00
H175   H     0.54532   0.45921   0.90896   0.00000  Uiso   1.00
O176   O     0.02931   0.18717   0.85774   0.00000  Uiso   1.00
O177   O     0.86974   0.64598   0.92145   0.00000  Uiso   1.00
O178   O     0.51881   0.60750   0.07600   0.00000  Uiso   1.00
N179   N     0.98758   0.33489   0.82037   0.00000  Uiso   1.00
N180   N     0.87389   0.66183   0.15313   0.00000  Uiso   1.00
N181   N     0.62380   0.63443   0.97584   0.00000  Uiso   1.00
N182   N     0.94263   0.20788   0.75767   0.00000  Uiso   1.00
N183   N     0.82894   0.53483   0.09044   0.00000  Uiso   1.00
N184   N     0.57885   0.50742   0.91315   0.00000  Uiso   1.00
