data_job_03233
_audit_creation_date              2018-12-19
_audit_creation_method            'Materials Studio'
_symmetry_space_group_name_H-M    'P1'
_symmetry_Int_Tables_number       1
_symmetry_cell_setting            triclinic
loop_
_symmetry_equiv_pos_as_xyz
  x,y,z
_cell_length_a                    9.1238
_cell_length_b                    12.4990
_cell_length_c                    18.6871
_cell_angle_alpha                 91.5056
_cell_angle_beta                  88.9072
_cell_angle_gamma                 98.6970
loop_
_atom_site_label
_atom_site_type_symbol
_atom_site_fract_x
_atom_site_fract_y
_atom_site_fract_z
_atom_site_U_iso_or_equiv
_atom_site_adp_type
_atom_site_occupancy
C1     C     0.18863   0.13497   0.20601   0.00000  Uiso   1.00
C2     C     0.20855   0.03035   0.24229   0.00000  Uiso   1.00
C3     C     0.33347   0.97943   0.23688   0.00000  Uiso   1.00
C4     C     0.32995   0.88441   0.27415   0.00000  Uiso   1.00
C5     C     0.37972   0.72841   0.32419   0.00000  Uiso   1.00
C6     C     0.04839   0.10834   0.16187   0.00000  Uiso   1.00
C7     C     0.03866   0.12301   0.08885   0.00000  Uiso   1.00
C8     C     0.90031   0.09364   0.05841   0.00000  Uiso   1.00
C9     C     0.70141   0.05879   0.98360   0.00000  Uiso   1.00
C10    C     0.15242   0.21260   0.26581   0.00000  Uiso   1.00
C11    C     0.23013   0.31495   0.28017   0.00000  Uiso   1.00
C12    C     0.17935   0.37338   0.33724   0.00000  Uiso   1.00
C13    C     0.14198   0.50041   0.42381   0.00000  Uiso   1.00
C14    C     0.96023   0.05676   0.28180   0.00000  Uiso   1.00
C15    C     0.08449   0.98788   0.28345   0.00000  Uiso   1.00
C16    C     0.08078   0.89291   0.32073   0.00000  Uiso   1.00
C17    C     0.20567   0.84186   0.31539   0.00000  Uiso   1.00
C18    C     0.92434   0.06586   0.20303   0.00000  Uiso   1.00
C19    C     0.78597   0.03648   0.17269   0.00000  Uiso   1.00
C20    C     0.77603   0.05109   0.09965   0.00000  Uiso   1.00
C21    C     0.02837   0.17013   0.30697   0.00000  Uiso   1.00
C22    C     0.97745   0.22841   0.36402   0.00000  Uiso   1.00
C23    C     0.05507   0.33082   0.37847   0.00000  Uiso   1.00
H24    H     0.28520   0.16804   0.17396   0.00000  Uiso   1.00
H25    H     0.42944   0.01233   0.20502   0.00000  Uiso   1.00
H26    H     0.13467   0.15589   0.05701   0.00000  Uiso   1.00
H27    H     0.32613   0.34779   0.24830   0.00000  Uiso   1.00
H28    H     0.53463   0.82094   0.25758   0.00000  Uiso   1.00
H29    H     0.91309   0.12368   0.94550   0.00000  Uiso   1.00
H30    H     0.31680   0.52835   0.34888   0.00000  Uiso   1.00
H31    H     0.86365   0.02369   0.31384   0.00000  Uiso   1.00
H32    H     0.98476   0.86006   0.35258   0.00000  Uiso   1.00
H33    H     0.68999   0.00362   0.20457   0.00000  Uiso   1.00
H34    H     0.88144   0.19552   0.39587   0.00000  Uiso   1.00
H35    H     0.17371   0.69735   0.37735   0.00000  Uiso   1.00
H36    H     0.55216   0.00010   0.06526   0.00000  Uiso   1.00
H37    H     0.95588   0.40476   0.46865   0.00000  Uiso   1.00
O38    O     0.44143   0.65409   0.34041   0.00000  Uiso   1.00
O39    O     0.62599   0.05129   0.93096   0.00000  Uiso   1.00
O40    O     0.15565   0.58220   0.46020   0.00000  Uiso   1.00
N41    N     0.43308   0.81432   0.28047   0.00000  Uiso   1.00
N42    N     0.85198   0.09735   0.98868   0.00000  Uiso   1.00
N43    N     0.22939   0.47569   0.36580   0.00000  Uiso   1.00
N44    N     0.23887   0.74782   0.34491   0.00000  Uiso   1.00
N45    N     0.65777   0.03085   0.05313   0.00000  Uiso   1.00
N46    N     0.03518   0.40919   0.43025   0.00000  Uiso   1.00
C47    C     0.81137   0.86503   0.79399   0.00000  Uiso   1.00
C48    C     0.79145   0.96965   0.75771   0.00000  Uiso   1.00
C49    C     0.66653   0.02057   0.76312   0.00000  Uiso   1.00
C50    C     0.67005   0.11559   0.72585   0.00000  Uiso   1.00
C51    C     0.62028   0.27159   0.67581   0.00000  Uiso   1.00
C52    C     0.95161   0.89166   0.83813   0.00000  Uiso   1.00
C53    C     0.96134   0.87699   0.91115   0.00000  Uiso   1.00
C54    C     0.09969   0.90636   0.94159   0.00000  Uiso   1.00
C55    C     0.29859   0.94121   0.01640   0.00000  Uiso   1.00
C56    C     0.84758   0.78740   0.73419   0.00000  Uiso   1.00
C57    C     0.76987   0.68505   0.71983   0.00000  Uiso   1.00
C58    C     0.82065   0.62662   0.66276   0.00000  Uiso   1.00
C59    C     0.85802   0.49959   0.57619   0.00000  Uiso   1.00
C60    C     0.03977   0.94324   0.71820   0.00000  Uiso   1.00
C61    C     0.91551   0.01212   0.71655   0.00000  Uiso   1.00
C62    C     0.91922   0.10709   0.67927   0.00000  Uiso   1.00
C63    C     0.79433   0.15814   0.68461   0.00000  Uiso   1.00
C64    C     0.07566   0.93414   0.79697   0.00000  Uiso   1.00
C65    C     0.21403   0.96352   0.82731   0.00000  Uiso   1.00
C66    C     0.22397   0.94891   0.90035   0.00000  Uiso   1.00
C67    C     0.97163   0.82987   0.69303   0.00000  Uiso   1.00
C68    C     0.02255   0.77159   0.63598   0.00000  Uiso   1.00
C69    C     0.94493   0.66918   0.62153   0.00000  Uiso   1.00
H70    H     0.71480   0.83196   0.82604   0.00000  Uiso   1.00
H71    H     0.57056   0.98767   0.79498   0.00000  Uiso   1.00
H72    H     0.86533   0.84411   0.94299   0.00000  Uiso   1.00
H73    H     0.67387   0.65221   0.75170   0.00000  Uiso   1.00
H74    H     0.46537   0.17906   0.74242   0.00000  Uiso   1.00
H75    H     0.08691   0.87632   0.05450   0.00000  Uiso   1.00
H76    H     0.68320   0.47165   0.65112   0.00000  Uiso   1.00
H77    H     0.13635   0.97631   0.68616   0.00000  Uiso   1.00
H78    H     0.01524   0.13994   0.64742   0.00000  Uiso   1.00
H79    H     0.31001   0.99638   0.79543   0.00000  Uiso   1.00
H80    H     0.11856   0.80448   0.60413   0.00000  Uiso   1.00
H81    H     0.82629   0.30265   0.62265   0.00000  Uiso   1.00
H82    H     0.44784   0.99990   0.93474   0.00000  Uiso   1.00
H83    H     0.04412   0.59524   0.53135   0.00000  Uiso   1.00
O84    O     0.55857   0.34591   0.65959   0.00000  Uiso   1.00
O85    O     0.37401   0.94871   0.06904   0.00000  Uiso   1.00
O86    O     0.84435   0.41780   0.53980   0.00000  Uiso   1.00
N87    N     0.56692   0.18568   0.71953   0.00000  Uiso   1.00
N88    N     0.14802   0.90265   0.01132   0.00000  Uiso   1.00
N89    N     0.77061   0.52431   0.63420   0.00000  Uiso   1.00
N90    N     0.76113   0.25218   0.65509   0.00000  Uiso   1.00
N91    N     0.34223   0.96915   0.94687   0.00000  Uiso   1.00
N92    N     0.96482   0.59081   0.56975   0.00000  Uiso   1.00
