data_job_01137
_audit_creation_date              2018-12-19
_audit_creation_method            'Materials Studio'
_symmetry_space_group_name_H-M    'P1'
_symmetry_Int_Tables_number       1
_symmetry_cell_setting            triclinic
loop_
_symmetry_equiv_pos_as_xyz
  x,y,z
_cell_length_a                    23.4655
_cell_length_b                    22.3204
_cell_length_c                    10.1009
_cell_angle_alpha                 90.0000
_cell_angle_beta                  90.0000
_cell_angle_gamma                 90.0000
loop_
_atom_site_label
_atom_site_type_symbol
_atom_site_fract_x
_atom_site_fract_y
_atom_site_fract_z
_atom_site_U_iso_or_equiv
_atom_site_adp_type
_atom_site_occupancy
C1     C     0.07909   0.57376   0.26776   0.00000  Uiso   1.00
C2     C     0.12533   0.61545   0.32037   0.00000  Uiso   1.00
C3     C     0.11891   0.65635   0.42278   0.00000  Uiso   1.00
C4     C     0.16632   0.69036   0.45616   0.00000  Uiso   1.00
C5     C     0.23020   0.75613   0.54796   0.00000  Uiso   1.00
C6     C     0.07430   0.58689   0.12002   0.00000  Uiso   1.00
C7     C     0.02498   0.60377   0.05398   0.00000  Uiso   1.00
C8     C     0.02943   0.61374   0.91870   0.00000  Uiso   1.00
C9     C     0.01409   0.63513   0.69944   0.00000  Uiso   1.00
C10    C     0.10316   0.51050   0.27868   0.00000  Uiso   1.00
C11    C     0.07811   0.46313   0.34602   0.00000  Uiso   1.00
C12    C     0.10686   0.40876   0.34429   0.00000  Uiso   1.00
C13    C     0.13633   0.31154   0.37138   0.00000  Uiso   1.00
C14    C     0.17469   0.56144   0.14492   0.00000  Uiso   1.00
C15    C     0.17725   0.60876   0.25364   0.00000  Uiso   1.00
C16    C     0.22468   0.64272   0.28687   0.00000  Uiso   1.00
C17    C     0.21834   0.68365   0.38932   0.00000  Uiso   1.00
C18    C     0.12622   0.58020   0.05330   0.00000  Uiso   1.00
C19    C     0.13075   0.59014   0.91808   0.00000  Uiso   1.00
C20    C     0.08145   0.60703   0.85185   0.00000  Uiso   1.00
C21    C     0.15509   0.50380   0.21196   0.00000  Uiso   1.00
C22    C     0.18388   0.44950   0.21012   0.00000  Uiso   1.00
C23    C     0.15888   0.40206   0.27744   0.00000  Uiso   1.00
H24    H     0.03866   0.57897   0.31969   0.00000  Uiso   1.00
H25    H     0.07872   0.66152   0.47438   0.00000  Uiso   1.00
H26    H     0.98480   0.60894   0.10564   0.00000  Uiso   1.00
H27    H     0.03793   0.46832   0.39764   0.00000  Uiso   1.00
H28    H     0.14602   0.75010   0.61643   0.00000  Uiso   1.00
H29    H     0.94799   0.63922   0.83891   0.00000  Uiso   1.00
H30    H     0.06001   0.34270   0.45464   0.00000  Uiso   1.00
H31    H     0.21512   0.55623   0.09296   0.00000  Uiso   1.00
H32    H     0.26486   0.63753   0.23522   0.00000  Uiso   1.00
H33    H     0.17094   0.58496   0.86648   0.00000  Uiso   1.00
H34    H     0.22407   0.44434   0.15847   0.00000  Uiso   1.00
H35    H     0.29710   0.73063   0.42231   0.00000  Uiso   1.00
H36    H     0.09906   0.61975   0.64479   0.00000  Uiso   1.00
H37    H     0.21109   0.32323   0.26052   0.00000  Uiso   1.00
O38    O     0.25109   0.79427   0.61701   0.00000  Uiso   1.00
O39    O     0.99127   0.64879   0.59694   0.00000  Uiso   1.00
O40    O     0.13825   0.25977   0.40476   0.00000  Uiso   1.00
N41    N     0.17476   0.73435   0.55124   0.00000  Uiso   1.00
N42    N     0.98960   0.63070   0.82431   0.00000  Uiso   1.00
N43    N     0.09433   0.35347   0.39994   0.00000  Uiso   1.00
N44    N     0.25605   0.72388   0.44679   0.00000  Uiso   1.00
N45    N     0.07090   0.62022   0.71986   0.00000  Uiso   1.00
N46    N     0.17562   0.34299   0.29548   0.00000  Uiso   1.00
C47    C     0.07909   0.07376   0.76776   0.00000  Uiso   1.00
C48    C     0.12533   0.11545   0.82037   0.00000  Uiso   1.00
C49    C     0.11891   0.15635   0.92278   0.00000  Uiso   1.00
C50    C     0.16632   0.19036   0.95616   0.00000  Uiso   1.00
C51    C     0.23020   0.25613   0.04796   0.00000  Uiso   1.00
C52    C     0.07430   0.08689   0.62002   0.00000  Uiso   1.00
C53    C     0.02498   0.10377   0.55398   0.00000  Uiso   1.00
C54    C     0.02943   0.11374   0.41870   0.00000  Uiso   1.00
C55    C     0.01409   0.13513   0.19944   0.00000  Uiso   1.00
C56    C     0.10316   0.01050   0.77868   0.00000  Uiso   1.00
C57    C     0.07811   0.96313   0.84602   0.00000  Uiso   1.00
C58    C     0.10686   0.90876   0.84429   0.00000  Uiso   1.00
C59    C     0.13633   0.81154   0.87138   0.00000  Uiso   1.00
C60    C     0.17469   0.06144   0.64492   0.00000  Uiso   1.00
C61    C     0.17725   0.10876   0.75364   0.00000  Uiso   1.00
C62    C     0.22468   0.14272   0.78687   0.00000  Uiso   1.00
C63    C     0.21834   0.18365   0.88932   0.00000  Uiso   1.00
C64    C     0.12622   0.08020   0.55330   0.00000  Uiso   1.00
C65    C     0.13075   0.09014   0.41808   0.00000  Uiso   1.00
C66    C     0.08145   0.10703   0.35185   0.00000  Uiso   1.00
C67    C     0.15509   0.00380   0.71196   0.00000  Uiso   1.00
C68    C     0.18388   0.94950   0.71012   0.00000  Uiso   1.00
C69    C     0.15888   0.90206   0.77744   0.00000  Uiso   1.00
H70    H     0.03866   0.07897   0.81969   0.00000  Uiso   1.00
H71    H     0.07872   0.16152   0.97438   0.00000  Uiso   1.00
H72    H     0.98480   0.10894   0.60564   0.00000  Uiso   1.00
H73    H     0.03793   0.96832   0.89764   0.00000  Uiso   1.00
H74    H     0.14602   0.25010   0.11643   0.00000  Uiso   1.00
H75    H     0.94799   0.13922   0.33891   0.00000  Uiso   1.00
H76    H     0.06001   0.84270   0.95464   0.00000  Uiso   1.00
H77    H     0.21512   0.05623   0.59296   0.00000  Uiso   1.00
H78    H     0.26486   0.13753   0.73522   0.00000  Uiso   1.00
H79    H     0.17094   0.08496   0.36648   0.00000  Uiso   1.00
H80    H     0.22407   0.94434   0.65847   0.00000  Uiso   1.00
H81    H     0.29710   0.23063   0.92231   0.00000  Uiso   1.00
H82    H     0.09906   0.11975   0.14479   0.00000  Uiso   1.00
H83    H     0.21109   0.82323   0.76052   0.00000  Uiso   1.00
O84    O     0.25109   0.29427   0.11701   0.00000  Uiso   1.00
O85    O     0.99127   0.14879   0.09694   0.00000  Uiso   1.00
O86    O     0.13825   0.75977   0.90476   0.00000  Uiso   1.00
N87    N     0.17476   0.23435   0.05124   0.00000  Uiso   1.00
N88    N     0.98960   0.13070   0.32431   0.00000  Uiso   1.00
N89    N     0.09433   0.85347   0.89994   0.00000  Uiso   1.00
N90    N     0.25605   0.22388   0.94679   0.00000  Uiso   1.00
N91    N     0.07090   0.12022   0.21986   0.00000  Uiso   1.00
N92    N     0.17562   0.84299   0.79548   0.00000  Uiso   1.00
C93    C     0.92091   0.42624   0.26776   0.00000  Uiso   1.00
C94    C     0.87467   0.38455   0.32037   0.00000  Uiso   1.00
C95    C     0.88109   0.34365   0.42278   0.00000  Uiso   1.00
C96    C     0.83368   0.30964   0.45616   0.00000  Uiso   1.00
C97    C     0.76980   0.24387   0.54796   0.00000  Uiso   1.00
C98    C     0.92570   0.41311   0.12002   0.00000  Uiso   1.00
C99    C     0.97502   0.39623   0.05398   0.00000  Uiso   1.00
C100   C     0.97057   0.38626   0.91870   0.00000  Uiso   1.00
C101   C     0.98591   0.36487   0.69944   0.00000  Uiso   1.00
C102   C     0.89684   0.48950   0.27868   0.00000  Uiso   1.00
C103   C     0.92189   0.53687   0.34602   0.00000  Uiso   1.00
C104   C     0.89314   0.59124   0.34429   0.00000  Uiso   1.00
C105   C     0.86367   0.68846   0.37138   0.00000  Uiso   1.00
C106   C     0.82531   0.43856   0.14492   0.00000  Uiso   1.00
C107   C     0.82275   0.39124   0.25364   0.00000  Uiso   1.00
C108   C     0.77532   0.35728   0.28687   0.00000  Uiso   1.00
C109   C     0.78166   0.31635   0.38932   0.00000  Uiso   1.00
C110   C     0.87378   0.41980   0.05330   0.00000  Uiso   1.00
C111   C     0.86925   0.40986   0.91808   0.00000  Uiso   1.00
C112   C     0.91855   0.39297   0.85185   0.00000  Uiso   1.00
C113   C     0.84491   0.49620   0.21196   0.00000  Uiso   1.00
C114   C     0.81612   0.55050   0.21012   0.00000  Uiso   1.00
C115   C     0.84112   0.59794   0.27744   0.00000  Uiso   1.00
H116   H     0.96134   0.42103   0.31969   0.00000  Uiso   1.00
H117   H     0.92128   0.33848   0.47438   0.00000  Uiso   1.00
H118   H     0.01520   0.39106   0.10564   0.00000  Uiso   1.00
H119   H     0.96207   0.53168   0.39764   0.00000  Uiso   1.00
H120   H     0.85398   0.24990   0.61643   0.00000  Uiso   1.00
H121   H     0.05201   0.36078   0.83891   0.00000  Uiso   1.00
H122   H     0.93999   0.65730   0.45464   0.00000  Uiso   1.00
H123   H     0.78488   0.44377   0.09296   0.00000  Uiso   1.00
H124   H     0.73514   0.36247   0.23522   0.00000  Uiso   1.00
H125   H     0.82906   0.41504   0.86648   0.00000  Uiso   1.00
H126   H     0.77593   0.55566   0.15847   0.00000  Uiso   1.00
H127   H     0.70290   0.26937   0.42231   0.00000  Uiso   1.00
H128   H     0.90094   0.38025   0.64479   0.00000  Uiso   1.00
H129   H     0.78891   0.67677   0.26052   0.00000  Uiso   1.00
O130   O     0.74891   0.20573   0.61701   0.00000  Uiso   1.00
O131   O     0.00873   0.35121   0.59694   0.00000  Uiso   1.00
O132   O     0.86175   0.74023   0.40476   0.00000  Uiso   1.00
N133   N     0.82524   0.26565   0.55124   0.00000  Uiso   1.00
N134   N     0.01040   0.36930   0.82431   0.00000  Uiso   1.00
N135   N     0.90567   0.64653   0.39994   0.00000  Uiso   1.00
N136   N     0.74395   0.27612   0.44679   0.00000  Uiso   1.00
N137   N     0.92910   0.37978   0.71986   0.00000  Uiso   1.00
N138   N     0.82438   0.65701   0.29548   0.00000  Uiso   1.00
C139   C     0.92091   0.92624   0.76776   0.00000  Uiso   1.00
C140   C     0.87467   0.88455   0.82037   0.00000  Uiso   1.00
C141   C     0.88109   0.84365   0.92278   0.00000  Uiso   1.00
C142   C     0.83368   0.80964   0.95616   0.00000  Uiso   1.00
C143   C     0.76980   0.74387   0.04796   0.00000  Uiso   1.00
C144   C     0.92570   0.91311   0.62002   0.00000  Uiso   1.00
C145   C     0.97502   0.89623   0.55398   0.00000  Uiso   1.00
C146   C     0.97057   0.88626   0.41870   0.00000  Uiso   1.00
C147   C     0.98591   0.86487   0.19944   0.00000  Uiso   1.00
C148   C     0.89684   0.98950   0.77868   0.00000  Uiso   1.00
C149   C     0.92189   0.03687   0.84602   0.00000  Uiso   1.00
C150   C     0.89314   0.09124   0.84429   0.00000  Uiso   1.00
C151   C     0.86367   0.18846   0.87138   0.00000  Uiso   1.00
C152   C     0.82531   0.93856   0.64492   0.00000  Uiso   1.00
C153   C     0.82275   0.89124   0.75364   0.00000  Uiso   1.00
C154   C     0.77532   0.85728   0.78687   0.00000  Uiso   1.00
C155   C     0.78166   0.81635   0.88932   0.00000  Uiso   1.00
C156   C     0.87378   0.91980   0.55330   0.00000  Uiso   1.00
C157   C     0.86925   0.90986   0.41808   0.00000  Uiso   1.00
C158   C     0.91855   0.89297   0.35185   0.00000  Uiso   1.00
C159   C     0.84491   0.99620   0.71196   0.00000  Uiso   1.00
C160   C     0.81612   0.05050   0.71012   0.00000  Uiso   1.00
C161   C     0.84112   0.09794   0.77744   0.00000  Uiso   1.00
H162   H     0.96134   0.92103   0.81969   0.00000  Uiso   1.00
H163   H     0.92128   0.83848   0.97438   0.00000  Uiso   1.00
H164   H     0.01520   0.89106   0.60564   0.00000  Uiso   1.00
H165   H     0.96207   0.03168   0.89764   0.00000  Uiso   1.00
H166   H     0.85398   0.74990   0.11643   0.00000  Uiso   1.00
H167   H     0.05201   0.86078   0.33891   0.00000  Uiso   1.00
H168   H     0.93999   0.15730   0.95464   0.00000  Uiso   1.00
H169   H     0.78488   0.94377   0.59296   0.00000  Uiso   1.00
H170   H     0.73514   0.86247   0.73522   0.00000  Uiso   1.00
H171   H     0.82906   0.91504   0.36648   0.00000  Uiso   1.00
H172   H     0.77593   0.05566   0.65847   0.00000  Uiso   1.00
H173   H     0.70290   0.76937   0.92231   0.00000  Uiso   1.00
H174   H     0.90094   0.88025   0.14479   0.00000  Uiso   1.00
H175   H     0.78891   0.17677   0.76052   0.00000  Uiso   1.00
O176   O     0.74891   0.70573   0.11701   0.00000  Uiso   1.00
O177   O     0.00873   0.85121   0.09694   0.00000  Uiso   1.00
O178   O     0.86175   0.24023   0.90476   0.00000  Uiso   1.00
N179   N     0.82524   0.76565   0.05124   0.00000  Uiso   1.00
N180   N     0.01040   0.86930   0.32431   0.00000  Uiso   1.00
N181   N     0.90567   0.14653   0.89994   0.00000  Uiso   1.00
N182   N     0.74395   0.77612   0.94679   0.00000  Uiso   1.00
N183   N     0.92910   0.87978   0.21986   0.00000  Uiso   1.00
N184   N     0.82438   0.15701   0.79548   0.00000  Uiso   1.00
C185   C     0.57909   0.92624   0.26776   0.00000  Uiso   1.00
C186   C     0.62533   0.88455   0.32037   0.00000  Uiso   1.00
C187   C     0.61891   0.84365   0.42278   0.00000  Uiso   1.00
C188   C     0.66632   0.80964   0.45616   0.00000  Uiso   1.00
C189   C     0.73020   0.74387   0.54796   0.00000  Uiso   1.00
C190   C     0.57430   0.91311   0.12002   0.00000  Uiso   1.00
C191   C     0.52498   0.89623   0.05398   0.00000  Uiso   1.00
C192   C     0.52943   0.88626   0.91870   0.00000  Uiso   1.00
C193   C     0.51409   0.86487   0.69944   0.00000  Uiso   1.00
C194   C     0.60316   0.98950   0.27868   0.00000  Uiso   1.00
C195   C     0.57811   0.03687   0.34602   0.00000  Uiso   1.00
C196   C     0.60686   0.09124   0.34429   0.00000  Uiso   1.00
C197   C     0.63633   0.18846   0.37138   0.00000  Uiso   1.00
C198   C     0.67469   0.93856   0.14492   0.00000  Uiso   1.00
C199   C     0.67725   0.89124   0.25364   0.00000  Uiso   1.00
C200   C     0.72468   0.85728   0.28687   0.00000  Uiso   1.00
C201   C     0.71834   0.81635   0.38932   0.00000  Uiso   1.00
C202   C     0.62622   0.91980   0.05330   0.00000  Uiso   1.00
C203   C     0.63075   0.90986   0.91808   0.00000  Uiso   1.00
C204   C     0.58145   0.89297   0.85185   0.00000  Uiso   1.00
C205   C     0.65509   0.99620   0.21196   0.00000  Uiso   1.00
C206   C     0.68388   0.05050   0.21012   0.00000  Uiso   1.00
C207   C     0.65888   0.09794   0.27744   0.00000  Uiso   1.00
H208   H     0.53866   0.92103   0.31969   0.00000  Uiso   1.00
H209   H     0.57872   0.83848   0.47438   0.00000  Uiso   1.00
H210   H     0.48480   0.89106   0.10564   0.00000  Uiso   1.00
H211   H     0.53793   0.03168   0.39764   0.00000  Uiso   1.00
H212   H     0.64602   0.74990   0.61643   0.00000  Uiso   1.00
H213   H     0.44799   0.86078   0.83891   0.00000  Uiso   1.00
H214   H     0.56001   0.15730   0.45464   0.00000  Uiso   1.00
H215   H     0.71512   0.94377   0.09296   0.00000  Uiso   1.00
H216   H     0.76486   0.86247   0.23522   0.00000  Uiso   1.00
H217   H     0.67094   0.91504   0.86648   0.00000  Uiso   1.00
H218   H     0.72407   0.05566   0.15847   0.00000  Uiso   1.00
H219   H     0.79710   0.76937   0.42231   0.00000  Uiso   1.00
H220   H     0.59906   0.88025   0.64479   0.00000  Uiso   1.00
H221   H     0.71109   0.17677   0.26052   0.00000  Uiso   1.00
O222   O     0.75109   0.70573   0.61701   0.00000  Uiso   1.00
O223   O     0.49127   0.85121   0.59694   0.00000  Uiso   1.00
O224   O     0.63825   0.24023   0.40476   0.00000  Uiso   1.00
N225   N     0.67476   0.76565   0.55124   0.00000  Uiso   1.00
N226   N     0.48960   0.86930   0.82431   0.00000  Uiso   1.00
N227   N     0.59433   0.14653   0.39994   0.00000  Uiso   1.00
N228   N     0.75605   0.77612   0.44679   0.00000  Uiso   1.00
N229   N     0.57090   0.87978   0.71986   0.00000  Uiso   1.00
N230   N     0.67562   0.15701   0.29548   0.00000  Uiso   1.00
C231   C     0.57909   0.42624   0.76776   0.00000  Uiso   1.00
C232   C     0.62533   0.38455   0.82037   0.00000  Uiso   1.00
C233   C     0.61891   0.34365   0.92278   0.00000  Uiso   1.00
C234   C     0.66632   0.30964   0.95616   0.00000  Uiso   1.00
C235   C     0.73020   0.24387   0.04796   0.00000  Uiso   1.00
C236   C     0.57430   0.41311   0.62002   0.00000  Uiso   1.00
C237   C     0.52498   0.39623   0.55398   0.00000  Uiso   1.00
C238   C     0.52943   0.38626   0.41870   0.00000  Uiso   1.00
C239   C     0.51409   0.36487   0.19944   0.00000  Uiso   1.00
C240   C     0.60316   0.48950   0.77868   0.00000  Uiso   1.00
C241   C     0.57811   0.53687   0.84602   0.00000  Uiso   1.00
C242   C     0.60686   0.59124   0.84429   0.00000  Uiso   1.00
C243   C     0.63633   0.68846   0.87138   0.00000  Uiso   1.00
C244   C     0.67469   0.43856   0.64492   0.00000  Uiso   1.00
C245   C     0.67725   0.39124   0.75364   0.00000  Uiso   1.00
C246   C     0.72468   0.35728   0.78687   0.00000  Uiso   1.00
C247   C     0.71834   0.31635   0.88932   0.00000  Uiso   1.00
C248   C     0.62622   0.41980   0.55330   0.00000  Uiso   1.00
C249   C     0.63075   0.40986   0.41808   0.00000  Uiso   1.00
C250   C     0.58145   0.39297   0.35185   0.00000  Uiso   1.00
C251   C     0.65509   0.49620   0.71196   0.00000  Uiso   1.00
C252   C     0.68388   0.55050   0.71012   0.00000  Uiso   1.00
C253   C     0.65888   0.59794   0.77744   0.00000  Uiso   1.00
H254   H     0.53866   0.42103   0.81969   0.00000  Uiso   1.00
H255   H     0.57872   0.33848   0.97438   0.00000  Uiso   1.00
H256   H     0.48480   0.39106   0.60564   0.00000  Uiso   1.00
H257   H     0.53793   0.53168   0.89764   0.00000  Uiso   1.00
H258   H     0.64602   0.24990   0.11643   0.00000  Uiso   1.00
H259   H     0.44799   0.36078   0.33891   0.00000  Uiso   1.00
H260   H     0.56001   0.65730   0.95464   0.00000  Uiso   1.00
H261   H     0.71512   0.44377   0.59296   0.00000  Uiso   1.00
H262   H     0.76486   0.36247   0.73522   0.00000  Uiso   1.00
H263   H     0.67094   0.41504   0.36648   0.00000  Uiso   1.00
H264   H     0.72407   0.55566   0.65847   0.00000  Uiso   1.00
H265   H     0.79710   0.26937   0.92231   0.00000  Uiso   1.00
H266   H     0.59906   0.38025   0.14479   0.00000  Uiso   1.00
H267   H     0.71109   0.67677   0.76052   0.00000  Uiso   1.00
O268   O     0.75109   0.20573   0.11701   0.00000  Uiso   1.00
O269   O     0.49127   0.35121   0.09694   0.00000  Uiso   1.00
O270   O     0.63825   0.74023   0.90476   0.00000  Uiso   1.00
N271   N     0.67476   0.26565   0.05124   0.00000  Uiso   1.00
N272   N     0.48960   0.36930   0.32431   0.00000  Uiso   1.00
N273   N     0.59433   0.64653   0.89994   0.00000  Uiso   1.00
N274   N     0.75605   0.27612   0.94679   0.00000  Uiso   1.00
N275   N     0.57090   0.37978   0.21986   0.00000  Uiso   1.00
N276   N     0.67562   0.65701   0.79548   0.00000  Uiso   1.00
C277   C     0.42091   0.07376   0.26776   0.00000  Uiso   1.00
C278   C     0.37467   0.11545   0.32037   0.00000  Uiso   1.00
C279   C     0.38109   0.15635   0.42278   0.00000  Uiso   1.00
C280   C     0.33368   0.19036   0.45616   0.00000  Uiso   1.00
C281   C     0.26980   0.25613   0.54796   0.00000  Uiso   1.00
C282   C     0.42570   0.08689   0.12002   0.00000  Uiso   1.00
C283   C     0.47502   0.10377   0.05398   0.00000  Uiso   1.00
C284   C     0.47057   0.11374   0.91870   0.00000  Uiso   1.00
C285   C     0.48591   0.13513   0.69944   0.00000  Uiso   1.00
C286   C     0.39684   0.01050   0.27868   0.00000  Uiso   1.00
C287   C     0.42189   0.96313   0.34602   0.00000  Uiso   1.00
C288   C     0.39314   0.90876   0.34429   0.00000  Uiso   1.00
C289   C     0.36367   0.81154   0.37138   0.00000  Uiso   1.00
C290   C     0.32531   0.06144   0.14492   0.00000  Uiso   1.00
C291   C     0.32275   0.10876   0.25364   0.00000  Uiso   1.00
C292   C     0.27532   0.14272   0.28687   0.00000  Uiso   1.00
C293   C     0.28166   0.18365   0.38932   0.00000  Uiso   1.00
C294   C     0.37378   0.08020   0.05330   0.00000  Uiso   1.00
C295   C     0.36925   0.09014   0.91808   0.00000  Uiso   1.00
C296   C     0.41855   0.10703   0.85185   0.00000  Uiso   1.00
C297   C     0.34491   0.00380   0.21196   0.00000  Uiso   1.00
C298   C     0.31612   0.94950   0.21012   0.00000  Uiso   1.00
C299   C     0.34112   0.90206   0.27744   0.00000  Uiso   1.00
H300   H     0.46134   0.07897   0.31969   0.00000  Uiso   1.00
H301   H     0.42128   0.16152   0.47438   0.00000  Uiso   1.00
H302   H     0.51520   0.10894   0.10564   0.00000  Uiso   1.00
H303   H     0.46207   0.96832   0.39764   0.00000  Uiso   1.00
H304   H     0.35398   0.25010   0.61643   0.00000  Uiso   1.00
H305   H     0.55201   0.13922   0.83891   0.00000  Uiso   1.00
H306   H     0.43999   0.84270   0.45464   0.00000  Uiso   1.00
H307   H     0.28488   0.05623   0.09296   0.00000  Uiso   1.00
H308   H     0.23514   0.13753   0.23522   0.00000  Uiso   1.00
H309   H     0.32906   0.08496   0.86648   0.00000  Uiso   1.00
H310   H     0.27593   0.94434   0.15847   0.00000  Uiso   1.00
H311   H     0.20290   0.23063   0.42231   0.00000  Uiso   1.00
H312   H     0.40094   0.11975   0.64479   0.00000  Uiso   1.00
H313   H     0.28891   0.82323   0.26052   0.00000  Uiso   1.00
O314   O     0.24891   0.29427   0.61701   0.00000  Uiso   1.00
O315   O     0.50873   0.14879   0.59694   0.00000  Uiso   1.00
O316   O     0.36175   0.75977   0.40476   0.00000  Uiso   1.00
N317   N     0.32524   0.23435   0.55124   0.00000  Uiso   1.00
N318   N     0.51040   0.13070   0.82431   0.00000  Uiso   1.00
N319   N     0.40567   0.85347   0.39994   0.00000  Uiso   1.00
N320   N     0.24395   0.22388   0.44679   0.00000  Uiso   1.00
N321   N     0.42910   0.12022   0.71986   0.00000  Uiso   1.00
N322   N     0.32438   0.84299   0.29548   0.00000  Uiso   1.00
C323   C     0.42091   0.57376   0.76776   0.00000  Uiso   1.00
C324   C     0.37467   0.61545   0.82037   0.00000  Uiso   1.00
C325   C     0.38109   0.65635   0.92278   0.00000  Uiso   1.00
C326   C     0.33368   0.69036   0.95616   0.00000  Uiso   1.00
C327   C     0.26980   0.75613   0.04796   0.00000  Uiso   1.00
C328   C     0.42570   0.58689   0.62002   0.00000  Uiso   1.00
C329   C     0.47502   0.60377   0.55398   0.00000  Uiso   1.00
C330   C     0.47057   0.61374   0.41870   0.00000  Uiso   1.00
C331   C     0.48591   0.63513   0.19944   0.00000  Uiso   1.00
C332   C     0.39684   0.51050   0.77868   0.00000  Uiso   1.00
C333   C     0.42189   0.46313   0.84602   0.00000  Uiso   1.00
C334   C     0.39314   0.40876   0.84429   0.00000  Uiso   1.00
C335   C     0.36367   0.31154   0.87138   0.00000  Uiso   1.00
C336   C     0.32531   0.56144   0.64492   0.00000  Uiso   1.00
C337   C     0.32275   0.60876   0.75364   0.00000  Uiso   1.00
C338   C     0.27532   0.64272   0.78687   0.00000  Uiso   1.00
C339   C     0.28166   0.68365   0.88932   0.00000  Uiso   1.00
C340   C     0.37378   0.58020   0.55330   0.00000  Uiso   1.00
C341   C     0.36925   0.59014   0.41808   0.00000  Uiso   1.00
C342   C     0.41855   0.60703   0.35185   0.00000  Uiso   1.00
C343   C     0.34491   0.50380   0.71196   0.00000  Uiso   1.00
C344   C     0.31612   0.44950   0.71012   0.00000  Uiso   1.00
C345   C     0.34112   0.40206   0.77744   0.00000  Uiso   1.00
H346   H     0.46134   0.57897   0.81969   0.00000  Uiso   1.00
H347   H     0.42128   0.66152   0.97438   0.00000  Uiso   1.00
H348   H     0.51520   0.60894   0.60564   0.00000  Uiso   1.00
H349   H     0.46207   0.46832   0.89764   0.00000  Uiso   1.00
H350   H     0.35398   0.75010   0.11643   0.00000  Uiso   1.00
H351   H     0.55201   0.63922   0.33891   0.00000  Uiso   1.00
H352   H     0.43999   0.34270   0.95464   0.00000  Uiso   1.00
H353   H     0.28488   0.55623   0.59296   0.00000  Uiso   1.00
H354   H     0.23514   0.63753   0.73522   0.00000  Uiso   1.00
H355   H     0.32906   0.58496   0.36648   0.00000  Uiso   1.00
H356   H     0.27593   0.44434   0.65847   0.00000  Uiso   1.00
H357   H     0.20290   0.73063   0.92231   0.00000  Uiso   1.00
H358   H     0.40094   0.61975   0.14479   0.00000  Uiso   1.00
H359   H     0.28891   0.32323   0.76052   0.00000  Uiso   1.00
O360   O     0.24891   0.79427   0.11701   0.00000  Uiso   1.00
O361   O     0.50873   0.64879   0.09694   0.00000  Uiso   1.00
O362   O     0.36175   0.25977   0.90476   0.00000  Uiso   1.00
N363   N     0.32524   0.73435   0.05124   0.00000  Uiso   1.00
N364   N     0.51040   0.63070   0.32431   0.00000  Uiso   1.00
N365   N     0.40567   0.35347   0.89994   0.00000  Uiso   1.00
N366   N     0.24395   0.72388   0.94679   0.00000  Uiso   1.00
N367   N     0.42910   0.62022   0.21986   0.00000  Uiso   1.00
N368   N     0.32438   0.34299   0.79548   0.00000  Uiso   1.00
