data_job_00649
_audit_creation_date              2018-12-19
_audit_creation_method            'Materials Studio'
_symmetry_space_group_name_H-M    'P1'
_symmetry_Int_Tables_number       1
_symmetry_cell_setting            triclinic
loop_
_symmetry_equiv_pos_as_xyz
  x,y,z
_cell_length_a                    9.3830
_cell_length_b                    18.7729
_cell_length_c                    13.3553
_cell_angle_alpha                 90.0000
_cell_angle_beta                  75.1822
_cell_angle_gamma                 90.0000
loop_
_atom_site_label
_atom_site_type_symbol
_atom_site_fract_x
_atom_site_fract_y
_atom_site_fract_z
_atom_site_U_iso_or_equiv
_atom_site_adp_type
_atom_site_occupancy
C1     C     0.49807   0.88401   0.85989   0.00000  Uiso   1.00
C2     C     0.33238   0.88590   0.87054   0.00000  Uiso   1.00
C3     C     0.22554   0.90626   0.95839   0.00000  Uiso   1.00
C4     C     0.07996   0.90432   0.95257   0.00000  Uiso   1.00
C5     C     0.82834   0.91050   0.98289   0.00000  Uiso   1.00
C6     C     0.54724   0.80808   0.82801   0.00000  Uiso   1.00
C7     C     0.62107   0.76301   0.88009   0.00000  Uiso   1.00
C8     C     0.65637   0.69557   0.83846   0.00000  Uiso   1.00
C9     C     0.73842   0.58095   0.80270   0.00000  Uiso   1.00
C10    C     0.56761   0.93088   0.76699   0.00000  Uiso   1.00
C11    C     0.65861   0.98905   0.76776   0.00000  Uiso   1.00
C12    C     0.71109   0.02498   0.67474   0.00000  Uiso   1.00
C13    C     0.82478   0.10102   0.54424   0.00000  Uiso   1.00
C14    C     0.42951   0.84438   0.69333   0.00000  Uiso   1.00
C15    C     0.29514   0.86437   0.78007   0.00000  Uiso   1.00
C16    C     0.14968   0.86241   0.77411   0.00000  Uiso   1.00
C17    C     0.04265   0.88276   0.86194   0.00000  Uiso   1.00
C18    C     0.51000   0.78655   0.73754   0.00000  Uiso   1.00
C19    C     0.54521   0.71916   0.69582   0.00000  Uiso   1.00
C20    C     0.61906   0.67400   0.74783   0.00000  Uiso   1.00
C21    C     0.53037   0.90935   0.67652   0.00000  Uiso   1.00
C22    C     0.58274   0.94520   0.58348   0.00000  Uiso   1.00
C23    C     0.67379   0.00341   0.58411   0.00000  Uiso   1.00
H24    H     0.52707   0.90077   0.93032   0.00000  Uiso   1.00
H25    H     0.25441   0.92291   0.02839   0.00000  Uiso   1.00
H26    H     0.64988   0.77969   0.95010   0.00000  Uiso   1.00
H27    H     0.68740   0.00569   0.83778   0.00000  Uiso   1.00
H28    H     0.93568   0.93794   0.09723   0.00000  Uiso   1.00
H29    H     0.76961   0.63596   0.93213   0.00000  Uiso   1.00
H30    H     0.84874   0.11253   0.69529   0.00000  Uiso   1.00
H31    H     0.40052   0.82762   0.62290   0.00000  Uiso   1.00
H32    H     0.12090   0.84574   0.70409   0.00000  Uiso   1.00
H33    H     0.51638   0.70252   0.62580   0.00000  Uiso   1.00
H34    H     0.55390   0.92852   0.51349   0.00000  Uiso   1.00
H35    H     0.82732   0.87530   0.83402   0.00000  Uiso   1.00
H36    H     0.66126   0.57333   0.66891   0.00000  Uiso   1.00
H37    H     0.74038   0.04990   0.43208   0.00000  Uiso   1.00
O38    O     0.69984   0.91984   0.02460   0.00000  Uiso   1.00
O39    O     0.79395   0.52367   0.80798   0.00000  Uiso   1.00
O40    O     0.89775   0.14891   0.49725   0.00000  Uiso   1.00
N41    N     0.94856   0.92072   0.02414   0.00000  Uiso   1.00
N42    N     0.72821   0.63839   0.86978   0.00000  Uiso   1.00
N43    N     0.80222   0.08393   0.64835   0.00000  Uiso   1.00
N44    N     0.89025   0.88702   0.88251   0.00000  Uiso   1.00
N45    N     0.66990   0.60469   0.72815   0.00000  Uiso   1.00
N46    N     0.74391   0.05023   0.50672   0.00000  Uiso   1.00
C47    C     0.50193   0.38401   0.64011   0.00000  Uiso   1.00
C48    C     0.66762   0.38590   0.62946   0.00000  Uiso   1.00
C49    C     0.77446   0.40626   0.54161   0.00000  Uiso   1.00
C50    C     0.92004   0.40432   0.54743   0.00000  Uiso   1.00
C51    C     0.17166   0.41050   0.51711   0.00000  Uiso   1.00
C52    C     0.45276   0.30808   0.67199   0.00000  Uiso   1.00
C53    C     0.37893   0.26301   0.61991   0.00000  Uiso   1.00
C54    C     0.34363   0.19557   0.66154   0.00000  Uiso   1.00
C55    C     0.26158   0.08095   0.69730   0.00000  Uiso   1.00
C56    C     0.43239   0.43088   0.73301   0.00000  Uiso   1.00
C57    C     0.34139   0.48905   0.73224   0.00000  Uiso   1.00
C58    C     0.28891   0.52498   0.82526   0.00000  Uiso   1.00
C59    C     0.17522   0.60102   0.95576   0.00000  Uiso   1.00
C60    C     0.57049   0.34438   0.80667   0.00000  Uiso   1.00
C61    C     0.70486   0.36437   0.71993   0.00000  Uiso   1.00
C62    C     0.85032   0.36241   0.72589   0.00000  Uiso   1.00
C63    C     0.95735   0.38276   0.63806   0.00000  Uiso   1.00
C64    C     0.49000   0.28655   0.76246   0.00000  Uiso   1.00
C65    C     0.45479   0.21916   0.80418   0.00000  Uiso   1.00
C66    C     0.38094   0.17400   0.75217   0.00000  Uiso   1.00
C67    C     0.46963   0.40935   0.82348   0.00000  Uiso   1.00
C68    C     0.41726   0.44520   0.91652   0.00000  Uiso   1.00
C69    C     0.32621   0.50341   0.91589   0.00000  Uiso   1.00
H70    H     0.47293   0.40077   0.56968   0.00000  Uiso   1.00
H71    H     0.74559   0.42291   0.47161   0.00000  Uiso   1.00
H72    H     0.35012   0.27969   0.54990   0.00000  Uiso   1.00
H73    H     0.31260   0.50569   0.66222   0.00000  Uiso   1.00
H74    H     0.06432   0.43794   0.40277   0.00000  Uiso   1.00
H75    H     0.23039   0.13596   0.56787   0.00000  Uiso   1.00
H76    H     0.15126   0.61253   0.80471   0.00000  Uiso   1.00
H77    H     0.59948   0.32762   0.87710   0.00000  Uiso   1.00
H78    H     0.87910   0.34574   0.79591   0.00000  Uiso   1.00
H79    H     0.48362   0.20252   0.87420   0.00000  Uiso   1.00
H80    H     0.44610   0.42852   0.98651   0.00000  Uiso   1.00
H81    H     0.17268   0.37530   0.66598   0.00000  Uiso   1.00
H82    H     0.33874   0.07333   0.83109   0.00000  Uiso   1.00
H83    H     0.25962   0.54990   0.06792   0.00000  Uiso   1.00
O84    O     0.30016   0.41984   0.47540   0.00000  Uiso   1.00
O85    O     0.20605   0.02367   0.69202   0.00000  Uiso   1.00
O86    O     0.10225   0.64891   0.00275   0.00000  Uiso   1.00
N87    N     0.05144   0.42072   0.47586   0.00000  Uiso   1.00
N88    N     0.27179   0.13839   0.63022   0.00000  Uiso   1.00
N89    N     0.19778   0.58393   0.85165   0.00000  Uiso   1.00
N90    N     0.10975   0.38702   0.61749   0.00000  Uiso   1.00
N91    N     0.33010   0.10469   0.77185   0.00000  Uiso   1.00
N92    N     0.25609   0.55023   0.99328   0.00000  Uiso   1.00
C93    C     0.50193   0.11599   0.14011   0.00000  Uiso   1.00
C94    C     0.66762   0.11410   0.12946   0.00000  Uiso   1.00
C95    C     0.77446   0.09374   0.04161   0.00000  Uiso   1.00
C96    C     0.92004   0.09568   0.04743   0.00000  Uiso   1.00
C97    C     0.17166   0.08950   0.01711   0.00000  Uiso   1.00
C98    C     0.45276   0.19192   0.17199   0.00000  Uiso   1.00
C99    C     0.37893   0.23699   0.11991   0.00000  Uiso   1.00
C100   C     0.34363   0.30443   0.16154   0.00000  Uiso   1.00
C101   C     0.26158   0.41905   0.19730   0.00000  Uiso   1.00
C102   C     0.43239   0.06912   0.23301   0.00000  Uiso   1.00
C103   C     0.34139   0.01095   0.23224   0.00000  Uiso   1.00
C104   C     0.28891   0.97502   0.32526   0.00000  Uiso   1.00
C105   C     0.17522   0.89898   0.45576   0.00000  Uiso   1.00
C106   C     0.57049   0.15562   0.30667   0.00000  Uiso   1.00
C107   C     0.70486   0.13563   0.21993   0.00000  Uiso   1.00
C108   C     0.85032   0.13759   0.22589   0.00000  Uiso   1.00
C109   C     0.95735   0.11724   0.13806   0.00000  Uiso   1.00
C110   C     0.49000   0.21345   0.26246   0.00000  Uiso   1.00
C111   C     0.45479   0.28084   0.30418   0.00000  Uiso   1.00
C112   C     0.38094   0.32600   0.25217   0.00000  Uiso   1.00
C113   C     0.46963   0.09065   0.32348   0.00000  Uiso   1.00
C114   C     0.41726   0.05480   0.41652   0.00000  Uiso   1.00
C115   C     0.32621   0.99659   0.41589   0.00000  Uiso   1.00
H116   H     0.47293   0.09923   0.06968   0.00000  Uiso   1.00
H117   H     0.74559   0.07709   0.97161   0.00000  Uiso   1.00
H118   H     0.35012   0.22031   0.04990   0.00000  Uiso   1.00
H119   H     0.31260   0.99431   0.16222   0.00000  Uiso   1.00
H120   H     0.06432   0.06206   0.90277   0.00000  Uiso   1.00
H121   H     0.23039   0.36404   0.06787   0.00000  Uiso   1.00
H122   H     0.15126   0.88747   0.30471   0.00000  Uiso   1.00
H123   H     0.59948   0.17238   0.37710   0.00000  Uiso   1.00
H124   H     0.87910   0.15426   0.29591   0.00000  Uiso   1.00
H125   H     0.48362   0.29748   0.37420   0.00000  Uiso   1.00
H126   H     0.44610   0.07148   0.48651   0.00000  Uiso   1.00
H127   H     0.17268   0.12470   0.16598   0.00000  Uiso   1.00
H128   H     0.33874   0.42667   0.33109   0.00000  Uiso   1.00
H129   H     0.25962   0.95010   0.56792   0.00000  Uiso   1.00
O130   O     0.30016   0.08016   0.97540   0.00000  Uiso   1.00
O131   O     0.20605   0.47633   0.19202   0.00000  Uiso   1.00
O132   O     0.10225   0.85109   0.50275   0.00000  Uiso   1.00
N133   N     0.05144   0.07928   0.97586   0.00000  Uiso   1.00
N134   N     0.27179   0.36161   0.13022   0.00000  Uiso   1.00
N135   N     0.19778   0.91607   0.35165   0.00000  Uiso   1.00
N136   N     0.10975   0.11298   0.11749   0.00000  Uiso   1.00
N137   N     0.33010   0.39531   0.27185   0.00000  Uiso   1.00
N138   N     0.25609   0.94977   0.49328   0.00000  Uiso   1.00
C139   C     0.49807   0.61599   0.35989   0.00000  Uiso   1.00
C140   C     0.33238   0.61410   0.37054   0.00000  Uiso   1.00
C141   C     0.22554   0.59374   0.45839   0.00000  Uiso   1.00
C142   C     0.07996   0.59568   0.45257   0.00000  Uiso   1.00
C143   C     0.82834   0.58950   0.48289   0.00000  Uiso   1.00
C144   C     0.54724   0.69192   0.32801   0.00000  Uiso   1.00
C145   C     0.62107   0.73699   0.38009   0.00000  Uiso   1.00
C146   C     0.65637   0.80443   0.33846   0.00000  Uiso   1.00
C147   C     0.73842   0.91905   0.30270   0.00000  Uiso   1.00
C148   C     0.56761   0.56912   0.26699   0.00000  Uiso   1.00
C149   C     0.65861   0.51095   0.26776   0.00000  Uiso   1.00
C150   C     0.71109   0.47502   0.17474   0.00000  Uiso   1.00
C151   C     0.82478   0.39898   0.04424   0.00000  Uiso   1.00
C152   C     0.42951   0.65562   0.19333   0.00000  Uiso   1.00
C153   C     0.29514   0.63563   0.28007   0.00000  Uiso   1.00
C154   C     0.14968   0.63759   0.27411   0.00000  Uiso   1.00
C155   C     0.04265   0.61724   0.36194   0.00000  Uiso   1.00
C156   C     0.51000   0.71345   0.23754   0.00000  Uiso   1.00
C157   C     0.54521   0.78084   0.19582   0.00000  Uiso   1.00
C158   C     0.61906   0.82600   0.24783   0.00000  Uiso   1.00
C159   C     0.53037   0.59065   0.17652   0.00000  Uiso   1.00
C160   C     0.58274   0.55480   0.08348   0.00000  Uiso   1.00
C161   C     0.67379   0.49659   0.08411   0.00000  Uiso   1.00
H162   H     0.52707   0.59923   0.43032   0.00000  Uiso   1.00
H163   H     0.25441   0.57709   0.52839   0.00000  Uiso   1.00
H164   H     0.64988   0.72031   0.45010   0.00000  Uiso   1.00
H165   H     0.68740   0.49431   0.33778   0.00000  Uiso   1.00
H166   H     0.93568   0.56206   0.59723   0.00000  Uiso   1.00
H167   H     0.76961   0.86404   0.43213   0.00000  Uiso   1.00
H168   H     0.84874   0.38747   0.19529   0.00000  Uiso   1.00
H169   H     0.40052   0.67238   0.12290   0.00000  Uiso   1.00
H170   H     0.12090   0.65426   0.20409   0.00000  Uiso   1.00
H171   H     0.51638   0.79748   0.12580   0.00000  Uiso   1.00
H172   H     0.55390   0.57148   0.01349   0.00000  Uiso   1.00
H173   H     0.82732   0.62470   0.33402   0.00000  Uiso   1.00
H174   H     0.66126   0.92667   0.16891   0.00000  Uiso   1.00
H175   H     0.74038   0.45010   0.93208   0.00000  Uiso   1.00
O176   O     0.69984   0.58016   0.52460   0.00000  Uiso   1.00
O177   O     0.79395   0.97633   0.30798   0.00000  Uiso   1.00
O178   O     0.89775   0.35109   0.99725   0.00000  Uiso   1.00
N179   N     0.94856   0.57928   0.52414   0.00000  Uiso   1.00
N180   N     0.72821   0.86161   0.36978   0.00000  Uiso   1.00
N181   N     0.80222   0.41607   0.14835   0.00000  Uiso   1.00
N182   N     0.89025   0.61298   0.38251   0.00000  Uiso   1.00
N183   N     0.66990   0.89531   0.22815   0.00000  Uiso   1.00
N184   N     0.74391   0.44977   0.00672   0.00000  Uiso   1.00
