data_job_03436
_audit_creation_date              2018-12-19
_audit_creation_method            'Materials Studio'
_symmetry_space_group_name_H-M    'P1'
_symmetry_Int_Tables_number       1
_symmetry_cell_setting            triclinic
loop_
_symmetry_equiv_pos_as_xyz
  x,y,z
_cell_length_a                    22.5737
_cell_length_b                    12.7572
_cell_length_c                    16.3699
_cell_angle_alpha                 90.0000
_cell_angle_beta                  90.0000
_cell_angle_gamma                 90.0000
loop_
_atom_site_label
_atom_site_type_symbol
_atom_site_fract_x
_atom_site_fract_y
_atom_site_fract_z
_atom_site_U_iso_or_equiv
_atom_site_adp_type
_atom_site_occupancy
C1     C     0.29164   0.96358   0.94586   0.00000  Uiso   1.00
C2     C     0.25299   0.95864   0.02216   0.00000  Uiso   1.00
C3     C     0.19388   0.92888   0.02449   0.00000  Uiso   1.00
C4     C     0.16632   0.92954   0.10031   0.00000  Uiso   1.00
C5     C     0.10165   0.91746   0.20799   0.00000  Uiso   1.00
C6     C     0.31539   0.07536   0.94171   0.00000  Uiso   1.00
C7     C     0.30875   0.14373   0.87640   0.00000  Uiso   1.00
C8     C     0.33373   0.24264   0.88451   0.00000  Uiso   1.00
C9     C     0.36597   0.41174   0.86727   0.00000  Uiso   1.00
C10    C     0.34505   0.89382   0.96314   0.00000  Uiso   1.00
C11    C     0.36336   0.80956   0.91583   0.00000  Uiso   1.00
C12    C     0.41332   0.75564   0.94196   0.00000  Uiso   1.00
C13    C     0.49161   0.64286   0.95799   0.00000  Uiso   1.00
C14    C     0.34781   0.01767   0.07636   0.00000  Uiso   1.00
C15    C     0.28350   0.98803   0.09304   0.00000  Uiso   1.00
C16    C     0.25602   0.98873   0.16888   0.00000  Uiso   1.00
C17    C     0.19688   0.95897   0.17132   0.00000  Uiso   1.00
C18    C     0.34589   0.10474   0.01259   0.00000  Uiso   1.00
C19    C     0.37089   0.20358   0.02079   0.00000  Uiso   1.00
C20    C     0.36429   0.27208   0.95552   0.00000  Uiso   1.00
C21    C     0.37555   0.92319   0.03402   0.00000  Uiso   1.00
C22    C     0.42549   0.86940   0.06022   0.00000  Uiso   1.00
C23    C     0.44388   0.78507   0.01297   0.00000  Uiso   1.00
H24    H     0.26790   0.94071   0.89067   0.00000  Uiso   1.00
H25    H     0.17028   0.90616   0.96961   0.00000  Uiso   1.00
H26    H     0.28515   0.12097   0.82155   0.00000  Uiso   1.00
H27    H     0.33974   0.78685   0.86098   0.00000  Uiso   1.00
H28    H     0.07551   0.88084   0.08840   0.00000  Uiso   1.00
H29    H     0.31772   0.33377   0.77619   0.00000  Uiso   1.00
H30    H     0.43285   0.62920   0.85932   0.00000  Uiso   1.00
H31    H     0.37156   0.04055   0.13155   0.00000  Uiso   1.00
H32    H     0.27964   0.01147   0.22372   0.00000  Uiso   1.00
H33    H     0.39450   0.22628   0.07566   0.00000  Uiso   1.00
H34    H     0.44909   0.89216   0.11508   0.00000  Uiso   1.00
H35    H     0.16427   0.96632   0.29464   0.00000  Uiso   1.00
H36    H     0.40647   0.41925   0.98243   0.00000  Uiso   1.00
H37    H     0.52160   0.71468   0.06557   0.00000  Uiso   1.00
O38    O     0.05754   0.90269   0.24780   0.00000  Uiso   1.00
O39    O     0.37532   0.49690   0.83819   0.00000  Uiso   1.00
O40    O     0.52636   0.57252   0.94726   0.00000  Uiso   1.00
N41    N     0.10902   0.90493   0.12429   0.00000  Uiso   1.00
N42    N     0.33546   0.32840   0.83240   0.00000  Uiso   1.00
N43    N     0.44310   0.66970   0.91011   0.00000  Uiso   1.00
N44    N     0.15678   0.95093   0.23527   0.00000  Uiso   1.00
N45    N     0.38322   0.37439   0.94338   0.00000  Uiso   1.00
N46    N     0.49086   0.71570   0.02109   0.00000  Uiso   1.00
C47    C     0.20836   0.53642   0.94586   0.00000  Uiso   1.00
C48    C     0.24701   0.54136   0.02216   0.00000  Uiso   1.00
C49    C     0.30612   0.57112   0.02449   0.00000  Uiso   1.00
C50    C     0.33368   0.57046   0.10031   0.00000  Uiso   1.00
C51    C     0.39835   0.58254   0.20799   0.00000  Uiso   1.00
C52    C     0.18461   0.42464   0.94171   0.00000  Uiso   1.00
C53    C     0.19125   0.35627   0.87640   0.00000  Uiso   1.00
C54    C     0.16627   0.25736   0.88451   0.00000  Uiso   1.00
C55    C     0.13403   0.08826   0.86727   0.00000  Uiso   1.00
C56    C     0.15495   0.60618   0.96314   0.00000  Uiso   1.00
C57    C     0.13664   0.69044   0.91583   0.00000  Uiso   1.00
C58    C     0.08668   0.74436   0.94196   0.00000  Uiso   1.00
C59    C     0.00839   0.85714   0.95799   0.00000  Uiso   1.00
C60    C     0.15219   0.48233   0.07636   0.00000  Uiso   1.00
C61    C     0.21650   0.51197   0.09304   0.00000  Uiso   1.00
C62    C     0.24398   0.51127   0.16888   0.00000  Uiso   1.00
C63    C     0.30312   0.54103   0.17132   0.00000  Uiso   1.00
C64    C     0.15411   0.39526   0.01259   0.00000  Uiso   1.00
C65    C     0.12911   0.29642   0.02079   0.00000  Uiso   1.00
C66    C     0.13571   0.22792   0.95552   0.00000  Uiso   1.00
C67    C     0.12445   0.57681   0.03402   0.00000  Uiso   1.00
C68    C     0.07451   0.63060   0.06022   0.00000  Uiso   1.00
C69    C     0.05612   0.71493   0.01297   0.00000  Uiso   1.00
H70    H     0.23210   0.55929   0.89067   0.00000  Uiso   1.00
H71    H     0.32972   0.59384   0.96961   0.00000  Uiso   1.00
H72    H     0.21485   0.37903   0.82155   0.00000  Uiso   1.00
H73    H     0.16026   0.71315   0.86098   0.00000  Uiso   1.00
H74    H     0.42449   0.61916   0.08840   0.00000  Uiso   1.00
H75    H     0.18228   0.16623   0.77619   0.00000  Uiso   1.00
H76    H     0.06715   0.87080   0.85932   0.00000  Uiso   1.00
H77    H     0.12844   0.45945   0.13155   0.00000  Uiso   1.00
H78    H     0.22036   0.48853   0.22372   0.00000  Uiso   1.00
H79    H     0.10550   0.27372   0.07566   0.00000  Uiso   1.00
H80    H     0.05091   0.60784   0.11508   0.00000  Uiso   1.00
H81    H     0.33573   0.53368   0.29464   0.00000  Uiso   1.00
H82    H     0.09353   0.08075   0.98243   0.00000  Uiso   1.00
H83    H     0.97840   0.78532   0.06557   0.00000  Uiso   1.00
O84    O     0.44246   0.59731   0.24780   0.00000  Uiso   1.00
O85    O     0.12468   0.00310   0.83819   0.00000  Uiso   1.00
O86    O     0.97364   0.92748   0.94726   0.00000  Uiso   1.00
N87    N     0.39098   0.59507   0.12429   0.00000  Uiso   1.00
N88    N     0.16454   0.17160   0.83240   0.00000  Uiso   1.00
N89    N     0.05690   0.83030   0.91011   0.00000  Uiso   1.00
N90    N     0.34322   0.54907   0.23527   0.00000  Uiso   1.00
N91    N     0.11678   0.12561   0.94338   0.00000  Uiso   1.00
N92    N     0.00914   0.78430   0.02109   0.00000  Uiso   1.00
C93    C     0.70836   0.46358   0.55414   0.00000  Uiso   1.00
C94    C     0.74701   0.45864   0.47784   0.00000  Uiso   1.00
C95    C     0.80612   0.42888   0.47551   0.00000  Uiso   1.00
C96    C     0.83368   0.42954   0.39969   0.00000  Uiso   1.00
C97    C     0.89835   0.41746   0.29201   0.00000  Uiso   1.00
C98    C     0.68461   0.57536   0.55829   0.00000  Uiso   1.00
C99    C     0.69125   0.64373   0.62360   0.00000  Uiso   1.00
C100   C     0.66627   0.74264   0.61549   0.00000  Uiso   1.00
C101   C     0.63403   0.91174   0.63273   0.00000  Uiso   1.00
C102   C     0.65495   0.39382   0.53686   0.00000  Uiso   1.00
C103   C     0.63664   0.30956   0.58417   0.00000  Uiso   1.00
C104   C     0.58668   0.25564   0.55804   0.00000  Uiso   1.00
C105   C     0.50839   0.14286   0.54201   0.00000  Uiso   1.00
C106   C     0.65219   0.51767   0.42364   0.00000  Uiso   1.00
C107   C     0.71650   0.48803   0.40696   0.00000  Uiso   1.00
C108   C     0.74398   0.48873   0.33112   0.00000  Uiso   1.00
C109   C     0.80312   0.45897   0.32868   0.00000  Uiso   1.00
C110   C     0.65411   0.60474   0.48741   0.00000  Uiso   1.00
C111   C     0.62911   0.70358   0.47921   0.00000  Uiso   1.00
C112   C     0.63571   0.77208   0.54448   0.00000  Uiso   1.00
C113   C     0.62445   0.42319   0.46598   0.00000  Uiso   1.00
C114   C     0.57451   0.36940   0.43978   0.00000  Uiso   1.00
C115   C     0.55612   0.28507   0.48703   0.00000  Uiso   1.00
H116   H     0.73210   0.44071   0.60933   0.00000  Uiso   1.00
H117   H     0.82972   0.40616   0.53039   0.00000  Uiso   1.00
H118   H     0.71485   0.62097   0.67845   0.00000  Uiso   1.00
H119   H     0.66026   0.28685   0.63902   0.00000  Uiso   1.00
H120   H     0.92449   0.38084   0.41160   0.00000  Uiso   1.00
H121   H     0.68228   0.83377   0.72381   0.00000  Uiso   1.00
H122   H     0.56715   0.12920   0.64068   0.00000  Uiso   1.00
H123   H     0.62844   0.54055   0.36845   0.00000  Uiso   1.00
H124   H     0.72036   0.51147   0.27628   0.00000  Uiso   1.00
H125   H     0.60550   0.72628   0.42434   0.00000  Uiso   1.00
H126   H     0.55091   0.39216   0.38492   0.00000  Uiso   1.00
H127   H     0.83573   0.46632   0.20536   0.00000  Uiso   1.00
H128   H     0.59353   0.91925   0.51757   0.00000  Uiso   1.00
H129   H     0.47840   0.21468   0.43443   0.00000  Uiso   1.00
O130   O     0.94246   0.40269   0.25220   0.00000  Uiso   1.00
O131   O     0.62468   0.99690   0.66181   0.00000  Uiso   1.00
O132   O     0.47364   0.07252   0.55274   0.00000  Uiso   1.00
N133   N     0.89098   0.40493   0.37571   0.00000  Uiso   1.00
N134   N     0.66454   0.82840   0.66760   0.00000  Uiso   1.00
N135   N     0.55690   0.16970   0.58989   0.00000  Uiso   1.00
N136   N     0.84322   0.45093   0.26473   0.00000  Uiso   1.00
N137   N     0.61678   0.87439   0.55662   0.00000  Uiso   1.00
N138   N     0.50914   0.21570   0.47891   0.00000  Uiso   1.00
C139   C     0.79164   0.03642   0.55414   0.00000  Uiso   1.00
C140   C     0.75299   0.04136   0.47784   0.00000  Uiso   1.00
C141   C     0.69388   0.07112   0.47551   0.00000  Uiso   1.00
C142   C     0.66632   0.07046   0.39969   0.00000  Uiso   1.00
C143   C     0.60165   0.08254   0.29201   0.00000  Uiso   1.00
C144   C     0.81539   0.92464   0.55829   0.00000  Uiso   1.00
C145   C     0.80875   0.85627   0.62360   0.00000  Uiso   1.00
C146   C     0.83373   0.75736   0.61549   0.00000  Uiso   1.00
C147   C     0.86597   0.58826   0.63273   0.00000  Uiso   1.00
C148   C     0.84505   0.10618   0.53686   0.00000  Uiso   1.00
C149   C     0.86336   0.19044   0.58417   0.00000  Uiso   1.00
C150   C     0.91332   0.24436   0.55804   0.00000  Uiso   1.00
C151   C     0.99161   0.35714   0.54201   0.00000  Uiso   1.00
C152   C     0.84781   0.98233   0.42364   0.00000  Uiso   1.00
C153   C     0.78350   0.01197   0.40696   0.00000  Uiso   1.00
C154   C     0.75602   0.01127   0.33112   0.00000  Uiso   1.00
C155   C     0.69688   0.04103   0.32868   0.00000  Uiso   1.00
C156   C     0.84589   0.89526   0.48741   0.00000  Uiso   1.00
C157   C     0.87089   0.79642   0.47921   0.00000  Uiso   1.00
C158   C     0.86429   0.72792   0.54448   0.00000  Uiso   1.00
C159   C     0.87555   0.07681   0.46598   0.00000  Uiso   1.00
C160   C     0.92549   0.13060   0.43978   0.00000  Uiso   1.00
C161   C     0.94388   0.21493   0.48703   0.00000  Uiso   1.00
H162   H     0.76790   0.05929   0.60933   0.00000  Uiso   1.00
H163   H     0.67028   0.09384   0.53039   0.00000  Uiso   1.00
H164   H     0.78515   0.87903   0.67845   0.00000  Uiso   1.00
H165   H     0.83974   0.21315   0.63902   0.00000  Uiso   1.00
H166   H     0.57551   0.11916   0.41160   0.00000  Uiso   1.00
H167   H     0.81772   0.66623   0.72381   0.00000  Uiso   1.00
H168   H     0.93285   0.37080   0.64068   0.00000  Uiso   1.00
H169   H     0.87156   0.95945   0.36845   0.00000  Uiso   1.00
H170   H     0.77964   0.98853   0.27628   0.00000  Uiso   1.00
H171   H     0.89450   0.77372   0.42434   0.00000  Uiso   1.00
H172   H     0.94909   0.10784   0.38492   0.00000  Uiso   1.00
H173   H     0.66427   0.03368   0.20536   0.00000  Uiso   1.00
H174   H     0.90647   0.58075   0.51757   0.00000  Uiso   1.00
H175   H     0.02160   0.28532   0.43443   0.00000  Uiso   1.00
O176   O     0.55754   0.09731   0.25220   0.00000  Uiso   1.00
O177   O     0.87532   0.50310   0.66181   0.00000  Uiso   1.00
O178   O     0.02636   0.42748   0.55274   0.00000  Uiso   1.00
N179   N     0.60902   0.09507   0.37571   0.00000  Uiso   1.00
N180   N     0.83546   0.67160   0.66760   0.00000  Uiso   1.00
N181   N     0.94310   0.33030   0.58989   0.00000  Uiso   1.00
N182   N     0.65678   0.04907   0.26473   0.00000  Uiso   1.00
N183   N     0.88322   0.62561   0.55662   0.00000  Uiso   1.00
N184   N     0.99086   0.28430   0.47891   0.00000  Uiso   1.00
C185   C     0.70836   0.03642   0.05414   0.00000  Uiso   1.00
C186   C     0.74701   0.04136   0.97784   0.00000  Uiso   1.00
C187   C     0.80612   0.07112   0.97551   0.00000  Uiso   1.00
C188   C     0.83368   0.07046   0.89969   0.00000  Uiso   1.00
C189   C     0.89835   0.08254   0.79201   0.00000  Uiso   1.00
C190   C     0.68461   0.92464   0.05829   0.00000  Uiso   1.00
C191   C     0.69125   0.85627   0.12360   0.00000  Uiso   1.00
C192   C     0.66627   0.75736   0.11549   0.00000  Uiso   1.00
C193   C     0.63403   0.58826   0.13273   0.00000  Uiso   1.00
C194   C     0.65495   0.10618   0.03686   0.00000  Uiso   1.00
C195   C     0.63664   0.19044   0.08417   0.00000  Uiso   1.00
C196   C     0.58668   0.24436   0.05804   0.00000  Uiso   1.00
C197   C     0.50839   0.35714   0.04201   0.00000  Uiso   1.00
C198   C     0.65219   0.98233   0.92364   0.00000  Uiso   1.00
C199   C     0.71650   0.01197   0.90696   0.00000  Uiso   1.00
C200   C     0.74398   0.01127   0.83112   0.00000  Uiso   1.00
C201   C     0.80312   0.04103   0.82868   0.00000  Uiso   1.00
C202   C     0.65411   0.89526   0.98741   0.00000  Uiso   1.00
C203   C     0.62911   0.79642   0.97921   0.00000  Uiso   1.00
C204   C     0.63571   0.72792   0.04448   0.00000  Uiso   1.00
C205   C     0.62445   0.07681   0.96598   0.00000  Uiso   1.00
C206   C     0.57451   0.13060   0.93978   0.00000  Uiso   1.00
C207   C     0.55612   0.21493   0.98703   0.00000  Uiso   1.00
H208   H     0.73210   0.05929   0.10933   0.00000  Uiso   1.00
H209   H     0.82972   0.09384   0.03039   0.00000  Uiso   1.00
H210   H     0.71485   0.87903   0.17845   0.00000  Uiso   1.00
H211   H     0.66026   0.21315   0.13902   0.00000  Uiso   1.00
H212   H     0.92449   0.11916   0.91160   0.00000  Uiso   1.00
H213   H     0.68228   0.66623   0.22381   0.00000  Uiso   1.00
H214   H     0.56715   0.37080   0.14068   0.00000  Uiso   1.00
H215   H     0.62844   0.95945   0.86845   0.00000  Uiso   1.00
H216   H     0.72036   0.98853   0.77628   0.00000  Uiso   1.00
H217   H     0.60550   0.77372   0.92434   0.00000  Uiso   1.00
H218   H     0.55091   0.10784   0.88492   0.00000  Uiso   1.00
H219   H     0.83573   0.03368   0.70536   0.00000  Uiso   1.00
H220   H     0.59353   0.58075   0.01757   0.00000  Uiso   1.00
H221   H     0.47840   0.28532   0.93443   0.00000  Uiso   1.00
O222   O     0.94246   0.09731   0.75220   0.00000  Uiso   1.00
O223   O     0.62468   0.50310   0.16181   0.00000  Uiso   1.00
O224   O     0.47364   0.42748   0.05274   0.00000  Uiso   1.00
N225   N     0.89098   0.09507   0.87571   0.00000  Uiso   1.00
N226   N     0.66454   0.67160   0.16760   0.00000  Uiso   1.00
N227   N     0.55690   0.33030   0.08989   0.00000  Uiso   1.00
N228   N     0.84322   0.04907   0.76473   0.00000  Uiso   1.00
N229   N     0.61678   0.62561   0.05662   0.00000  Uiso   1.00
N230   N     0.50914   0.28430   0.97891   0.00000  Uiso   1.00
C231   C     0.79164   0.46358   0.05414   0.00000  Uiso   1.00
C232   C     0.75299   0.45864   0.97784   0.00000  Uiso   1.00
C233   C     0.69388   0.42888   0.97551   0.00000  Uiso   1.00
C234   C     0.66632   0.42954   0.89969   0.00000  Uiso   1.00
C235   C     0.60165   0.41746   0.79201   0.00000  Uiso   1.00
C236   C     0.81539   0.57536   0.05829   0.00000  Uiso   1.00
C237   C     0.80875   0.64373   0.12360   0.00000  Uiso   1.00
C238   C     0.83373   0.74264   0.11549   0.00000  Uiso   1.00
C239   C     0.86597   0.91174   0.13273   0.00000  Uiso   1.00
C240   C     0.84505   0.39382   0.03686   0.00000  Uiso   1.00
C241   C     0.86336   0.30956   0.08417   0.00000  Uiso   1.00
C242   C     0.91332   0.25564   0.05804   0.00000  Uiso   1.00
C243   C     0.99161   0.14286   0.04201   0.00000  Uiso   1.00
C244   C     0.84781   0.51767   0.92364   0.00000  Uiso   1.00
C245   C     0.78350   0.48803   0.90696   0.00000  Uiso   1.00
C246   C     0.75602   0.48873   0.83112   0.00000  Uiso   1.00
C247   C     0.69688   0.45897   0.82868   0.00000  Uiso   1.00
C248   C     0.84589   0.60474   0.98741   0.00000  Uiso   1.00
C249   C     0.87089   0.70358   0.97921   0.00000  Uiso   1.00
C250   C     0.86429   0.77208   0.04448   0.00000  Uiso   1.00
C251   C     0.87555   0.42319   0.96598   0.00000  Uiso   1.00
C252   C     0.92549   0.36940   0.93978   0.00000  Uiso   1.00
C253   C     0.94388   0.28507   0.98703   0.00000  Uiso   1.00
H254   H     0.76790   0.44071   0.10933   0.00000  Uiso   1.00
H255   H     0.67028   0.40616   0.03039   0.00000  Uiso   1.00
H256   H     0.78515   0.62097   0.17845   0.00000  Uiso   1.00
H257   H     0.83974   0.28685   0.13902   0.00000  Uiso   1.00
H258   H     0.57551   0.38084   0.91160   0.00000  Uiso   1.00
H259   H     0.81772   0.83377   0.22381   0.00000  Uiso   1.00
H260   H     0.93285   0.12920   0.14068   0.00000  Uiso   1.00
H261   H     0.87156   0.54055   0.86845   0.00000  Uiso   1.00
H262   H     0.77964   0.51147   0.77628   0.00000  Uiso   1.00
H263   H     0.89450   0.72628   0.92434   0.00000  Uiso   1.00
H264   H     0.94909   0.39216   0.88492   0.00000  Uiso   1.00
H265   H     0.66427   0.46632   0.70536   0.00000  Uiso   1.00
H266   H     0.90647   0.91925   0.01757   0.00000  Uiso   1.00
H267   H     0.02160   0.21468   0.93443   0.00000  Uiso   1.00
O268   O     0.55754   0.40269   0.75220   0.00000  Uiso   1.00
O269   O     0.87532   0.99690   0.16181   0.00000  Uiso   1.00
O270   O     0.02636   0.07252   0.05274   0.00000  Uiso   1.00
N271   N     0.60902   0.40493   0.87571   0.00000  Uiso   1.00
N272   N     0.83546   0.82840   0.16760   0.00000  Uiso   1.00
N273   N     0.94310   0.16970   0.08989   0.00000  Uiso   1.00
N274   N     0.65678   0.45093   0.76473   0.00000  Uiso   1.00
N275   N     0.88322   0.87439   0.05662   0.00000  Uiso   1.00
N276   N     0.99086   0.21570   0.97891   0.00000  Uiso   1.00
C277   C     0.29164   0.53642   0.44586   0.00000  Uiso   1.00
C278   C     0.25299   0.54136   0.52216   0.00000  Uiso   1.00
C279   C     0.19388   0.57112   0.52449   0.00000  Uiso   1.00
C280   C     0.16632   0.57046   0.60031   0.00000  Uiso   1.00
C281   C     0.10165   0.58254   0.70799   0.00000  Uiso   1.00
C282   C     0.31539   0.42464   0.44171   0.00000  Uiso   1.00
C283   C     0.30875   0.35627   0.37640   0.00000  Uiso   1.00
C284   C     0.33373   0.25736   0.38451   0.00000  Uiso   1.00
C285   C     0.36597   0.08826   0.36727   0.00000  Uiso   1.00
C286   C     0.34505   0.60618   0.46314   0.00000  Uiso   1.00
C287   C     0.36336   0.69044   0.41583   0.00000  Uiso   1.00
C288   C     0.41332   0.74436   0.44196   0.00000  Uiso   1.00
C289   C     0.49161   0.85714   0.45799   0.00000  Uiso   1.00
C290   C     0.34781   0.48233   0.57636   0.00000  Uiso   1.00
C291   C     0.28350   0.51197   0.59304   0.00000  Uiso   1.00
C292   C     0.25602   0.51127   0.66888   0.00000  Uiso   1.00
C293   C     0.19688   0.54103   0.67132   0.00000  Uiso   1.00
C294   C     0.34589   0.39526   0.51259   0.00000  Uiso   1.00
C295   C     0.37089   0.29642   0.52079   0.00000  Uiso   1.00
C296   C     0.36429   0.22792   0.45552   0.00000  Uiso   1.00
C297   C     0.37555   0.57681   0.53402   0.00000  Uiso   1.00
C298   C     0.42549   0.63060   0.56022   0.00000  Uiso   1.00
C299   C     0.44388   0.71493   0.51297   0.00000  Uiso   1.00
H300   H     0.26790   0.55929   0.39067   0.00000  Uiso   1.00
H301   H     0.17028   0.59384   0.46961   0.00000  Uiso   1.00
H302   H     0.28515   0.37903   0.32155   0.00000  Uiso   1.00
H303   H     0.33974   0.71315   0.36098   0.00000  Uiso   1.00
H304   H     0.07551   0.61916   0.58840   0.00000  Uiso   1.00
H305   H     0.31772   0.16623   0.27619   0.00000  Uiso   1.00
H306   H     0.43285   0.87080   0.35932   0.00000  Uiso   1.00
H307   H     0.37156   0.45945   0.63155   0.00000  Uiso   1.00
H308   H     0.27964   0.48853   0.72372   0.00000  Uiso   1.00
H309   H     0.39450   0.27372   0.57566   0.00000  Uiso   1.00
H310   H     0.44909   0.60784   0.61508   0.00000  Uiso   1.00
H311   H     0.16427   0.53368   0.79464   0.00000  Uiso   1.00
H312   H     0.40647   0.08075   0.48243   0.00000  Uiso   1.00
H313   H     0.52160   0.78532   0.56557   0.00000  Uiso   1.00
O314   O     0.05754   0.59731   0.74780   0.00000  Uiso   1.00
O315   O     0.37532   0.00310   0.33819   0.00000  Uiso   1.00
O316   O     0.52636   0.92748   0.44726   0.00000  Uiso   1.00
N317   N     0.10902   0.59507   0.62429   0.00000  Uiso   1.00
N318   N     0.33546   0.17160   0.33240   0.00000  Uiso   1.00
N319   N     0.44310   0.83030   0.41011   0.00000  Uiso   1.00
N320   N     0.15678   0.54907   0.73527   0.00000  Uiso   1.00
N321   N     0.38322   0.12561   0.44338   0.00000  Uiso   1.00
N322   N     0.49086   0.78430   0.52109   0.00000  Uiso   1.00
C323   C     0.20836   0.96358   0.44586   0.00000  Uiso   1.00
C324   C     0.24701   0.95864   0.52216   0.00000  Uiso   1.00
C325   C     0.30612   0.92888   0.52449   0.00000  Uiso   1.00
C326   C     0.33368   0.92954   0.60031   0.00000  Uiso   1.00
C327   C     0.39835   0.91746   0.70799   0.00000  Uiso   1.00
C328   C     0.18461   0.07536   0.44171   0.00000  Uiso   1.00
C329   C     0.19125   0.14373   0.37640   0.00000  Uiso   1.00
C330   C     0.16627   0.24264   0.38451   0.00000  Uiso   1.00
C331   C     0.13403   0.41174   0.36727   0.00000  Uiso   1.00
C332   C     0.15495   0.89382   0.46314   0.00000  Uiso   1.00
C333   C     0.13664   0.80956   0.41583   0.00000  Uiso   1.00
C334   C     0.08668   0.75564   0.44196   0.00000  Uiso   1.00
C335   C     0.00839   0.64286   0.45799   0.00000  Uiso   1.00
C336   C     0.15219   0.01767   0.57636   0.00000  Uiso   1.00
C337   C     0.21650   0.98803   0.59304   0.00000  Uiso   1.00
C338   C     0.24398   0.98873   0.66888   0.00000  Uiso   1.00
C339   C     0.30312   0.95897   0.67132   0.00000  Uiso   1.00
C340   C     0.15411   0.10474   0.51259   0.00000  Uiso   1.00
C341   C     0.12911   0.20358   0.52079   0.00000  Uiso   1.00
C342   C     0.13571   0.27208   0.45552   0.00000  Uiso   1.00
C343   C     0.12445   0.92319   0.53402   0.00000  Uiso   1.00
C344   C     0.07451   0.86940   0.56022   0.00000  Uiso   1.00
C345   C     0.05612   0.78507   0.51297   0.00000  Uiso   1.00
H346   H     0.23210   0.94071   0.39067   0.00000  Uiso   1.00
H347   H     0.32972   0.90616   0.46961   0.00000  Uiso   1.00
H348   H     0.21485   0.12097   0.32155   0.00000  Uiso   1.00
H349   H     0.16026   0.78685   0.36098   0.00000  Uiso   1.00
H350   H     0.42449   0.88084   0.58840   0.00000  Uiso   1.00
H351   H     0.18228   0.33377   0.27619   0.00000  Uiso   1.00
H352   H     0.06715   0.62920   0.35932   0.00000  Uiso   1.00
H353   H     0.12844   0.04055   0.63155   0.00000  Uiso   1.00
H354   H     0.22036   0.01147   0.72372   0.00000  Uiso   1.00
H355   H     0.10550   0.22628   0.57566   0.00000  Uiso   1.00
H356   H     0.05091   0.89216   0.61508   0.00000  Uiso   1.00
H357   H     0.33573   0.96632   0.79464   0.00000  Uiso   1.00
H358   H     0.09353   0.41925   0.48243   0.00000  Uiso   1.00
H359   H     0.97840   0.71468   0.56557   0.00000  Uiso   1.00
O360   O     0.44246   0.90269   0.74780   0.00000  Uiso   1.00
O361   O     0.12468   0.49690   0.33819   0.00000  Uiso   1.00
O362   O     0.97364   0.57252   0.44726   0.00000  Uiso   1.00
N363   N     0.39098   0.90493   0.62429   0.00000  Uiso   1.00
N364   N     0.16454   0.32840   0.33240   0.00000  Uiso   1.00
N365   N     0.05690   0.66970   0.41011   0.00000  Uiso   1.00
N366   N     0.34322   0.95093   0.73527   0.00000  Uiso   1.00
N367   N     0.11678   0.37439   0.44338   0.00000  Uiso   1.00
N368   N     0.00914   0.71570   0.52109   0.00000  Uiso   1.00
