data_job_06053
_audit_creation_date              2018-12-19
_audit_creation_method            'Materials Studio'
_symmetry_space_group_name_H-M    'P1'
_symmetry_Int_Tables_number       1
_symmetry_cell_setting            triclinic
loop_
_symmetry_equiv_pos_as_xyz
  x,y,z
_cell_length_a                    12.4700
_cell_length_b                    19.9566
_cell_length_c                    20.0260
_cell_angle_alpha                 63.0630
_cell_angle_beta                  80.5946
_cell_angle_gamma                 99.3727
loop_
_atom_site_label
_atom_site_type_symbol
_atom_site_fract_x
_atom_site_fract_y
_atom_site_fract_z
_atom_site_U_iso_or_equiv
_atom_site_adp_type
_atom_site_occupancy
C1     C     0.97596   0.76075   0.45511   0.00000  Uiso   1.00
C2     C     0.92724   0.72736   0.54223   0.00000  Uiso   1.00
C3     C     0.90351   0.64958   0.59867   0.00000  Uiso   1.00
C4     C     0.85924   0.63078   0.67517   0.00000  Uiso   1.00
C5     C     0.78654   0.57026   0.80751   0.00000  Uiso   1.00
C6     C     0.89270   0.80200   0.41616   0.00000  Uiso   1.00
C7     C     0.83995   0.78699   0.36659   0.00000  Uiso   1.00
C8     C     0.76662   0.83103   0.33695   0.00000  Uiso   1.00
C9     C     0.64036   0.88643   0.27352   0.00000  Uiso   1.00
C10    C     0.08297   0.82479   0.43125   0.00000  Uiso   1.00
C11    C     0.19020   0.82896   0.39435   0.00000  Uiso   1.00
C12    C     0.27706   0.89220   0.37740   0.00000  Uiso   1.00
C13    C     0.44623   0.98299   0.33740   0.00000  Uiso   1.00
C14    C     0.93953   0.86567   0.49058   0.00000  Uiso   1.00
C15    C     0.90745   0.78435   0.56149   0.00000  Uiso   1.00
C16    C     0.86321   0.76567   0.63792   0.00000  Uiso   1.00
C17    C     0.83942   0.68788   0.69447   0.00000  Uiso   1.00
C18    C     0.87291   0.85899   0.43542   0.00000  Uiso   1.00
C19    C     0.79965   0.90307   0.40584   0.00000  Uiso   1.00
C20    C     0.74679   0.88813   0.35626   0.00000  Uiso   1.00
C21    C     0.06319   0.88178   0.45052   0.00000  Uiso   1.00
C22    C     0.14990   0.94504   0.43361   0.00000  Uiso   1.00
C23    C     0.25724   0.94930   0.39670   0.00000  Uiso   1.00
H24    H     0.99136   0.71638   0.44010   0.00000  Uiso   1.00
H25    H     0.91883   0.60549   0.58374   0.00000  Uiso   1.00
H26    H     0.85529   0.74289   0.35169   0.00000  Uiso   1.00
H27    H     0.20548   0.78484   0.37945   0.00000  Uiso   1.00
H28    H     0.82964   0.50768   0.75148   0.00000  Uiso   1.00
H29    H     0.69570   0.79740   0.26217   0.00000  Uiso   1.00
H30    H     0.43415   0.88588   0.32071   0.00000  Uiso   1.00
H31    H     0.92413   0.91004   0.50558   0.00000  Uiso   1.00
H32    H     0.84790   0.80978   0.65281   0.00000  Uiso   1.00
H33    H     0.78436   0.94717   0.42076   0.00000  Uiso   1.00
H34    H     0.13455   0.98913   0.44853   0.00000  Uiso   1.00
H35    H     0.77207   0.67349   0.80754   0.00000  Uiso   1.00
H36    H     0.63813   0.96321   0.31823   0.00000  Uiso   1.00
H37    H     0.37658   0.05169   0.37677   0.00000  Uiso   1.00
O38    O     0.75189   0.52113   0.87518   0.00000  Uiso   1.00
O39    O     0.57618   0.90124   0.23321   0.00000  Uiso   1.00
O40    O     0.54501   0.01732   0.31002   0.00000  Uiso   1.00
N41    N     0.82657   0.56047   0.74447   0.00000  Uiso   1.00
N42    N     0.70133   0.83132   0.28700   0.00000  Uiso   1.00
N43    N     0.39172   0.91406   0.34171   0.00000  Uiso   1.00
N44    N     0.79560   0.64969   0.77464   0.00000  Uiso   1.00
N45    N     0.67035   0.92054   0.31717   0.00000  Uiso   1.00
N46    N     0.36074   0.00328   0.37188   0.00000  Uiso   1.00
C47    C     0.20659   0.78373   0.76144   0.00000  Uiso   1.00
C48    C     0.18678   0.73007   0.72693   0.00000  Uiso   1.00
C49    C     0.22898   0.75045   0.64976   0.00000  Uiso   1.00
C50    C     0.20125   0.69300   0.62973   0.00000  Uiso   1.00
C51    C     0.18071   0.62111   0.56775   0.00000  Uiso   1.00
C52    C     0.08983   0.78371   0.79892   0.00000  Uiso   1.00
C53    C     0.05053   0.84918   0.78227   0.00000  Uiso   1.00
C54    C     0.94120   0.83688   0.82286   0.00000  Uiso   1.00
C55    C     0.77018   0.84827   0.87268   0.00000  Uiso   1.00
C56    C     0.25797   0.74267   0.82813   0.00000  Uiso   1.00
C57    C     0.36003   0.77364   0.83607   0.00000  Uiso   1.00
C58    C     0.39224   0.72679   0.90127   0.00000  Uiso   1.00
C59    C     0.48228   0.67446   0.99645   0.00000  Uiso   1.00
C60    C     0.08230   0.64546   0.86311   0.00000  Uiso   1.00
C61    C     0.11926   0.65497   0.78216   0.00000  Uiso   1.00
C62    C     0.09147   0.59747   0.76225   0.00000  Uiso   1.00
C63    C     0.13362   0.61776   0.68506   0.00000  Uiso   1.00
C64    C     0.02232   0.70860   0.85414   0.00000  Uiso   1.00
C65    C     0.91302   0.69620   0.89477   0.00000  Uiso   1.00
C66    C     0.87356   0.76164   0.87819   0.00000  Uiso   1.00
C67    C     0.19046   0.66756   0.88336   0.00000  Uiso   1.00
C68    C     0.22251   0.62066   0.94856   0.00000  Uiso   1.00
C69    C     0.32461   0.65156   0.95660   0.00000  Uiso   1.00
H70    H     0.25914   0.84221   0.71844   0.00000  Uiso   1.00
H71    H     0.28121   0.80858   0.60703   0.00000  Uiso   1.00
H72    H     0.10280   0.90730   0.73954   0.00000  Uiso   1.00
H73    H     0.41225   0.83177   0.79332   0.00000  Uiso   1.00
H74    H     0.27588   0.73819   0.50786   0.00000  Uiso   1.00
H75    H     0.89970   0.94634   0.78728   0.00000  Uiso   1.00
H76    H     0.55223   0.78707   0.90070   0.00000  Uiso   1.00
H77    H     0.02973   0.58699   0.90611   0.00000  Uiso   1.00
H78    H     0.03922   0.53935   0.80500   0.00000  Uiso   1.00
H79    H     0.86081   0.63807   0.93750   0.00000  Uiso   1.00
H80    H     0.17025   0.56254   0.99129   0.00000  Uiso   1.00
H81    H     0.07946   0.51968   0.66854   0.00000  Uiso   1.00
H82    H     0.70329   0.72783   0.94796   0.00000  Uiso   1.00
H83    H     0.35581   0.56856   0.06138   0.00000  Uiso   1.00
O84    O     0.18802   0.60221   0.51830   0.00000  Uiso   1.00
O85    O     0.69450   0.87530   0.88489   0.00000  Uiso   1.00
O86    O     0.55060   0.66634   0.03369   0.00000  Uiso   1.00
N87    N     0.22837   0.69329   0.55956   0.00000  Uiso   1.00
N88    N     0.87666   0.88790   0.82079   0.00000  Uiso   1.00
N89    N     0.48670   0.73901   0.92683   0.00000  Uiso   1.00
N90    N     0.12268   0.57571   0.64602   0.00000  Uiso   1.00
N91    N     0.77097   0.77032   0.90724   0.00000  Uiso   1.00
N92    N     0.38102   0.62143   0.01329   0.00000  Uiso   1.00
C93    C     0.44285   0.45636   0.78262   0.00000  Uiso   1.00
C94    C     0.46857   0.54420   0.72923   0.00000  Uiso   1.00
C95    C     0.49292   0.60081   0.75074   0.00000  Uiso   1.00
C96    C     0.51404   0.67799   0.69335   0.00000  Uiso   1.00
C97    C     0.55439   0.81136   0.62204   0.00000  Uiso   1.00
C98    C     0.32793   0.42089   0.77840   0.00000  Uiso   1.00
C99    C     0.23404   0.37382   0.84125   0.00000  Uiso   1.00
C100   C     0.13677   0.34719   0.82526   0.00000  Uiso   1.00
C101   C     0.95880   0.28908   0.83029   0.00000  Uiso   1.00
C102   C     0.52807   0.42894   0.74418   0.00000  Uiso   1.00
C103   C     0.60245   0.38861   0.77826   0.00000  Uiso   1.00
C104   C     0.67367   0.36874   0.73345   0.00000  Uiso   1.00
C105   C     0.80645   0.32313   0.68535   0.00000  Uiso   1.00
C106   C     0.43704   0.49275   0.64246   0.00000  Uiso   1.00
C107   C     0.46540   0.56396   0.65311   0.00000  Uiso   1.00
C108   C     0.48649   0.64107   0.59567   0.00000  Uiso   1.00
C109   C     0.51088   0.69779   0.61708   0.00000  Uiso   1.00
C110   C     0.32477   0.44065   0.70228   0.00000  Uiso   1.00
C111   C     0.22761   0.41408   0.68619   0.00000  Uiso   1.00
C112   C     0.13360   0.36699   0.74899   0.00000  Uiso   1.00
C113   C     0.52492   0.44870   0.66805   0.00000  Uiso   1.00
C114   C     0.59602   0.42888   0.62319   0.00000  Uiso   1.00
C115   C     0.67050   0.38854   0.65719   0.00000  Uiso   1.00
H116   H     0.44530   0.44097   0.84189   0.00000  Uiso   1.00
H117   H     0.49535   0.58549   0.80966   0.00000  Uiso   1.00
H118   H     0.23652   0.35853   0.90016   0.00000  Uiso   1.00
H119   H     0.60487   0.37333   0.83717   0.00000  Uiso   1.00
H120   H     0.54940   0.75443   0.74036   0.00000  Uiso   1.00
H121   H     0.00365   0.27584   0.93119   0.00000  Uiso   1.00
H122   H     0.78039   0.30705   0.79837   0.00000  Uiso   1.00
H123   H     0.43458   0.50814   0.58319   0.00000  Uiso   1.00
H124   H     0.48404   0.65635   0.53676   0.00000  Uiso   1.00
H125   H     0.22520   0.42939   0.62727   0.00000  Uiso   1.00
H126   H     0.59356   0.44419   0.56428   0.00000  Uiso   1.00
H127   H     0.54022   0.81195   0.51886   0.00000  Uiso   1.00
H128   H     0.99446   0.33335   0.70970   0.00000  Uiso   1.00
H129   H     0.77121   0.36456   0.57687   0.00000  Uiso   1.00
O130   O     0.57750   0.87947   0.60374   0.00000  Uiso   1.00
O131   O     0.86150   0.25157   0.85411   0.00000  Uiso   1.00
O132   O     0.88058   0.29252   0.67985   0.00000  Uiso   1.00
N133   N     0.54047   0.74763   0.69460   0.00000  Uiso   1.00
N134   N     0.03022   0.30019   0.87301   0.00000  Uiso   1.00
N135   N     0.75639   0.32934   0.74884   0.00000  Uiso   1.00
N136   N     0.53553   0.77858   0.57541   0.00000  Uiso   1.00
N137   N     0.02528   0.33114   0.75383   0.00000  Uiso   1.00
N138   N     0.75145   0.36029   0.62966   0.00000  Uiso   1.00
C139   C     0.02404   0.23925   0.54489   0.00000  Uiso   1.00
C140   C     0.07276   0.27264   0.45777   0.00000  Uiso   1.00
C141   C     0.09649   0.35042   0.40133   0.00000  Uiso   1.00
C142   C     0.14076   0.36922   0.32483   0.00000  Uiso   1.00
C143   C     0.21346   0.42974   0.19249   0.00000  Uiso   1.00
C144   C     0.10730   0.19800   0.58384   0.00000  Uiso   1.00
C145   C     0.16005   0.21301   0.63341   0.00000  Uiso   1.00
C146   C     0.23338   0.16897   0.66305   0.00000  Uiso   1.00
C147   C     0.35964   0.11357   0.72648   0.00000  Uiso   1.00
C148   C     0.91703   0.17521   0.56875   0.00000  Uiso   1.00
C149   C     0.80980   0.17104   0.60565   0.00000  Uiso   1.00
C150   C     0.72294   0.10780   0.62260   0.00000  Uiso   1.00
C151   C     0.55377   0.01701   0.66260   0.00000  Uiso   1.00
C152   C     0.06047   0.13433   0.50942   0.00000  Uiso   1.00
C153   C     0.09255   0.21565   0.43851   0.00000  Uiso   1.00
C154   C     0.13679   0.23433   0.36208   0.00000  Uiso   1.00
C155   C     0.16058   0.31212   0.30553   0.00000  Uiso   1.00
C156   C     0.12709   0.14101   0.56458   0.00000  Uiso   1.00
C157   C     0.20035   0.09693   0.59416   0.00000  Uiso   1.00
C158   C     0.25321   0.11187   0.64375   0.00000  Uiso   1.00
C159   C     0.93681   0.11822   0.54948   0.00000  Uiso   1.00
C160   C     0.85010   0.05496   0.56639   0.00000  Uiso   1.00
C161   C     0.74276   0.05070   0.60330   0.00000  Uiso   1.00
H162   H     0.00864   0.28362   0.55990   0.00000  Uiso   1.00
H163   H     0.08117   0.39451   0.41626   0.00000  Uiso   1.00
H164   H     0.14471   0.25711   0.64831   0.00000  Uiso   1.00
H165   H     0.79452   0.21516   0.62055   0.00000  Uiso   1.00
H166   H     0.17036   0.49232   0.24852   0.00000  Uiso   1.00
H167   H     0.30430   0.20260   0.73783   0.00000  Uiso   1.00
H168   H     0.56585   0.11412   0.67929   0.00000  Uiso   1.00
H169   H     0.07587   0.08996   0.49442   0.00000  Uiso   1.00
H170   H     0.15210   0.19022   0.34719   0.00000  Uiso   1.00
H171   H     0.21564   0.05283   0.57924   0.00000  Uiso   1.00
H172   H     0.86545   0.01087   0.55147   0.00000  Uiso   1.00
H173   H     0.22793   0.32651   0.19246   0.00000  Uiso   1.00
H174   H     0.36187   0.03679   0.68177   0.00000  Uiso   1.00
H175   H     0.62342   0.94831   0.62323   0.00000  Uiso   1.00
O176   O     0.24811   0.47887   0.12482   0.00000  Uiso   1.00
O177   O     0.42382   0.09876   0.76679   0.00000  Uiso   1.00
O178   O     0.45499   0.98268   0.68998   0.00000  Uiso   1.00
N179   N     0.17343   0.43953   0.25553   0.00000  Uiso   1.00
N180   N     0.29867   0.16868   0.71300   0.00000  Uiso   1.00
N181   N     0.60828   0.08594   0.65829   0.00000  Uiso   1.00
N182   N     0.20440   0.35031   0.22536   0.00000  Uiso   1.00
N183   N     0.32965   0.07946   0.68283   0.00000  Uiso   1.00
N184   N     0.63926   0.99672   0.62812   0.00000  Uiso   1.00
C185   C     0.79341   0.21627   0.23856   0.00000  Uiso   1.00
C186   C     0.81322   0.26993   0.27307   0.00000  Uiso   1.00
C187   C     0.77102   0.24955   0.35024   0.00000  Uiso   1.00
C188   C     0.79875   0.30700   0.37027   0.00000  Uiso   1.00
C189   C     0.81929   0.37889   0.43225   0.00000  Uiso   1.00
C190   C     0.91017   0.21629   0.20108   0.00000  Uiso   1.00
C191   C     0.94947   0.15081   0.21773   0.00000  Uiso   1.00
C192   C     0.05880   0.16312   0.17714   0.00000  Uiso   1.00
C193   C     0.22982   0.15173   0.12732   0.00000  Uiso   1.00
C194   C     0.74203   0.25733   0.17187   0.00000  Uiso   1.00
C195   C     0.63997   0.22636   0.16393   0.00000  Uiso   1.00
C196   C     0.60776   0.27321   0.09873   0.00000  Uiso   1.00
C197   C     0.51772   0.32554   0.00355   0.00000  Uiso   1.00
C198   C     0.91770   0.35454   0.13689   0.00000  Uiso   1.00
C199   C     0.88074   0.34503   0.21784   0.00000  Uiso   1.00
C200   C     0.90853   0.40253   0.23775   0.00000  Uiso   1.00
C201   C     0.86638   0.38224   0.31494   0.00000  Uiso   1.00
C202   C     0.97768   0.29140   0.14586   0.00000  Uiso   1.00
C203   C     0.08698   0.30380   0.10523   0.00000  Uiso   1.00
C204   C     0.12644   0.23836   0.12181   0.00000  Uiso   1.00
C205   C     0.80954   0.33244   0.11664   0.00000  Uiso   1.00
C206   C     0.77749   0.37934   0.05144   0.00000  Uiso   1.00
C207   C     0.67539   0.34844   0.04340   0.00000  Uiso   1.00
H208   H     0.74086   0.15779   0.28156   0.00000  Uiso   1.00
H209   H     0.71879   0.19142   0.39297   0.00000  Uiso   1.00
H210   H     0.89720   0.09270   0.26046   0.00000  Uiso   1.00
H211   H     0.58775   0.16823   0.20668   0.00000  Uiso   1.00
H212   H     0.72412   0.26181   0.49214   0.00000  Uiso   1.00
H213   H     0.10030   0.05366   0.21272   0.00000  Uiso   1.00
H214   H     0.44777   0.21293   0.09930   0.00000  Uiso   1.00
H215   H     0.97027   0.41301   0.09389   0.00000  Uiso   1.00
H216   H     0.96078   0.46065   0.19500   0.00000  Uiso   1.00
H217   H     0.13919   0.36193   0.06250   0.00000  Uiso   1.00
H218   H     0.82975   0.43746   0.00871   0.00000  Uiso   1.00
H219   H     0.92054   0.48032   0.33146   0.00000  Uiso   1.00
H220   H     0.29671   0.27217   0.05204   0.00000  Uiso   1.00
H221   H     0.64419   0.43144   0.93862   0.00000  Uiso   1.00
O222   O     0.81198   0.39779   0.48170   0.00000  Uiso   1.00
O223   O     0.30550   0.12470   0.11511   0.00000  Uiso   1.00
O224   O     0.44940   0.33366   0.96631   0.00000  Uiso   1.00
N225   N     0.77163   0.30671   0.44044   0.00000  Uiso   1.00
N226   N     0.12334   0.11209   0.17921   0.00000  Uiso   1.00
N227   N     0.51330   0.26099   0.07317   0.00000  Uiso   1.00
N228   N     0.87732   0.42429   0.35398   0.00000  Uiso   1.00
N229   N     0.22903   0.22968   0.09275   0.00000  Uiso   1.00
N230   N     0.61898   0.37857   0.98671   0.00000  Uiso   1.00
C231   C     0.55715   0.54364   0.21738   0.00000  Uiso   1.00
C232   C     0.53143   0.45580   0.27077   0.00000  Uiso   1.00
C233   C     0.50708   0.39919   0.24926   0.00000  Uiso   1.00
C234   C     0.48596   0.32201   0.30665   0.00000  Uiso   1.00
C235   C     0.44561   0.18864   0.37796   0.00000  Uiso   1.00
C236   C     0.67207   0.57911   0.22160   0.00000  Uiso   1.00
C237   C     0.76596   0.62618   0.15875   0.00000  Uiso   1.00
C238   C     0.86323   0.65281   0.17474   0.00000  Uiso   1.00
C239   C     0.04120   0.71092   0.16971   0.00000  Uiso   1.00
C240   C     0.47193   0.57106   0.25582   0.00000  Uiso   1.00
C241   C     0.39755   0.61139   0.22174   0.00000  Uiso   1.00
C242   C     0.32633   0.63126   0.26655   0.00000  Uiso   1.00
C243   C     0.19355   0.67687   0.31465   0.00000  Uiso   1.00
C244   C     0.56296   0.50725   0.35753   0.00000  Uiso   1.00
C245   C     0.53459   0.43604   0.34689   0.00000  Uiso   1.00
C246   C     0.51351   0.35893   0.40433   0.00000  Uiso   1.00
C247   C     0.48912   0.30221   0.38292   0.00000  Uiso   1.00
C248   C     0.67523   0.55935   0.29772   0.00000  Uiso   1.00
C249   C     0.77239   0.58592   0.31381   0.00000  Uiso   1.00
C250   C     0.86640   0.63301   0.25101   0.00000  Uiso   1.00
C251   C     0.47508   0.55129   0.33195   0.00000  Uiso   1.00
C252   C     0.40398   0.57112   0.37681   0.00000  Uiso   1.00
C253   C     0.32950   0.61146   0.34281   0.00000  Uiso   1.00
H254   H     0.55469   0.55903   0.15811   0.00000  Uiso   1.00
H255   H     0.50465   0.41451   0.19034   0.00000  Uiso   1.00
H256   H     0.76348   0.64147   0.09984   0.00000  Uiso   1.00
H257   H     0.39513   0.62667   0.16283   0.00000  Uiso   1.00
H258   H     0.45060   0.24557   0.25964   0.00000  Uiso   1.00
H259   H     0.99635   0.72416   0.06881   0.00000  Uiso   1.00
H260   H     0.21961   0.69295   0.20163   0.00000  Uiso   1.00
H261   H     0.56542   0.49186   0.41681   0.00000  Uiso   1.00
H262   H     0.51596   0.34365   0.46324   0.00000  Uiso   1.00
H263   H     0.77480   0.57061   0.37273   0.00000  Uiso   1.00
H264   H     0.40644   0.55581   0.43572   0.00000  Uiso   1.00
H265   H     0.45978   0.18805   0.48113   0.00000  Uiso   1.00
H266   H     0.00554   0.66665   0.29030   0.00000  Uiso   1.00
H267   H     0.22879   0.63544   0.42313   0.00000  Uiso   1.00
O268   O     0.42250   0.12053   0.39626   0.00000  Uiso   1.00
O269   O     0.13850   0.74843   0.14589   0.00000  Uiso   1.00
O270   O     0.11942   0.70748   0.32015   0.00000  Uiso   1.00
N271   N     0.45953   0.25237   0.30540   0.00000  Uiso   1.00
N272   N     0.96978   0.69981   0.12699   0.00000  Uiso   1.00
N273   N     0.24361   0.67065   0.25116   0.00000  Uiso   1.00
N274   N     0.46447   0.22142   0.42459   0.00000  Uiso   1.00
N275   N     0.97472   0.66886   0.24617   0.00000  Uiso   1.00
N276   N     0.24855   0.63971   0.37034   0.00000  Uiso   1.00
