data_job_02531
_audit_creation_date              2018-12-19
_audit_creation_method            'Materials Studio'
_symmetry_space_group_name_H-M    'P1'
_symmetry_Int_Tables_number       1
_symmetry_cell_setting            triclinic
loop_
_symmetry_equiv_pos_as_xyz
  x,y,z
_cell_length_a                    11.3074
_cell_length_b                    12.2143
_cell_length_c                    23.5170
_cell_angle_alpha                 90.0000
_cell_angle_beta                  109.8600
_cell_angle_gamma                 90.0000
loop_
_atom_site_label
_atom_site_type_symbol
_atom_site_fract_x
_atom_site_fract_y
_atom_site_fract_z
_atom_site_U_iso_or_equiv
_atom_site_adp_type
_atom_site_occupancy
C1     C     0.22980   0.58586   0.65551   0.00000  Uiso   1.00
C2     C     0.11276   0.51376   0.63739   0.00000  Uiso   1.00
C3     C     0.09070   0.42423   0.59885   0.00000  Uiso   1.00
C4     C     0.97784   0.36896   0.58794   0.00000  Uiso   1.00
C5     C     0.80939   0.25199   0.55571   0.00000  Uiso   1.00
C6     C     0.18314   0.70250   0.63845   0.00000  Uiso   1.00
C7     C     0.22028   0.77167   0.60081   0.00000  Uiso   1.00
C8     C     0.16668   0.87529   0.59080   0.00000  Uiso   1.00
C9     C     0.10759   0.05139   0.56025   0.00000  Uiso   1.00
C10    C     0.28302   0.58316   0.72440   0.00000  Uiso   1.00
C11    C     0.40415   0.55201   0.75903   0.00000  Uiso   1.00
C12    C     0.43465   0.55519   0.82140   0.00000  Uiso   1.00
C13    C     0.53063   0.54598   0.92430   0.00000  Uiso   1.00
C14    C     0.06860   0.64691   0.70468   0.00000  Uiso   1.00
C15    C     0.02520   0.54693   0.66409   0.00000  Uiso   1.00
C16    C     0.91235   0.49178   0.65325   0.00000  Uiso   1.00
C17    C     0.89013   0.40218   0.61470   0.00000  Uiso   1.00
C18    C     0.09559   0.73567   0.66515   0.00000  Uiso   1.00
C19    C     0.04193   0.83922   0.65521   0.00000  Uiso   1.00
C20    C     0.07897   0.90852   0.61756   0.00000  Uiso   1.00
C21    C     0.19546   0.61632   0.75111   0.00000  Uiso   1.00
C22    C     0.22579   0.61956   0.81343   0.00000  Uiso   1.00
C23    C     0.34694   0.58841   0.84816   0.00000  Uiso   1.00
H24    H     0.29796   0.56005   0.63472   0.00000  Uiso   1.00
H25    H     0.15847   0.39859   0.57818   0.00000  Uiso   1.00
H26    H     0.28805   0.74598   0.58015   0.00000  Uiso   1.00
H27    H     0.47187   0.52635   0.73835   0.00000  Uiso   1.00
H28    H     0.96519   0.23424   0.52726   0.00000  Uiso   1.00
H29    H     0.23843   0.96675   0.53142   0.00000  Uiso   1.00
H30    H     0.62608   0.50362   0.86502   0.00000  Uiso   1.00
H31    H     0.00043   0.67274   0.72548   0.00000  Uiso   1.00
H32    H     0.84461   0.51746   0.67392   0.00000  Uiso   1.00
H33    H     0.97419   0.86485   0.67589   0.00000  Uiso   1.00
H34    H     0.15801   0.64522   0.83409   0.00000  Uiso   1.00
H35    H     0.71045   0.33072   0.60497   0.00000  Uiso   1.00
H36    H     0.98370   0.06323   0.60913   0.00000  Uiso   1.00
H37    H     0.37133   0.60010   0.94272   0.00000  Uiso   1.00
O38    O     0.74066   0.17833   0.53055   0.00000  Uiso   1.00
O39    O     0.09917   0.13935   0.53601   0.00000  Uiso   1.00
O40    O     0.60774   0.53173   0.97368   0.00000  Uiso   1.00
N41    N     0.92663   0.27824   0.55264   0.00000  Uiso   1.00
N42    N     0.18208   0.96309   0.55652   0.00000  Uiso   1.00
N43    N     0.54451   0.53013   0.86840   0.00000  Uiso   1.00
N44    N     0.78956   0.33016   0.59445   0.00000  Uiso   1.00
N45    N     0.04501   0.01500   0.59833   0.00000  Uiso   1.00
N46    N     0.40743   0.58204   0.91022   0.00000  Uiso   1.00
C47    C     0.77020   0.08586   0.84449   0.00000  Uiso   1.00
C48    C     0.88724   0.01376   0.86261   0.00000  Uiso   1.00
C49    C     0.90930   0.92423   0.90115   0.00000  Uiso   1.00
C50    C     0.02216   0.86896   0.91206   0.00000  Uiso   1.00
C51    C     0.19061   0.75199   0.94429   0.00000  Uiso   1.00
C52    C     0.81686   0.20250   0.86155   0.00000  Uiso   1.00
C53    C     0.77972   0.27167   0.89919   0.00000  Uiso   1.00
C54    C     0.83332   0.37529   0.90920   0.00000  Uiso   1.00
C55    C     0.89241   0.55139   0.93975   0.00000  Uiso   1.00
C56    C     0.71698   0.08316   0.77560   0.00000  Uiso   1.00
C57    C     0.59585   0.05201   0.74097   0.00000  Uiso   1.00
C58    C     0.56535   0.05519   0.67860   0.00000  Uiso   1.00
C59    C     0.46937   0.04598   0.57570   0.00000  Uiso   1.00
C60    C     0.93140   0.14691   0.79532   0.00000  Uiso   1.00
C61    C     0.97480   0.04693   0.83591   0.00000  Uiso   1.00
C62    C     0.08765   0.99178   0.84675   0.00000  Uiso   1.00
C63    C     0.10987   0.90218   0.88530   0.00000  Uiso   1.00
C64    C     0.90441   0.23567   0.83485   0.00000  Uiso   1.00
C65    C     0.95807   0.33922   0.84479   0.00000  Uiso   1.00
C66    C     0.92103   0.40852   0.88244   0.00000  Uiso   1.00
C67    C     0.80454   0.11632   0.74889   0.00000  Uiso   1.00
C68    C     0.77421   0.11956   0.68657   0.00000  Uiso   1.00
C69    C     0.65306   0.08841   0.65184   0.00000  Uiso   1.00
H70    H     0.70204   0.06005   0.86528   0.00000  Uiso   1.00
H71    H     0.84153   0.89859   0.92182   0.00000  Uiso   1.00
H72    H     0.71195   0.24598   0.91985   0.00000  Uiso   1.00
H73    H     0.52813   0.02635   0.76165   0.00000  Uiso   1.00
H74    H     0.03481   0.73424   0.97274   0.00000  Uiso   1.00
H75    H     0.76157   0.46675   0.96858   0.00000  Uiso   1.00
H76    H     0.37392   0.00362   0.63498   0.00000  Uiso   1.00
H77    H     0.99957   0.17274   0.77452   0.00000  Uiso   1.00
H78    H     0.15539   0.01746   0.82608   0.00000  Uiso   1.00
H79    H     0.02581   0.36485   0.82411   0.00000  Uiso   1.00
H80    H     0.84199   0.14522   0.66591   0.00000  Uiso   1.00
H81    H     0.28955   0.83072   0.89503   0.00000  Uiso   1.00
H82    H     0.01630   0.56323   0.89087   0.00000  Uiso   1.00
H83    H     0.62867   0.10010   0.55728   0.00000  Uiso   1.00
O84    O     0.25934   0.67833   0.96945   0.00000  Uiso   1.00
O85    O     0.90083   0.63935   0.96399   0.00000  Uiso   1.00
O86    O     0.39226   0.03173   0.52632   0.00000  Uiso   1.00
N87    N     0.07337   0.77824   0.94736   0.00000  Uiso   1.00
N88    N     0.81792   0.46309   0.94348   0.00000  Uiso   1.00
N89    N     0.45549   0.03013   0.63160   0.00000  Uiso   1.00
N90    N     0.21044   0.83016   0.90555   0.00000  Uiso   1.00
N91    N     0.95499   0.51500   0.90167   0.00000  Uiso   1.00
N92    N     0.59257   0.08204   0.58978   0.00000  Uiso   1.00
C93    C     0.77020   0.41414   0.34449   0.00000  Uiso   1.00
C94    C     0.88724   0.48624   0.36261   0.00000  Uiso   1.00
C95    C     0.90930   0.57577   0.40115   0.00000  Uiso   1.00
C96    C     0.02216   0.63104   0.41206   0.00000  Uiso   1.00
C97    C     0.19061   0.74801   0.44429   0.00000  Uiso   1.00
C98    C     0.81686   0.29750   0.36155   0.00000  Uiso   1.00
C99    C     0.77972   0.22833   0.39919   0.00000  Uiso   1.00
C100   C     0.83332   0.12471   0.40920   0.00000  Uiso   1.00
C101   C     0.89241   0.94861   0.43975   0.00000  Uiso   1.00
C102   C     0.71698   0.41684   0.27560   0.00000  Uiso   1.00
C103   C     0.59585   0.44799   0.24097   0.00000  Uiso   1.00
C104   C     0.56535   0.44481   0.17860   0.00000  Uiso   1.00
C105   C     0.46937   0.45402   0.07570   0.00000  Uiso   1.00
C106   C     0.93140   0.35309   0.29532   0.00000  Uiso   1.00
C107   C     0.97480   0.45307   0.33591   0.00000  Uiso   1.00
C108   C     0.08765   0.50822   0.34675   0.00000  Uiso   1.00
C109   C     0.10987   0.59782   0.38530   0.00000  Uiso   1.00
C110   C     0.90441   0.26433   0.33485   0.00000  Uiso   1.00
C111   C     0.95807   0.16078   0.34479   0.00000  Uiso   1.00
C112   C     0.92103   0.09148   0.38244   0.00000  Uiso   1.00
C113   C     0.80454   0.38368   0.24889   0.00000  Uiso   1.00
C114   C     0.77421   0.38044   0.18657   0.00000  Uiso   1.00
C115   C     0.65306   0.41159   0.15184   0.00000  Uiso   1.00
H116   H     0.70204   0.43995   0.36528   0.00000  Uiso   1.00
H117   H     0.84153   0.60141   0.42182   0.00000  Uiso   1.00
H118   H     0.71195   0.25402   0.41985   0.00000  Uiso   1.00
H119   H     0.52813   0.47365   0.26165   0.00000  Uiso   1.00
H120   H     0.03481   0.76576   0.47274   0.00000  Uiso   1.00
H121   H     0.76157   0.03325   0.46858   0.00000  Uiso   1.00
H122   H     0.37392   0.49638   0.13498   0.00000  Uiso   1.00
H123   H     0.99957   0.32726   0.27452   0.00000  Uiso   1.00
H124   H     0.15539   0.48254   0.32608   0.00000  Uiso   1.00
H125   H     0.02581   0.13515   0.32411   0.00000  Uiso   1.00
H126   H     0.84199   0.35478   0.16591   0.00000  Uiso   1.00
H127   H     0.28955   0.66928   0.39503   0.00000  Uiso   1.00
H128   H     0.01630   0.93677   0.39087   0.00000  Uiso   1.00
H129   H     0.62867   0.39990   0.05728   0.00000  Uiso   1.00
O130   O     0.25934   0.82167   0.46945   0.00000  Uiso   1.00
O131   O     0.90083   0.86065   0.46399   0.00000  Uiso   1.00
O132   O     0.39226   0.46827   0.02632   0.00000  Uiso   1.00
N133   N     0.07337   0.72176   0.44736   0.00000  Uiso   1.00
N134   N     0.81792   0.03691   0.44348   0.00000  Uiso   1.00
N135   N     0.45549   0.46987   0.13160   0.00000  Uiso   1.00
N136   N     0.21044   0.66984   0.40555   0.00000  Uiso   1.00
N137   N     0.95499   0.98500   0.40167   0.00000  Uiso   1.00
N138   N     0.59257   0.41796   0.08978   0.00000  Uiso   1.00
C139   C     0.22980   0.91414   0.15551   0.00000  Uiso   1.00
C140   C     0.11276   0.98624   0.13739   0.00000  Uiso   1.00
C141   C     0.09070   0.07577   0.09885   0.00000  Uiso   1.00
C142   C     0.97784   0.13104   0.08794   0.00000  Uiso   1.00
C143   C     0.80939   0.24801   0.05571   0.00000  Uiso   1.00
C144   C     0.18314   0.79750   0.13845   0.00000  Uiso   1.00
C145   C     0.22028   0.72833   0.10081   0.00000  Uiso   1.00
C146   C     0.16668   0.62471   0.09080   0.00000  Uiso   1.00
C147   C     0.10759   0.44861   0.06025   0.00000  Uiso   1.00
C148   C     0.28302   0.91684   0.22440   0.00000  Uiso   1.00
C149   C     0.40415   0.94799   0.25903   0.00000  Uiso   1.00
C150   C     0.43465   0.94481   0.32140   0.00000  Uiso   1.00
C151   C     0.53063   0.95402   0.42430   0.00000  Uiso   1.00
C152   C     0.06860   0.85309   0.20468   0.00000  Uiso   1.00
C153   C     0.02520   0.95307   0.16409   0.00000  Uiso   1.00
C154   C     0.91235   0.00822   0.15325   0.00000  Uiso   1.00
C155   C     0.89013   0.09782   0.11470   0.00000  Uiso   1.00
C156   C     0.09559   0.76433   0.16515   0.00000  Uiso   1.00
C157   C     0.04193   0.66078   0.15521   0.00000  Uiso   1.00
C158   C     0.07897   0.59148   0.11756   0.00000  Uiso   1.00
C159   C     0.19546   0.88368   0.25111   0.00000  Uiso   1.00
C160   C     0.22579   0.88044   0.31343   0.00000  Uiso   1.00
C161   C     0.34694   0.91159   0.34816   0.00000  Uiso   1.00
H162   H     0.29796   0.93995   0.13472   0.00000  Uiso   1.00
H163   H     0.15847   0.10141   0.07818   0.00000  Uiso   1.00
H164   H     0.28805   0.75402   0.08015   0.00000  Uiso   1.00
H165   H     0.47187   0.97365   0.23835   0.00000  Uiso   1.00
H166   H     0.96519   0.26576   0.02726   0.00000  Uiso   1.00
H167   H     0.23843   0.53325   0.03142   0.00000  Uiso   1.00
H168   H     0.62608   0.99638   0.36502   0.00000  Uiso   1.00
H169   H     0.00043   0.82726   0.22548   0.00000  Uiso   1.00
H170   H     0.84461   0.98254   0.17392   0.00000  Uiso   1.00
H171   H     0.97419   0.63515   0.17589   0.00000  Uiso   1.00
H172   H     0.15801   0.85478   0.33409   0.00000  Uiso   1.00
H173   H     0.71045   0.16928   0.10497   0.00000  Uiso   1.00
H174   H     0.98370   0.43677   0.10913   0.00000  Uiso   1.00
H175   H     0.37133   0.89990   0.44272   0.00000  Uiso   1.00
O176   O     0.74066   0.32167   0.03055   0.00000  Uiso   1.00
O177   O     0.09917   0.36065   0.03601   0.00000  Uiso   1.00
O178   O     0.60774   0.96827   0.47368   0.00000  Uiso   1.00
N179   N     0.92663   0.22176   0.05264   0.00000  Uiso   1.00
N180   N     0.18208   0.53691   0.05652   0.00000  Uiso   1.00
N181   N     0.54451   0.96987   0.36840   0.00000  Uiso   1.00
N182   N     0.78956   0.16984   0.09445   0.00000  Uiso   1.00
N183   N     0.04501   0.48500   0.09833   0.00000  Uiso   1.00
N184   N     0.40743   0.91796   0.41022   0.00000  Uiso   1.00
