data_job_06858
_audit_creation_date              2018-12-19
_audit_creation_method            'Materials Studio'
_symmetry_space_group_name_H-M    'P1'
_symmetry_Int_Tables_number       1
_symmetry_cell_setting            triclinic
loop_
_symmetry_equiv_pos_as_xyz
  x,y,z
_cell_length_a                    22.1176
_cell_length_b                    22.1420
_cell_length_c                    23.9639
_cell_angle_alpha                 63.0235
_cell_angle_beta                  111.0720
_cell_angle_gamma                 109.6132
loop_
_atom_site_label
_atom_site_type_symbol
_atom_site_fract_x
_atom_site_fract_y
_atom_site_fract_z
_atom_site_U_iso_or_equiv
_atom_site_adp_type
_atom_site_occupancy
C1     C     0.55323   0.54432   0.76535   0.00000  Uiso   1.00
C2     C     0.60870   0.54898   0.73904   0.00000  Uiso   1.00
C3     C     0.64038   0.49586   0.75767   0.00000  Uiso   1.00
C4     C     0.68989   0.51048   0.72789   0.00000  Uiso   1.00
C5     C     0.77344   0.50779   0.69417   0.00000  Uiso   1.00
C6     C     0.57721   0.60202   0.79121   0.00000  Uiso   1.00
C7     C     0.58240   0.59349   0.85371   0.00000  Uiso   1.00
C8     C     0.60539   0.65278   0.86785   0.00000  Uiso   1.00
C9     C     0.63999   0.73243   0.91511   0.00000  Uiso   1.00
C10    C     0.49544   0.56449   0.70685   0.00000  Uiso   1.00
C11    C     0.43187   0.52440   0.69841   0.00000  Uiso   1.00
C12    C     0.38601   0.55209   0.64153   0.00000  Uiso   1.00
C13    C     0.29366   0.57346   0.55780   0.00000  Uiso   1.00
C14    C     0.58483   0.66477   0.67933   0.00000  Uiso   1.00
C15    C     0.62586   0.61441   0.69232   0.00000  Uiso   1.00
C16    C     0.67534   0.62912   0.66250   0.00000  Uiso   1.00
C17    C     0.70709   0.57602   0.68108   0.00000  Uiso   1.00
C18    C     0.59437   0.66745   0.74449   0.00000  Uiso   1.00
C19    C     0.61736   0.72676   0.75854   0.00000  Uiso   1.00
C20    C     0.62258   0.71832   0.82104   0.00000  Uiso   1.00
C21    C     0.51260   0.62991   0.66012   0.00000  Uiso   1.00
C22    C     0.46683   0.65767   0.60324   0.00000  Uiso   1.00
C23    C     0.40321   0.61763   0.59472   0.00000  Uiso   1.00
H24    H     0.53987   0.49338   0.80173   0.00000  Uiso   1.00
H25    H     0.62709   0.44523   0.79384   0.00000  Uiso   1.00
H26    H     0.56911   0.54286   0.88985   0.00000  Uiso   1.00
H27    H     0.41861   0.47378   0.73458   0.00000  Uiso   1.00
H28    H     0.73137   0.42071   0.76450   0.00000  Uiso   1.00
H29    H     0.60909   0.62656   0.96696   0.00000  Uiso   1.00
H30    H     0.29173   0.48089   0.63953   0.00000  Uiso   1.00
H31    H     0.59819   0.71571   0.64295   0.00000  Uiso   1.00
H32    H     0.68861   0.67976   0.62634   0.00000  Uiso   1.00
H33    H     0.63063   0.77738   0.72237   0.00000  Uiso   1.00
H34    H     0.48013   0.70830   0.56709   0.00000  Uiso   1.00
H35    H     0.78131   0.61106   0.62856   0.00000  Uiso   1.00
H36    H     0.65903   0.81691   0.83102   0.00000  Uiso   1.00
H37    H     0.34167   0.67123   0.50359   0.00000  Uiso   1.00
O38    O     0.81479   0.48823   0.68849   0.00000  Uiso   1.00
O39    O     0.65435   0.75830   0.95410   0.00000  Uiso   1.00
O40    O     0.23798   0.56718   0.52453   0.00000  Uiso   1.00
N41    N     0.73071   0.47044   0.73477   0.00000  Uiso   1.00
N42    N     0.61639   0.66289   0.92406   0.00000  Uiso   1.00
N43    N     0.31968   0.52671   0.61796   0.00000  Uiso   1.00
N44    N     0.75758   0.57286   0.66163   0.00000  Uiso   1.00
N45    N     0.64326   0.76532   0.85091   0.00000  Uiso   1.00
N46    N     0.34655   0.62913   0.54481   0.00000  Uiso   1.00
C47    C     0.59499   0.05432   0.09796   0.00000  Uiso   1.00
C48    C     0.61018   0.02361   0.17157   0.00000  Uiso   1.00
C49    C     0.63062   0.06083   0.21101   0.00000  Uiso   1.00
C50    C     0.64198   0.02317   0.27718   0.00000  Uiso   1.00
C51    C     0.66694   0.98649   0.38755   0.00000  Uiso   1.00
C52    C     0.63943   0.02954   0.08016   0.00000  Uiso   1.00
C53    C     0.68445   0.07174   0.04274   0.00000  Uiso   1.00
C54    C     0.72044   0.03905   0.03196   0.00000  Uiso   1.00
C55    C     0.79077   0.01157   0.00038   0.00000  Uiso   1.00
C56    C     0.52429   0.01861   0.07464   0.00000  Uiso   1.00
C57    C     0.47249   0.05163   0.03256   0.00000  Uiso   1.00
C58    C     0.41153   0.00975   0.01712   0.00000  Uiso   1.00
C59    C     0.30309   0.96531   0.97696   0.00000  Uiso   1.00
C60    C     0.57883   0.92125   0.14535   0.00000  Uiso   1.00
C61    C     0.60140   0.95134   0.19730   0.00000  Uiso   1.00
C62    C     0.61274   0.91361   0.26343   0.00000  Uiso   1.00
C63    C     0.63319   0.95076   0.30297   0.00000  Uiso   1.00
C64    C     0.63066   0.95726   0.10590   0.00000  Uiso   1.00
C65    C     0.66658   0.92451   0.09516   0.00000  Uiso   1.00
C66    C     0.71164   0.96665   0.05774   0.00000  Uiso   1.00
C67    C     0.51551   0.94634   0.10038   0.00000  Uiso   1.00
C68    C     0.45462   0.90440   0.08499   0.00000  Uiso   1.00
C69    C     0.40274   0.93734   0.04290   0.00000  Uiso   1.00
H70    H     0.60182   0.11059   0.07792   0.00000  Uiso   1.00
H71    H     0.63741   0.11676   0.19107   0.00000  Uiso   1.00
H72    H     0.69123   0.12766   0.02282   0.00000  Uiso   1.00
H73    H     0.47930   0.10756   0.01265   0.00000  Uiso   1.00
H74    H     0.67302   0.09174   0.32787   0.00000  Uiso   1.00
H75    H     0.78649   0.11472   0.97309   0.00000  Uiso   1.00
H76    H     0.33960   0.07232   0.95163   0.00000  Uiso   1.00
H77    H     0.57199   0.86498   0.16539   0.00000  Uiso   1.00
H78    H     0.60594   0.85768   0.28334   0.00000  Uiso   1.00
H79    H     0.65977   0.86858   0.11509   0.00000  Uiso   1.00
H80    H     0.44784   0.84847   0.10491   0.00000  Uiso   1.00
H81    H     0.64748   0.88145   0.40275   0.00000  Uiso   1.00
H82    H     0.76095   0.90444   0.04797   0.00000  Uiso   1.00
H83    H     0.31406   0.86204   0.02652   0.00000  Uiso   1.00
O84    O     0.68314   0.98622   0.44132   0.00000  Uiso   1.00
O85    O     0.83200   0.01638   0.97586   0.00000  Uiso   1.00
O86    O     0.24569   0.96076   0.94772   0.00000  Uiso   1.00
N87    N     0.66233   0.04325   0.32930   0.00000  Uiso   1.00
N88    N     0.76843   0.06474   0.99761   0.00000  Uiso   1.00
N89    N     0.35063   0.02510   0.97754   0.00000  Uiso   1.00
N90    N     0.64859   0.93010   0.36960   0.00000  Uiso   1.00
N91    N     0.75469   0.95159   0.03791   0.00000  Uiso   1.00
N92    N     0.33689   0.91195   0.01784   0.00000  Uiso   1.00
C93    C     0.58709   0.48482   0.30546   0.00000  Uiso   1.00
C94    C     0.63334   0.55566   0.29602   0.00000  Uiso   1.00
C95    C     0.67169   0.59074   0.25133   0.00000  Uiso   1.00
C96    C     0.71074   0.65496   0.25029   0.00000  Uiso   1.00
C97    C     0.78249   0.76068   0.22925   0.00000  Uiso   1.00
C98    C     0.60968   0.43932   0.37635   0.00000  Uiso   1.00
C99    C     0.62813   0.37658   0.39919   0.00000  Uiso   1.00
C100   C     0.64725   0.34287   0.46577   0.00000  Uiso   1.00
C101   C     0.68222   0.26794   0.56944   0.00000  Uiso   1.00
C102   C     0.51904   0.49489   0.29720   0.00000  Uiso   1.00
C103   C     0.46126   0.47885   0.25350   0.00000  Uiso   1.00
C104   C     0.40407   0.49191   0.25344   0.00000  Uiso   1.00
C105   C     0.29830   0.50325   0.23421   0.00000  Uiso   1.00
C106   C     0.58824   0.53651   0.38307   0.00000  Uiso   1.00
C107   C     0.63397   0.58373   0.33818   0.00000  Uiso   1.00
C108   C     0.67297   0.64793   0.33721   0.00000  Uiso   1.00
C109   C     0.71137   0.68309   0.29252   0.00000  Uiso   1.00
C110   C     0.61031   0.46740   0.41851   0.00000  Uiso   1.00
C111   C     0.62941   0.43377   0.48507   0.00000  Uiso   1.00
C112   C     0.64788   0.37100   0.50801   0.00000  Uiso   1.00
C113   C     0.51966   0.52297   0.33935   0.00000  Uiso   1.00
C114   C     0.46254   0.53604   0.33937   0.00000  Uiso   1.00
C115   C     0.40469   0.52003   0.29568   0.00000  Uiso   1.00
H116   H     0.58660   0.46296   0.27264   0.00000  Uiso   1.00
H117   H     0.67119   0.56899   0.21872   0.00000  Uiso   1.00
H118   H     0.62763   0.35486   0.36656   0.00000  Uiso   1.00
H119   H     0.46080   0.45712   0.22088   0.00000  Uiso   1.00
H120   H     0.76528   0.69892   0.17755   0.00000  Uiso   1.00
H121   H     0.67340   0.24741   0.48927   0.00000  Uiso   1.00
H122   H     0.32159   0.46304   0.18209   0.00000  Uiso   1.00
H123   H     0.58873   0.55837   0.41590   0.00000  Uiso   1.00
H124   H     0.67344   0.66964   0.36984   0.00000  Uiso   1.00
H125   H     0.62988   0.45551   0.51768   0.00000  Uiso   1.00
H126   H     0.46305   0.55777   0.37200   0.00000  Uiso   1.00
H127   H     0.76711   0.78060   0.30020   0.00000  Uiso   1.00
H128   H     0.67523   0.32909   0.61193   0.00000  Uiso   1.00
H129   H     0.32342   0.54473   0.30474   0.00000  Uiso   1.00
O130   O     0.82190   0.81123   0.20600   0.00000  Uiso   1.00
O131   O     0.70135   0.21886   0.61497   0.00000  Uiso   1.00
O132   O     0.23979   0.50177   0.21195   0.00000  Uiso   1.00
N133   N     0.75407   0.70288   0.21273   0.00000  Uiso   1.00
N134   N     0.66819   0.28075   0.50417   0.00000  Uiso   1.00
N135   N     0.33927   0.48233   0.21699   0.00000  Uiso   1.00
N136   N     0.75506   0.74683   0.27872   0.00000  Uiso   1.00
N137   N     0.66917   0.32471   0.57017   0.00000  Uiso   1.00
N138   N     0.34025   0.52629   0.28299   0.00000  Uiso   1.00
C139   C     0.15142   0.97728   0.16571   0.00000  Uiso   1.00
C140   C     0.17773   0.04698   0.11726   0.00000  Uiso   1.00
C141   C     0.19912   0.10964   0.12542   0.00000  Uiso   1.00
C142   C     0.22142   0.16754   0.07548   0.00000  Uiso   1.00
C143   C     0.26218   0.27646   0.00879   0.00000  Uiso   1.00
C144   C     0.19480   0.92876   0.17953   0.00000  Uiso   1.00
C145   C     0.23052   0.89201   0.24004   0.00000  Uiso   1.00
C146   C     0.26718   0.85040   0.24251   0.00000  Uiso   1.00
C147   C     0.33439   0.77574   0.27250   0.00000  Uiso   1.00
C148   C     0.08282   0.95023   0.12961   0.00000  Uiso   1.00
C149   C     0.02439   0.93153   0.14816   0.00000  Uiso   1.00
C150   C     0.96677   0.90797   0.10861   0.00000  Uiso   1.00
C151   C     0.86012   0.86666   0.06110   0.00000  Uiso   1.00
C152   C     0.15301   0.96870   0.06250   0.00000  Uiso   1.00
C153   C     0.17860   0.04231   0.06121   0.00000  Uiso   1.00
C154   C     0.20087   0.10014   0.01124   0.00000  Uiso   1.00
C155   C     0.22228   0.16288   0.01932   0.00000  Uiso   1.00
C156   C     0.19566   0.92409   0.12348   0.00000  Uiso   1.00
C157   C     0.23228   0.88252   0.12585   0.00000  Uiso   1.00
C158   C     0.26805   0.84573   0.18635   0.00000  Uiso   1.00
C159   C     0.08368   0.94557   0.07355   0.00000  Uiso   1.00
C160   C     0.02615   0.92204   0.03397   0.00000  Uiso   1.00
C161   C     0.96764   0.90330   0.05245   0.00000  Uiso   1.00
H162   H     0.15075   0.98091   0.20936   0.00000  Uiso   1.00
H163   H     0.19845   0.11322   0.16881   0.00000  Uiso   1.00
H164   H     0.22983   0.89563   0.28341   0.00000  Uiso   1.00
H165   H     0.02374   0.93514   0.19154   0.00000  Uiso   1.00
H166   H     0.25173   0.25785   0.09915   0.00000  Uiso   1.00
H167   H     0.31790   0.79903   0.34080   0.00000  Uiso   1.00
H168   H     0.88330   0.88234   0.14708   0.00000  Uiso   1.00
H169   H     0.15368   0.96507   0.01886   0.00000  Uiso   1.00
H170   H     0.20154   0.09652   0.96786   0.00000  Uiso   1.00
H171   H     0.23293   0.87892   0.08246   0.00000  Uiso   1.00
H172   H     0.02683   0.91843   0.99060   0.00000  Uiso   1.00
H173   H     0.25424   0.24430   0.93606   0.00000  Uiso   1.00
H174   H     0.32041   0.78547   0.17770   0.00000  Uiso   1.00
H175   H     0.88582   0.86879   0.98398   0.00000  Uiso   1.00
O176   O     0.28444   0.33783   0.98750   0.00000  Uiso   1.00
O177   O     0.37124   0.73586   0.30453   0.00000  Uiso   1.00
O178   O     0.80106   0.84517   0.05037   0.00000  Uiso   1.00
N179   N     0.24574   0.23663   0.06776   0.00000  Uiso   1.00
N180   N     0.30761   0.80766   0.29368   0.00000  Uiso   1.00
N181   N     0.90131   0.88554   0.11258   0.00000  Uiso   1.00
N182   N     0.24709   0.22933   0.98000   0.00000  Uiso   1.00
N183   N     0.30896   0.80036   0.20592   0.00000  Uiso   1.00
N184   N     0.90266   0.87824   0.02482   0.00000  Uiso   1.00
C185   C     0.02638   0.09697   0.57657   0.00000  Uiso   1.00
C186   C     0.08548   0.10877   0.63085   0.00000  Uiso   1.00
C187   C     0.13649   0.07271   0.66238   0.00000  Uiso   1.00
C188   C     0.18600   0.09127   0.71072   0.00000  Uiso   1.00
C189   C     0.27801   0.10160   0.79253   0.00000  Uiso   1.00
C190   C     0.02691   0.16674   0.51994   0.00000  Uiso   1.00
C191   C     0.02867   0.17942   0.45821   0.00000  Uiso   1.00
C192   C     0.02887   0.24678   0.41318   0.00000  Uiso   1.00
C193   C     0.02990   0.34708   0.32278   0.00000  Uiso   1.00
C194   C     0.96485   0.08194   0.59932   0.00000  Uiso   1.00
C195   C     0.91442   0.02333   0.60432   0.00000  Uiso   1.00
C196   C     0.86235   0.01930   0.62611   0.00000  Uiso   1.00
C197   C     0.76702   0.98795   0.65896   0.00000  Uiso   1.00
C198   C     0.02359   0.19406   0.60636   0.00000  Uiso   1.00
C199   C     0.08396   0.16151   0.64703   0.00000  Uiso   1.00
C200   C     0.13340   0.18012   0.69534   0.00000  Uiso   1.00
C201   C     0.18448   0.14410   0.72693   0.00000  Uiso   1.00
C202   C     0.02539   0.21947   0.53612   0.00000  Uiso   1.00
C203   C     0.02558   0.28683   0.49117   0.00000  Uiso   1.00
C204   C     0.02735   0.29960   0.42939   0.00000  Uiso   1.00
C205   C     0.96333   0.13467   0.61550   0.00000  Uiso   1.00
C206   C     0.91133   0.13074   0.63728   0.00000  Uiso   1.00
C207   C     0.86083   0.07213   0.64232   0.00000  Uiso   1.00
H208   H     0.02756   0.05592   0.56396   0.00000  Uiso   1.00
H209   H     0.13765   0.03191   0.64983   0.00000  Uiso   1.00
H210   H     0.02984   0.13860   0.44570   0.00000  Uiso   1.00
H211   H     0.91561   0.98254   0.59179   0.00000  Uiso   1.00
H212   H     0.25905   0.02857   0.75216   0.00000  Uiso   1.00
H213   H     0.03170   0.25351   0.32172   0.00000  Uiso   1.00
H214   H     0.79081   0.92442   0.62978   0.00000  Uiso   1.00
H215   H     0.02241   0.23511   0.61896   0.00000  Uiso   1.00
H216   H     0.13222   0.22093   0.70785   0.00000  Uiso   1.00
H217   H     0.02440   0.32762   0.50371   0.00000  Uiso   1.00
H218   H     0.91017   0.17156   0.64980   0.00000  Uiso   1.00
H219   H     0.25464   0.18198   0.79925   0.00000  Uiso   1.00
H220   H     0.02728   0.40693   0.36880   0.00000  Uiso   1.00
H221   H     0.78641   0.07784   0.67686   0.00000  Uiso   1.00
O222   O     0.32919   0.09273   0.83317   0.00000  Uiso   1.00
O223   O     0.03089   0.38784   0.26844   0.00000  Uiso   1.00
O224   O     0.71487   0.95609   0.67262   0.00000  Uiso   1.00
N225   N     0.24294   0.06661   0.75105   0.00000  Uiso   1.00
N226   N     0.03038   0.27692   0.34861   0.00000  Uiso   1.00
N227   N     0.80517   0.96926   0.63661   0.00000  Uiso   1.00
N228   N     0.24056   0.14916   0.77639   0.00000  Uiso   1.00
N229   N     0.02801   0.35947   0.37395   0.00000  Uiso   1.00
N230   N     0.80280   0.05181   0.66195   0.00000  Uiso   1.00
C231   C     0.94997   0.40162   0.78663   0.00000  Uiso   1.00
C232   C     0.02244   0.42052   0.78502   0.00000  Uiso   1.00
C233   C     0.05009   0.47450   0.73621   0.00000  Uiso   1.00
C234   C     0.11734   0.48328   0.74375   0.00000  Uiso   1.00
C235   C     0.22407   0.51930   0.73299   0.00000  Uiso   1.00
C236   C     0.95010   0.40331   0.84958   0.00000  Uiso   1.00
C237   C     0.91691   0.44283   0.85505   0.00000  Uiso   1.00
C238   C     0.92326   0.43711   0.91695   0.00000  Uiso   1.00
C239   C     0.91763   0.44638   0.00642   0.00000  Uiso   1.00
C240   C     0.92555   0.32592   0.79396   0.00000  Uiso   1.00
C241   C     0.87169   0.30035   0.75267   0.00000  Uiso   1.00
C242   C     0.85736   0.22947   0.76775   0.00000  Uiso   1.00
C243   C     0.81361   0.11858   0.77086   0.00000  Uiso   1.00
C244   C     0.02026   0.32121   0.88683   0.00000  Uiso   1.00
C245   C     0.06062   0.37684   0.83944   0.00000  Uiso   1.00
C246   C     0.12785   0.38554   0.84706   0.00000  Uiso   1.00
C247   C     0.15559   0.43953   0.79827   0.00000  Uiso   1.00
C248   C     0.98828   0.35964   0.90400   0.00000  Uiso   1.00
C249   C     0.99467   0.35386   0.96591   0.00000  Uiso   1.00
C250   C     0.96150   0.39336   0.97147   0.00000  Uiso   1.00
C251   C     0.96372   0.28224   0.84838   0.00000  Uiso   1.00
C252   C     0.94947   0.21139   0.86353   0.00000  Uiso   1.00
C253   C     0.89561   0.18572   0.82227   0.00000  Uiso   1.00
H254   H     0.92025   0.43562   0.74426   0.00000  Uiso   1.00
H255   H     0.02052   0.50830   0.69410   0.00000  Uiso   1.00
H256   H     0.88736   0.47661   0.81293   0.00000  Uiso   1.00
H257   H     0.84216   0.33417   0.71057   0.00000  Uiso   1.00
H258   H     0.14854   0.56962   0.66250   0.00000  Uiso   1.00
H259   H     0.86774   0.50281   0.91305   0.00000  Uiso   1.00
H260   H     0.77242   0.20243   0.69720   0.00000  Uiso   1.00
H261   H     0.04999   0.28720   0.92920   0.00000  Uiso   1.00
H262   H     0.15739   0.35173   0.88918   0.00000  Uiso   1.00
H263   H     0.02422   0.32006   0.00801   0.00000  Uiso   1.00
H264   H     0.97902   0.17761   0.90565   0.00000  Uiso   1.00
H265   H     0.25962   0.44256   0.82084   0.00000  Uiso   1.00
H266   H     0.97882   0.37574   0.07139   0.00000  Uiso   1.00
H267   H     0.88351   0.07536   0.85554   0.00000  Uiso   1.00
O268   O     0.27239   0.55123   0.71202   0.00000  Uiso   1.00
O269   O     0.90398   0.46356   0.04073   0.00000  Uiso   1.00
O270   O     0.77894   0.06947   0.75754   0.00000  Uiso   1.00
N271   N     0.15994   0.53085   0.70525   0.00000  Uiso   1.00
N272   N     0.89742   0.46839   0.93950   0.00000  Uiso   1.00
N273   N     0.80829   0.18756   0.73771   0.00000  Uiso   1.00
N274   N     0.21971   0.46248   0.79045   0.00000  Uiso   1.00
N275   N     0.95719   0.40002   0.02470   0.00000  Uiso   1.00
N276   N     0.86807   0.11918   0.82291   0.00000  Uiso   1.00
C277   C     0.37683   0.66299   0.02476   0.00000  Uiso   1.00
C278   C     0.34413   0.72320   0.97389   0.00000  Uiso   1.00
C279   C     0.36225   0.76934   0.91683   0.00000  Uiso   1.00
C280   C     0.32616   0.82086   0.87667   0.00000  Uiso   1.00
C281   C     0.28332   0.91355   0.79517   0.00000  Uiso   1.00
C282   C     0.32166   0.59824   0.03296   0.00000  Uiso   1.00
C283   C     0.32090   0.53932   0.02558   0.00000  Uiso   1.00
C284   C     0.26589   0.48565   0.03516   0.00000  Uiso   1.00
C285   C     0.18819   0.38432   0.04542   0.00000  Uiso   1.00
C286   C     0.39869   0.67400   0.08809   0.00000  Uiso   1.00
C287   C     0.46270   0.67875   0.12708   0.00000  Uiso   1.00
C288   C     0.47254   0.68884   0.18308   0.00000  Uiso   1.00
C289   C     0.51444   0.70513   0.27894   0.00000  Uiso   1.00
C290   C     0.28051   0.67243   0.05491   0.00000  Uiso   1.00
C291   C     0.29181   0.72832   0.99026   0.00000  Uiso   1.00
C292   C     0.25568   0.77979   0.95018   0.00000  Uiso   1.00
C293   C     0.27375   0.82600   0.89308   0.00000  Uiso   1.00
C294   C     0.26934   0.60337   0.04934   0.00000  Uiso   1.00
C295   C     0.21432   0.54977   0.05893   0.00000  Uiso   1.00
C296   C     0.21348   0.49079   0.05156   0.00000  Uiso   1.00
C297   C     0.34637   0.67913   0.10447   0.00000  Uiso   1.00
C298   C     0.35612   0.68921   0.16043   0.00000  Uiso   1.00
C299   C     0.42013   0.69398   0.19949   0.00000  Uiso   1.00
H300   H     0.41756   0.65899   0.01201   0.00000  Uiso   1.00
H301   H     0.40274   0.76535   0.90417   0.00000  Uiso   1.00
H302   H     0.36140   0.53536   0.01291   0.00000  Uiso   1.00
H303   H     0.50317   0.67478   0.11439   0.00000  Uiso   1.00
H304   H     0.36322   0.88551   0.79182   0.00000  Uiso   1.00
H305   H     0.27605   0.40057   0.02113   0.00000  Uiso   1.00
H306   H     0.57501   0.69455   0.23511   0.00000  Uiso   1.00
H307   H     0.23977   0.67643   0.06766   0.00000  Uiso   1.00
H308   H     0.21519   0.78375   0.96287   0.00000  Uiso   1.00
H309   H     0.17385   0.55376   0.07161   0.00000  Uiso   1.00
H310   H     0.31562   0.69317   0.17309   0.00000  Uiso   1.00
H311   H     0.21100   0.90044   0.83946   0.00000  Uiso   1.00
H312   H     0.12383   0.41549   0.06877   0.00000  Uiso   1.00
H313   H     0.42279   0.70948   0.28275   0.00000  Uiso   1.00
O314   O     0.27414   0.96325   0.74569   0.00000  Uiso   1.00
O315   O     0.15978   0.32701   0.04654   0.00000  Uiso   1.00
O316   O     0.55201   0.71271   0.32729   0.00000  Uiso   1.00
N317   N     0.33078   0.87431   0.81742   0.00000  Uiso   1.00
N318   N     0.24927   0.42091   0.03180   0.00000  Uiso   1.00
N319   N     0.52877   0.69574   0.23187   0.00000  Uiso   1.00
N320   N     0.24887   0.88234   0.84305   0.00000  Uiso   1.00
N321   N     0.16736   0.42895   0.05743   0.00000  Uiso   1.00
N322   N     0.44686   0.70378   0.25750   0.00000  Uiso   1.00
C323   C     0.49454   0.41085   0.56286   0.00000  Uiso   1.00
C324   C     0.45224   0.38596   0.50815   0.00000  Uiso   1.00
C325   C     0.46862   0.34461   0.48854   0.00000  Uiso   1.00
C326   C     0.42326   0.32747   0.43754   0.00000  Uiso   1.00
C327   C     0.36662   0.28524   0.35720   0.00000  Uiso   1.00
C328   C     0.45106   0.38645   0.60921   0.00000  Uiso   1.00
C329   C     0.46644   0.34553   0.67456   0.00000  Uiso   1.00
C330   C     0.42009   0.32882   0.70863   0.00000  Uiso   1.00
C331   C     0.36163   0.28740   0.78520   0.00000  Uiso   1.00
C332   C     0.50517   0.48966   0.53307   0.00000  Uiso   1.00
C333   C     0.56606   0.53551   0.53442   0.00000  Uiso   1.00
C334   C     0.56527   0.60570   0.50440   0.00000  Uiso   1.00
C335   C     0.59084   0.72451   0.46275   0.00000  Uiso   1.00
C336   C     0.38487   0.45396   0.50716   0.00000  Uiso   1.00
C337   C     0.39267   0.40938   0.47789   0.00000  Uiso   1.00
C338   C     0.34727   0.39230   0.42691   0.00000  Uiso   1.00
C339   C     0.36358   0.35094   0.40722   0.00000  Uiso   1.00
C340   C     0.39148   0.40987   0.57895   0.00000  Uiso   1.00
C341   C     0.34510   0.39323   0.61293   0.00000  Uiso   1.00
C342   C     0.36041   0.35228   0.67832   0.00000  Uiso   1.00
C343   C     0.44560   0.51308   0.50281   0.00000  Uiso   1.00
C344   C     0.44472   0.58321   0.47278   0.00000  Uiso   1.00
C345   C     0.50559   0.62915   0.47409   0.00000  Uiso   1.00
H346   H     0.54092   0.39261   0.58642   0.00000  Uiso   1.00
H347   H     0.51472   0.32649   0.51197   0.00000  Uiso   1.00
H348   H     0.51255   0.32742   0.69796   0.00000  Uiso   1.00
H349   H     0.61215   0.51737   0.55784   0.00000  Uiso   1.00
H350   H     0.45939   0.26349   0.41610   0.00000  Uiso   1.00
H351   H     0.45482   0.26547   0.80828   0.00000  Uiso   1.00
H352   H     0.66486   0.66601   0.51280   0.00000  Uiso   1.00
H353   H     0.33849   0.47219   0.48360   0.00000  Uiso   1.00
H354   H     0.30118   0.41043   0.40350   0.00000  Uiso   1.00
H355   H     0.29900   0.41136   0.58950   0.00000  Uiso   1.00
H356   H     0.39861   0.60131   0.44937   0.00000  Uiso   1.00
H357   H     0.28607   0.33161   0.32806   0.00000  Uiso   1.00
H358   H     0.28150   0.33359   0.72025   0.00000  Uiso   1.00
H359   H     0.49153   0.73414   0.42477   0.00000  Uiso   1.00
O360   O     0.35183   0.25547   0.32126   0.00000  Uiso   1.00
O361   O     0.34584   0.25808   0.83579   0.00000  Uiso   1.00
O362   O     0.62140   0.78358   0.44812   0.00000  Uiso   1.00
N363   N     0.42373   0.28801   0.40636   0.00000  Uiso   1.00
N364   N     0.41945   0.28985   0.77303   0.00000  Uiso   1.00
N365   N     0.61581   0.66433   0.49679   0.00000  Uiso   1.00
N366   N     0.33046   0.32467   0.35899   0.00000  Uiso   1.00
N367   N     0.32619   0.32651   0.72566   0.00000  Uiso   1.00
N368   N     0.52255   0.70099   0.44942   0.00000  Uiso   1.00
C369   C     0.40761   0.93192   0.50093   0.00000  Uiso   1.00
C370   C     0.35214   0.86745   0.50834   0.00000  Uiso   1.00
C371   C     0.31279   0.84043   0.55159   0.00000  Uiso   1.00
C372   C     0.26472   0.78107   0.55088   0.00000  Uiso   1.00
C373   C     0.17983   0.68573   0.56883   0.00000  Uiso   1.00
C374   C     0.39052   0.98012   0.43016   0.00000  Uiso   1.00
C375   C     0.38346   0.04783   0.40769   0.00000  Uiso   1.00
C376   C     0.36770   0.08331   0.34117   0.00000  Uiso   1.00
C377   C     0.34245   0.16290   0.23775   0.00000  Uiso   1.00
C378   C     0.46960   0.90888   0.51070   0.00000  Uiso   1.00
C379   C     0.52904   0.91671   0.55594   0.00000  Uiso   1.00
C380   C     0.57987   0.89223   0.55722   0.00000  Uiso   1.00
C381   C     0.67741   0.86121   0.57885   0.00000  Uiso   1.00
C382   C     0.39219   0.87455   0.42276   0.00000  Uiso   1.00
C383   C     0.34376   0.83630   0.46588   0.00000  Uiso   1.00
C384   C     0.29573   0.77696   0.46511   0.00000  Uiso   1.00
C385   C     0.25633   0.74985   0.50835   0.00000  Uiso   1.00
C386   C     0.38214   0.94896   0.38771   0.00000  Uiso   1.00
C387   C     0.36640   0.98435   0.32121   0.00000  Uiso   1.00
C388   C     0.35931   0.05209   0.29864   0.00000  Uiso   1.00
C389   C     0.46123   0.87772   0.46825   0.00000  Uiso   1.00
C390   C     0.51198   0.85323   0.46945   0.00000  Uiso   1.00
C391   C     0.57148   0.86101   0.51468   0.00000  Uiso   1.00
H392   H     0.41413   0.95619   0.53398   0.00000  Uiso   1.00
H393   H     0.31929   0.86456   0.58444   0.00000  Uiso   1.00
H394   H     0.38995   0.07193   0.44056   0.00000  Uiso   1.00
H395   H     0.53550   0.94082   0.58878   0.00000  Uiso   1.00
H396   H     0.21043   0.74926   0.62164   0.00000  Uiso   1.00
H397   H     0.35944   0.18651   0.31827   0.00000  Uiso   1.00
H398   H     0.66638   0.91005   0.63083   0.00000  Uiso   1.00
H399   H     0.38567   0.85029   0.38970   0.00000  Uiso   1.00
H400   H     0.28926   0.75285   0.43224   0.00000  Uiso   1.00
H401   H     0.35992   0.96022   0.28836   0.00000  Uiso   1.00
H402   H     0.50548   0.82912   0.43659   0.00000  Uiso   1.00
H403   H     0.18606   0.65859   0.49811   0.00000  Uiso   1.00
H404   H     0.33507   0.09584   0.19474   0.00000  Uiso   1.00
H405   H     0.64201   0.81938   0.50730   0.00000  Uiso   1.00
O406   O     0.13532   0.64175   0.59045   0.00000  Uiso   1.00
O407   O     0.33084   0.21541   0.19244   0.00000  Uiso   1.00
O408   O     0.73352   0.85270   0.60251   0.00000  Uiso   1.00
N409   N     0.21793   0.74128   0.58674   0.00000  Uiso   1.00
N410   N     0.35724   0.15008   0.30310   0.00000  Uiso   1.00
N411   N     0.64420   0.89163   0.59531   0.00000  Uiso   1.00
N412   N     0.20482   0.69249   0.52027   0.00000  Uiso   1.00
N413   N     0.34413   0.10129   0.23663   0.00000  Uiso   1.00
N414   N     0.63109   0.84285   0.52884   0.00000  Uiso   1.00
C415   C     0.91431   0.45148   0.45566   0.00000  Uiso   1.00
C416   C     0.87228   0.38482   0.44619   0.00000  Uiso   1.00
C417   C     0.85364   0.37317   0.38950   0.00000  Uiso   1.00
C418   C     0.81512   0.30873   0.39066   0.00000  Uiso   1.00
C419   C     0.75275   0.21297   0.36745   0.00000  Uiso   1.00
C420   C     0.87326   0.47472   0.47870   0.00000  Uiso   1.00
C421   C     0.85545   0.53866   0.44934   0.00000  Uiso   1.00
C422   C     0.81776   0.54990   0.47787   0.00000  Uiso   1.00
C423   C     0.75696   0.59374   0.50516   0.00000  Uiso   1.00
C424   C     0.97321   0.43068   0.51259   0.00000  Uiso   1.00
C425   C     0.03944   0.45760   0.51174   0.00000  Uiso   1.00
C426   C     0.08590   0.43177   0.56881   0.00000  Uiso   1.00
C427   C     0.18028   0.40722   0.64871   0.00000  Uiso   1.00
C428   C     0.87904   0.35774   0.55854   0.00000  Uiso   1.00
C429   C     0.85313   0.33390   0.50207   0.00000  Uiso   1.00
C430   C     0.81462   0.26946   0.50332   0.00000  Uiso   1.00
C431   C     0.79593   0.25772   0.44664   0.00000  Uiso   1.00
C432   C     0.85411   0.42381   0.53458   0.00000  Uiso   1.00
C433   C     0.81644   0.43495   0.56316   0.00000  Uiso   1.00
C434   C     0.79857   0.49889   0.53385   0.00000  Uiso   1.00
C435   C     0.95406   0.37976   0.56847   0.00000  Uiso   1.00
C436   C     0.00042   0.35389   0.62555   0.00000  Uiso   1.00
C437   C     0.06671   0.38076   0.62479   0.00000  Uiso   1.00
H438   H     0.92922   0.49112   0.41216   0.00000  Uiso   1.00
H439   H     0.86847   0.41259   0.34627   0.00000  Uiso   1.00
H440   H     0.87029   0.57806   0.40611   0.00000  Uiso   1.00
H441   H     0.05425   0.49700   0.46849   0.00000  Uiso   1.00
H442   H     0.79265   0.30308   0.29785   0.00000  Uiso   1.00
H443   H     0.79651   0.65198   0.42403   0.00000  Uiso   1.00
H444   H     0.18442   0.48106   0.55558   0.00000  Uiso   1.00
H445   H     0.86413   0.31810   0.60204   0.00000  Uiso   1.00
H446   H     0.79981   0.23007   0.54657   0.00000  Uiso   1.00
H447   H     0.80163   0.39554   0.60640   0.00000  Uiso   1.00
H448   H     0.98558   0.31448   0.66879   0.00000  Uiso   1.00
H449   H     0.73692   0.15494   0.46042   0.00000  Uiso   1.00
H450   H     0.74078   0.50384   0.58660   0.00000  Uiso   1.00
H451   H     0.12869   0.33292   0.71815   0.00000  Uiso   1.00
O452   O     0.72363   0.17423   0.33921   0.00000  Uiso   1.00
O453   O     0.72870   0.63198   0.50476   0.00000  Uiso   1.00
O454   O     0.23763   0.40774   0.67734   0.00000  Uiso   1.00
N455   N     0.78837   0.28029   0.34372   0.00000  Uiso   1.00
N456   N     0.79197   0.60649   0.46169   0.00000  Uiso   1.00
N457   N     0.15463   0.44671   0.58468   0.00000  Uiso   1.00
N458   N     0.75839   0.20057   0.43120   0.00000  Uiso   1.00
N459   N     0.76198   0.52678   0.54917   0.00000  Uiso   1.00
N460   N     0.12465   0.36700   0.67216   0.00000  Uiso   1.00
C461   C     0.87924   0.20629   0.13987   0.00000  Uiso   1.00
C462   C     0.85765   0.22557   0.06692   0.00000  Uiso   1.00
C463   C     0.81312   0.26784   0.02359   0.00000  Uiso   1.00
C464   C     0.79987   0.27917   0.95881   0.00000  Uiso   1.00
C465   C     0.76171   0.31362   0.84869   0.00000  Uiso   1.00
C466   C     0.86364   0.12734   0.17003   0.00000  Uiso   1.00
C467   C     0.82417   0.08703   0.21339   0.00000  Uiso   1.00
C468   C     0.81598   0.01567   0.23541   0.00000  Uiso   1.00
C469   C     0.78717   0.89763   0.28540   0.00000  Uiso   1.00
C470   C     0.95457   0.22823   0.15662   0.00000  Uiso   1.00
C471   C     0.99155   0.27273   0.18872   0.00000  Uiso   1.00
C472   C     0.05991   0.28631   0.19947   0.00000  Uiso   1.00
C473   C     0.17227   0.32491   0.22864   0.00000  Uiso   1.00
C474   C     0.93488   0.15124   0.10189   0.00000  Uiso   1.00
C475   C     0.88787   0.19566   0.04630   0.00000  Uiso   1.00
C476   C     0.87468   0.20693   0.98156   0.00000  Uiso   1.00
C477   C     0.83015   0.24922   0.93814   0.00000  Uiso   1.00
C478   C     0.89386   0.09744   0.14940   0.00000  Uiso   1.00
C479   C     0.88573   0.02612   0.17137   0.00000  Uiso   1.00
C480   C     0.84626   0.98572   0.21474   0.00000  Uiso   1.00
C481   C     0.98479   0.19833   0.13599   0.00000  Uiso   1.00
C482   C     0.05311   0.21183   0.14669   0.00000  Uiso   1.00
C483   C     0.09018   0.25635   0.17880   0.00000  Uiso   1.00
H484   H     0.85572   0.22956   0.15593   0.00000  Uiso   1.00
H485   H     0.78974   0.29097   0.03957   0.00000  Uiso   1.00
H486   H     0.80080   0.11018   0.22935   0.00000  Uiso   1.00
H487   H     0.96815   0.29586   0.20468   0.00000  Uiso   1.00
H488   H     0.72991   0.34584   0.90147   0.00000  Uiso   1.00
H489   H     0.75324   0.96465   0.30164   0.00000  Uiso   1.00
H490   H     0.10612   0.35619   0.24963   0.00000  Uiso   1.00
H491   H     0.95841   0.12795   0.08583   0.00000  Uiso   1.00
H492   H     0.89807   0.18379   0.96561   0.00000  Uiso   1.00
H493   H     0.90913   0.00300   0.15539   0.00000  Uiso   1.00
H494   H     0.07648   0.18868   0.13072   0.00000  Uiso   1.00
H495   H     0.81783   0.25884   0.84144   0.00000  Uiso   1.00
H496   H     0.84116   0.87765   0.24162   0.00000  Uiso   1.00
H497   H     0.19405   0.26919   0.18960   0.00000  Uiso   1.00
O498   O     0.73231   0.34088   0.79365   0.00000  Uiso   1.00
O499   O     0.76293   0.84078   0.31867   0.00000  Uiso   1.00
O500   O     0.22590   0.35447   0.25042   0.00000  Uiso   1.00
N501   N     0.75889   0.31771   0.90384   0.00000  Uiso   1.00
N502   N     0.78069   0.96132   0.27797   0.00000  Uiso   1.00
N503   N     0.11061   0.32736   0.22935   0.00000  Uiso   1.00
N504   N     0.80620   0.27090   0.87154   0.00000  Uiso   1.00
N505   N     0.82801   0.91451   0.24567   0.00000  Uiso   1.00
N506   N     0.15793   0.28055   0.19705   0.00000  Uiso   1.00
C507   C     0.97406   0.79348   0.89882   0.00000  Uiso   1.00
C508   C     0.92318   0.77059   0.93753   0.00000  Uiso   1.00
C509   C     0.92582   0.72037   0.99945   0.00000  Uiso   1.00
C510   C     0.87447   0.70690   0.02654   0.00000  Uiso   1.00
C511   C     0.80337   0.66594   0.09176   0.00000  Uiso   1.00
C512   C     0.93568   0.78311   0.83564   0.00000  Uiso   1.00
C513   C     0.94885   0.74341   0.81189   0.00000  Uiso   1.00
C514   C     0.90803   0.74049   0.75320   0.00000  Uiso   1.00
C515   C     0.85638   0.71900   0.66022   0.00000  Uiso   1.00
C516   C     0.99758   0.87154   0.88078   0.00000  Uiso   1.00
C517   C     0.06279   0.90621   0.89496   0.00000  Uiso   1.00
C518   C     0.07408   0.97774   0.87425   0.00000  Uiso   1.00
C519   C     0.11853   0.09355   0.85135   0.00000  Uiso   1.00
C520   C     0.87815   0.85887   0.83681   0.00000  Uiso   1.00
C521   C     0.87108   0.80611   0.90385   0.00000  Uiso   1.00
C522   C     0.81971   0.79271   0.93085   0.00000  Uiso   1.00
C523   C     0.82228   0.74248   0.99280   0.00000  Uiso   1.00
C524   C     0.88359   0.81862   0.80197   0.00000  Uiso   1.00
C525   C     0.84274   0.81576   0.74330   0.00000  Uiso   1.00
C526   C     0.85584   0.77607   0.71946   0.00000  Uiso   1.00
C527   C     0.94548   0.90706   0.84710   0.00000  Uiso   1.00
C528   C     0.95668   0.97855   0.82637   0.00000  Uiso   1.00
C529   C     0.02189   0.01332   0.84052   0.00000  Uiso   1.00
H530   H     0.01461   0.76582   0.92503   0.00000  Uiso   1.00
H531   H     0.96614   0.69289   0.02549   0.00000  Uiso   1.00
H532   H     0.98918   0.71594   0.83796   0.00000  Uiso   1.00
H533   H     0.10309   0.87870   0.92102   0.00000  Uiso   1.00
H534   H     0.88942   0.62767   0.12202   0.00000  Uiso   1.00
H535   H     0.93800   0.67629   0.72658   0.00000  Uiso   1.00
H536   H     0.17822   0.01952   0.90173   0.00000  Uiso   1.00
H537   H     0.83759   0.88652   0.81059   0.00000  Uiso   1.00
H538   H     0.77940   0.82021   0.90478   0.00000  Uiso   1.00
H539   H     0.80243   0.84325   0.71725   0.00000  Uiso   1.00
H540   H     0.91635   0.00602   0.80031   0.00000  Uiso   1.00
H541   H     0.73785   0.73101   0.02404   0.00000  Uiso   1.00
H542   H     0.78643   0.77963   0.62860   0.00000  Uiso   1.00
H543   H     0.02665   0.12285   0.80375   0.00000  Uiso   1.00
O544   O     0.77854   0.63352   0.13704   0.00000  Uiso   1.00
O545   O     0.84228   0.69732   0.61825   0.00000  Uiso   1.00
O546   O     0.15744   0.14762   0.84803   0.00000  Uiso   1.00
N547   N     0.86174   0.66110   0.08604   0.00000  Uiso   1.00
N548   N     0.90715   0.70655   0.71633   0.00000  Uiso   1.00
N549   N     0.13174   0.02744   0.88006   0.00000  Uiso   1.00
N550   N     0.78018   0.71671   0.03332   0.00000  Uiso   1.00
N551   N     0.82559   0.76215   0.66361   0.00000  Uiso   1.00
N552   N     0.05018   0.08304   0.82734   0.00000  Uiso   1.00
