data_job_00849
_audit_creation_date              2018-12-19
_audit_creation_method            'Materials Studio'
_symmetry_space_group_name_H-M    'P1'
_symmetry_Int_Tables_number       1
_symmetry_cell_setting            triclinic
loop_
_symmetry_equiv_pos_as_xyz
  x,y,z
_cell_length_a                    21.1053
_cell_length_b                    14.8122
_cell_length_c                    18.6634
_cell_angle_alpha                 90.0000
_cell_angle_beta                  107.4030
_cell_angle_gamma                 90.0000
loop_
_atom_site_label
_atom_site_type_symbol
_atom_site_fract_x
_atom_site_fract_y
_atom_site_fract_z
_atom_site_U_iso_or_equiv
_atom_site_adp_type
_atom_site_occupancy
C1     C     0.73568   0.00389   0.21444   0.00000  Uiso   1.00
C2     C     0.76215   0.92308   0.18160   0.00000  Uiso   1.00
C3     C     0.77385   0.83764   0.21333   0.00000  Uiso   1.00
C4     C     0.79813   0.77290   0.17456   0.00000  Uiso   1.00
C5     C     0.83743   0.64439   0.13392   0.00000  Uiso   1.00
C6     C     0.78670   0.07897   0.22202   0.00000  Uiso   1.00
C7     C     0.81903   0.12461   0.28774   0.00000  Uiso   1.00
C8     C     0.86397   0.19110   0.28299   0.00000  Uiso   1.00
C9     C     0.94134   0.30466   0.30510   0.00000  Uiso   1.00
C10    C     0.67348   0.03494   0.15386   0.00000  Uiso   1.00
C11    C     0.61062   0.04358   0.16228   0.00000  Uiso   1.00
C12    C     0.56023   0.07302   0.10015   0.00000  Uiso   1.00
C13    C     0.46181   0.11821   0.01644   0.00000  Uiso   1.00
C14    C     0.75799   0.04085   0.08916   0.00000  Uiso   1.00
C15    C     0.77428   0.94316   0.11355   0.00000  Uiso   1.00
C16    C     0.79854   0.87853   0.07472   0.00000  Uiso   1.00
C17    C     0.81027   0.79301   0.10638   0.00000  Uiso   1.00
C18    C     0.79882   0.09905   0.15397   0.00000  Uiso   1.00
C19    C     0.84372   0.16550   0.14912   0.00000  Uiso   1.00
C20    C     0.87611   0.21121   0.21482   0.00000  Uiso   1.00
C21    C     0.68560   0.05501   0.08581   0.00000  Uiso   1.00
C22    C     0.63531   0.08446   0.02366   0.00000  Uiso   1.00
C23    C     0.57238   0.09313   0.03198   0.00000  Uiso   1.00
H24    H     0.72625   0.98827   0.26743   0.00000  Uiso   1.00
H25    H     0.76447   0.82214   0.26600   0.00000  Uiso   1.00
H26    H     0.80964   0.10906   0.34039   0.00000  Uiso   1.00
H27    H     0.60126   0.02803   0.21495   0.00000  Uiso   1.00
H28    H     0.81222   0.64681   0.23442   0.00000  Uiso   1.00
H29    H     0.90744   0.25183   0.39127   0.00000  Uiso   1.00
H30    H     0.46802   0.08098   0.12675   0.00000  Uiso   1.00
H31    H     0.76743   0.05648   0.03618   0.00000  Uiso   1.00
H32    H     0.80792   0.89409   0.02206   0.00000  Uiso   1.00
H33    H     0.85309   0.18102   0.09645   0.00000  Uiso   1.00
H34    H     0.64470   0.09999   0.97101   0.00000  Uiso   1.00
H35    H     0.84748   0.70522   0.03643   0.00000  Uiso   1.00
H36    H     0.94270   0.31024   0.19328   0.00000  Uiso   1.00
H37    H     0.50329   0.13938   0.92877   0.00000  Uiso   1.00
O38    O     0.85576   0.56797   0.13032   0.00000  Uiso   1.00
O39    O     0.98067   0.36174   0.33610   0.00000  Uiso   1.00
O40    O     0.40418   0.13757   0.98906   0.00000  Uiso   1.00
N41    N     0.81495   0.68284   0.18975   0.00000  Uiso   1.00
N42    N     0.90398   0.24849   0.33640   0.00000  Uiso   1.00
N43    N     0.49317   0.08877   0.08911   0.00000  Uiso   1.00
N44    N     0.83393   0.71426   0.08321   0.00000  Uiso   1.00
N45    N     0.92296   0.27991   0.22986   0.00000  Uiso   1.00
N46    N     0.51215   0.12020   0.98257   0.00000  Uiso   1.00
C47    C     0.23568   0.50389   0.21444   0.00000  Uiso   1.00
C48    C     0.26215   0.42308   0.18160   0.00000  Uiso   1.00
C49    C     0.27385   0.33764   0.21333   0.00000  Uiso   1.00
C50    C     0.29813   0.27290   0.17456   0.00000  Uiso   1.00
C51    C     0.33743   0.14439   0.13392   0.00000  Uiso   1.00
C52    C     0.28670   0.57897   0.22202   0.00000  Uiso   1.00
C53    C     0.31903   0.62461   0.28774   0.00000  Uiso   1.00
C54    C     0.36397   0.69110   0.28299   0.00000  Uiso   1.00
C55    C     0.44134   0.80466   0.30510   0.00000  Uiso   1.00
C56    C     0.17348   0.53494   0.15386   0.00000  Uiso   1.00
C57    C     0.11062   0.54358   0.16228   0.00000  Uiso   1.00
C58    C     0.06023   0.57302   0.10015   0.00000  Uiso   1.00
C59    C     0.96181   0.61821   0.01644   0.00000  Uiso   1.00
C60    C     0.25799   0.54085   0.08916   0.00000  Uiso   1.00
C61    C     0.27428   0.44316   0.11355   0.00000  Uiso   1.00
C62    C     0.29854   0.37853   0.07472   0.00000  Uiso   1.00
C63    C     0.31027   0.29301   0.10638   0.00000  Uiso   1.00
C64    C     0.29882   0.59905   0.15397   0.00000  Uiso   1.00
C65    C     0.34372   0.66550   0.14912   0.00000  Uiso   1.00
C66    C     0.37611   0.71121   0.21482   0.00000  Uiso   1.00
C67    C     0.18560   0.55501   0.08581   0.00000  Uiso   1.00
C68    C     0.13531   0.58446   0.02366   0.00000  Uiso   1.00
C69    C     0.07238   0.59313   0.03198   0.00000  Uiso   1.00
H70    H     0.22625   0.48827   0.26743   0.00000  Uiso   1.00
H71    H     0.26447   0.32214   0.26600   0.00000  Uiso   1.00
H72    H     0.30964   0.60906   0.34039   0.00000  Uiso   1.00
H73    H     0.10126   0.52803   0.21495   0.00000  Uiso   1.00
H74    H     0.31222   0.14681   0.23442   0.00000  Uiso   1.00
H75    H     0.40744   0.75183   0.39127   0.00000  Uiso   1.00
H76    H     0.96802   0.58098   0.12675   0.00000  Uiso   1.00
H77    H     0.26743   0.55648   0.03618   0.00000  Uiso   1.00
H78    H     0.30792   0.39409   0.02206   0.00000  Uiso   1.00
H79    H     0.35309   0.68102   0.09645   0.00000  Uiso   1.00
H80    H     0.14470   0.59999   0.97101   0.00000  Uiso   1.00
H81    H     0.34748   0.20522   0.03643   0.00000  Uiso   1.00
H82    H     0.44270   0.81024   0.19328   0.00000  Uiso   1.00
H83    H     0.00329   0.63938   0.92877   0.00000  Uiso   1.00
O84    O     0.35576   0.06797   0.13032   0.00000  Uiso   1.00
O85    O     0.48067   0.86174   0.33610   0.00000  Uiso   1.00
O86    O     0.90418   0.63757   0.98906   0.00000  Uiso   1.00
N87    N     0.31495   0.18284   0.18975   0.00000  Uiso   1.00
N88    N     0.40398   0.74849   0.33640   0.00000  Uiso   1.00
N89    N     0.99317   0.58877   0.08911   0.00000  Uiso   1.00
N90    N     0.33393   0.21426   0.08321   0.00000  Uiso   1.00
N91    N     0.42296   0.77991   0.22986   0.00000  Uiso   1.00
N92    N     0.01215   0.62020   0.98257   0.00000  Uiso   1.00
C93    C     0.26432   0.00389   0.28556   0.00000  Uiso   1.00
C94    C     0.23785   0.92308   0.31840   0.00000  Uiso   1.00
C95    C     0.22615   0.83764   0.28667   0.00000  Uiso   1.00
C96    C     0.20187   0.77290   0.32544   0.00000  Uiso   1.00
C97    C     0.16257   0.64439   0.36608   0.00000  Uiso   1.00
C98    C     0.21330   0.07897   0.27798   0.00000  Uiso   1.00
C99    C     0.18097   0.12461   0.21226   0.00000  Uiso   1.00
C100   C     0.13603   0.19110   0.21701   0.00000  Uiso   1.00
C101   C     0.05866   0.30466   0.19490   0.00000  Uiso   1.00
C102   C     0.32652   0.03494   0.34614   0.00000  Uiso   1.00
C103   C     0.38938   0.04358   0.33772   0.00000  Uiso   1.00
C104   C     0.43977   0.07302   0.39985   0.00000  Uiso   1.00
C105   C     0.53819   0.11821   0.48356   0.00000  Uiso   1.00
C106   C     0.24201   0.04085   0.41084   0.00000  Uiso   1.00
C107   C     0.22572   0.94316   0.38645   0.00000  Uiso   1.00
C108   C     0.20146   0.87853   0.42528   0.00000  Uiso   1.00
C109   C     0.18973   0.79301   0.39362   0.00000  Uiso   1.00
C110   C     0.20118   0.09905   0.34603   0.00000  Uiso   1.00
C111   C     0.15628   0.16550   0.35088   0.00000  Uiso   1.00
C112   C     0.12389   0.21121   0.28518   0.00000  Uiso   1.00
C113   C     0.31440   0.05501   0.41419   0.00000  Uiso   1.00
C114   C     0.36469   0.08446   0.47634   0.00000  Uiso   1.00
C115   C     0.42762   0.09313   0.46802   0.00000  Uiso   1.00
H116   H     0.27375   0.98827   0.23257   0.00000  Uiso   1.00
H117   H     0.23553   0.82214   0.23400   0.00000  Uiso   1.00
H118   H     0.19036   0.10906   0.15961   0.00000  Uiso   1.00
H119   H     0.39874   0.02803   0.28505   0.00000  Uiso   1.00
H120   H     0.18778   0.64681   0.26558   0.00000  Uiso   1.00
H121   H     0.09256   0.25183   0.10873   0.00000  Uiso   1.00
H122   H     0.53198   0.08098   0.37325   0.00000  Uiso   1.00
H123   H     0.23257   0.05648   0.46382   0.00000  Uiso   1.00
H124   H     0.19208   0.89409   0.47794   0.00000  Uiso   1.00
H125   H     0.14691   0.18102   0.40355   0.00000  Uiso   1.00
H126   H     0.35530   0.09999   0.52899   0.00000  Uiso   1.00
H127   H     0.15252   0.70522   0.46357   0.00000  Uiso   1.00
H128   H     0.05730   0.31024   0.30672   0.00000  Uiso   1.00
H129   H     0.49671   0.13938   0.57123   0.00000  Uiso   1.00
O130   O     0.14424   0.56797   0.36968   0.00000  Uiso   1.00
O131   O     0.01933   0.36174   0.16390   0.00000  Uiso   1.00
O132   O     0.59582   0.13757   0.51094   0.00000  Uiso   1.00
N133   N     0.18505   0.68284   0.31025   0.00000  Uiso   1.00
N134   N     0.09602   0.24849   0.16360   0.00000  Uiso   1.00
N135   N     0.50683   0.08877   0.41089   0.00000  Uiso   1.00
N136   N     0.16607   0.71426   0.41679   0.00000  Uiso   1.00
N137   N     0.07704   0.27991   0.27014   0.00000  Uiso   1.00
N138   N     0.48785   0.12020   0.51743   0.00000  Uiso   1.00
C139   C     0.76432   0.50389   0.28556   0.00000  Uiso   1.00
C140   C     0.73785   0.42308   0.31840   0.00000  Uiso   1.00
C141   C     0.72615   0.33764   0.28667   0.00000  Uiso   1.00
C142   C     0.70187   0.27290   0.32544   0.00000  Uiso   1.00
C143   C     0.66257   0.14439   0.36608   0.00000  Uiso   1.00
C144   C     0.71330   0.57897   0.27798   0.00000  Uiso   1.00
C145   C     0.68097   0.62461   0.21226   0.00000  Uiso   1.00
C146   C     0.63603   0.69110   0.21701   0.00000  Uiso   1.00
C147   C     0.55866   0.80466   0.19490   0.00000  Uiso   1.00
C148   C     0.82652   0.53494   0.34614   0.00000  Uiso   1.00
C149   C     0.88938   0.54358   0.33772   0.00000  Uiso   1.00
C150   C     0.93977   0.57302   0.39985   0.00000  Uiso   1.00
C151   C     0.03819   0.61821   0.48356   0.00000  Uiso   1.00
C152   C     0.74201   0.54085   0.41084   0.00000  Uiso   1.00
C153   C     0.72572   0.44316   0.38645   0.00000  Uiso   1.00
C154   C     0.70146   0.37853   0.42528   0.00000  Uiso   1.00
C155   C     0.68973   0.29301   0.39362   0.00000  Uiso   1.00
C156   C     0.70118   0.59905   0.34603   0.00000  Uiso   1.00
C157   C     0.65628   0.66550   0.35088   0.00000  Uiso   1.00
C158   C     0.62389   0.71121   0.28518   0.00000  Uiso   1.00
C159   C     0.81440   0.55501   0.41419   0.00000  Uiso   1.00
C160   C     0.86469   0.58446   0.47634   0.00000  Uiso   1.00
C161   C     0.92762   0.59313   0.46802   0.00000  Uiso   1.00
H162   H     0.77375   0.48827   0.23257   0.00000  Uiso   1.00
H163   H     0.73553   0.32214   0.23400   0.00000  Uiso   1.00
H164   H     0.69036   0.60906   0.15961   0.00000  Uiso   1.00
H165   H     0.89874   0.52803   0.28505   0.00000  Uiso   1.00
H166   H     0.68778   0.14681   0.26558   0.00000  Uiso   1.00
H167   H     0.59256   0.75183   0.10873   0.00000  Uiso   1.00
H168   H     0.03198   0.58098   0.37325   0.00000  Uiso   1.00
H169   H     0.73257   0.55648   0.46382   0.00000  Uiso   1.00
H170   H     0.69208   0.39409   0.47794   0.00000  Uiso   1.00
H171   H     0.64691   0.68102   0.40355   0.00000  Uiso   1.00
H172   H     0.85530   0.59999   0.52899   0.00000  Uiso   1.00
H173   H     0.65252   0.20522   0.46357   0.00000  Uiso   1.00
H174   H     0.55730   0.81024   0.30672   0.00000  Uiso   1.00
H175   H     0.99671   0.63938   0.57123   0.00000  Uiso   1.00
O176   O     0.64424   0.06797   0.36968   0.00000  Uiso   1.00
O177   O     0.51933   0.86174   0.16390   0.00000  Uiso   1.00
O178   O     0.09582   0.63757   0.51094   0.00000  Uiso   1.00
N179   N     0.68505   0.18284   0.31025   0.00000  Uiso   1.00
N180   N     0.59602   0.74849   0.16360   0.00000  Uiso   1.00
N181   N     0.00683   0.58877   0.41089   0.00000  Uiso   1.00
N182   N     0.66607   0.21426   0.41679   0.00000  Uiso   1.00
N183   N     0.57704   0.77991   0.27014   0.00000  Uiso   1.00
N184   N     0.98785   0.62020   0.51743   0.00000  Uiso   1.00
C185   C     0.26432   0.99611   0.78556   0.00000  Uiso   1.00
C186   C     0.23785   0.07692   0.81840   0.00000  Uiso   1.00
C187   C     0.22615   0.16236   0.78667   0.00000  Uiso   1.00
C188   C     0.20187   0.22710   0.82544   0.00000  Uiso   1.00
C189   C     0.16257   0.35561   0.86608   0.00000  Uiso   1.00
C190   C     0.21330   0.92103   0.77798   0.00000  Uiso   1.00
C191   C     0.18097   0.87539   0.71226   0.00000  Uiso   1.00
C192   C     0.13603   0.80890   0.71701   0.00000  Uiso   1.00
C193   C     0.05866   0.69534   0.69490   0.00000  Uiso   1.00
C194   C     0.32652   0.96506   0.84614   0.00000  Uiso   1.00
C195   C     0.38938   0.95642   0.83772   0.00000  Uiso   1.00
C196   C     0.43977   0.92698   0.89985   0.00000  Uiso   1.00
C197   C     0.53819   0.88179   0.98356   0.00000  Uiso   1.00
C198   C     0.24201   0.95915   0.91084   0.00000  Uiso   1.00
C199   C     0.22572   0.05684   0.88645   0.00000  Uiso   1.00
C200   C     0.20146   0.12147   0.92528   0.00000  Uiso   1.00
C201   C     0.18973   0.20699   0.89362   0.00000  Uiso   1.00
C202   C     0.20118   0.90095   0.84603   0.00000  Uiso   1.00
C203   C     0.15628   0.83450   0.85088   0.00000  Uiso   1.00
C204   C     0.12389   0.78879   0.78518   0.00000  Uiso   1.00
C205   C     0.31440   0.94499   0.91419   0.00000  Uiso   1.00
C206   C     0.36469   0.91554   0.97634   0.00000  Uiso   1.00
C207   C     0.42762   0.90687   0.96802   0.00000  Uiso   1.00
H208   H     0.27375   0.01173   0.73257   0.00000  Uiso   1.00
H209   H     0.23553   0.17786   0.73400   0.00000  Uiso   1.00
H210   H     0.19036   0.89094   0.65961   0.00000  Uiso   1.00
H211   H     0.39874   0.97197   0.78505   0.00000  Uiso   1.00
H212   H     0.18778   0.35319   0.76558   0.00000  Uiso   1.00
H213   H     0.09256   0.74817   0.60873   0.00000  Uiso   1.00
H214   H     0.53198   0.91902   0.87325   0.00000  Uiso   1.00
H215   H     0.23257   0.94352   0.96382   0.00000  Uiso   1.00
H216   H     0.19208   0.10591   0.97794   0.00000  Uiso   1.00
H217   H     0.14691   0.81898   0.90355   0.00000  Uiso   1.00
H218   H     0.35530   0.90001   0.02899   0.00000  Uiso   1.00
H219   H     0.15252   0.29478   0.96357   0.00000  Uiso   1.00
H220   H     0.05730   0.68976   0.80672   0.00000  Uiso   1.00
H221   H     0.49671   0.86062   0.07123   0.00000  Uiso   1.00
O222   O     0.14424   0.43203   0.86968   0.00000  Uiso   1.00
O223   O     0.01933   0.63826   0.66390   0.00000  Uiso   1.00
O224   O     0.59582   0.86243   0.01094   0.00000  Uiso   1.00
N225   N     0.18505   0.31716   0.81025   0.00000  Uiso   1.00
N226   N     0.09602   0.75151   0.66360   0.00000  Uiso   1.00
N227   N     0.50683   0.91123   0.91089   0.00000  Uiso   1.00
N228   N     0.16607   0.28574   0.91679   0.00000  Uiso   1.00
N229   N     0.07704   0.72009   0.77014   0.00000  Uiso   1.00
N230   N     0.48785   0.87980   0.01743   0.00000  Uiso   1.00
C231   C     0.76432   0.49611   0.78556   0.00000  Uiso   1.00
C232   C     0.73785   0.57692   0.81840   0.00000  Uiso   1.00
C233   C     0.72615   0.66236   0.78667   0.00000  Uiso   1.00
C234   C     0.70187   0.72710   0.82544   0.00000  Uiso   1.00
C235   C     0.66257   0.85561   0.86608   0.00000  Uiso   1.00
C236   C     0.71330   0.42103   0.77798   0.00000  Uiso   1.00
C237   C     0.68097   0.37539   0.71226   0.00000  Uiso   1.00
C238   C     0.63603   0.30890   0.71701   0.00000  Uiso   1.00
C239   C     0.55866   0.19534   0.69490   0.00000  Uiso   1.00
C240   C     0.82652   0.46506   0.84614   0.00000  Uiso   1.00
C241   C     0.88938   0.45642   0.83772   0.00000  Uiso   1.00
C242   C     0.93977   0.42698   0.89985   0.00000  Uiso   1.00
C243   C     0.03819   0.38179   0.98356   0.00000  Uiso   1.00
C244   C     0.74201   0.45915   0.91084   0.00000  Uiso   1.00
C245   C     0.72572   0.55684   0.88645   0.00000  Uiso   1.00
C246   C     0.70146   0.62147   0.92528   0.00000  Uiso   1.00
C247   C     0.68973   0.70699   0.89362   0.00000  Uiso   1.00
C248   C     0.70118   0.40095   0.84603   0.00000  Uiso   1.00
C249   C     0.65628   0.33450   0.85088   0.00000  Uiso   1.00
C250   C     0.62389   0.28879   0.78518   0.00000  Uiso   1.00
C251   C     0.81440   0.44499   0.91419   0.00000  Uiso   1.00
C252   C     0.86469   0.41554   0.97634   0.00000  Uiso   1.00
C253   C     0.92762   0.40687   0.96802   0.00000  Uiso   1.00
H254   H     0.77375   0.51173   0.73257   0.00000  Uiso   1.00
H255   H     0.73553   0.67786   0.73400   0.00000  Uiso   1.00
H256   H     0.69036   0.39094   0.65961   0.00000  Uiso   1.00
H257   H     0.89874   0.47197   0.78505   0.00000  Uiso   1.00
H258   H     0.68778   0.85319   0.76558   0.00000  Uiso   1.00
H259   H     0.59256   0.24817   0.60873   0.00000  Uiso   1.00
H260   H     0.03198   0.41902   0.87325   0.00000  Uiso   1.00
H261   H     0.73257   0.44352   0.96382   0.00000  Uiso   1.00
H262   H     0.69208   0.60591   0.97794   0.00000  Uiso   1.00
H263   H     0.64691   0.31898   0.90355   0.00000  Uiso   1.00
H264   H     0.85530   0.40001   0.02899   0.00000  Uiso   1.00
H265   H     0.65252   0.79478   0.96357   0.00000  Uiso   1.00
H266   H     0.55730   0.18976   0.80672   0.00000  Uiso   1.00
H267   H     0.99671   0.36062   0.07123   0.00000  Uiso   1.00
O268   O     0.64424   0.93203   0.86968   0.00000  Uiso   1.00
O269   O     0.51933   0.13826   0.66390   0.00000  Uiso   1.00
O270   O     0.09582   0.36243   0.01094   0.00000  Uiso   1.00
N271   N     0.68505   0.81716   0.81025   0.00000  Uiso   1.00
N272   N     0.59602   0.25151   0.66360   0.00000  Uiso   1.00
N273   N     0.00683   0.41123   0.91089   0.00000  Uiso   1.00
N274   N     0.66607   0.78574   0.91679   0.00000  Uiso   1.00
N275   N     0.57704   0.22009   0.77014   0.00000  Uiso   1.00
N276   N     0.98785   0.37980   0.01743   0.00000  Uiso   1.00
C277   C     0.73568   0.99611   0.71444   0.00000  Uiso   1.00
C278   C     0.76215   0.07692   0.68160   0.00000  Uiso   1.00
C279   C     0.77385   0.16236   0.71333   0.00000  Uiso   1.00
C280   C     0.79813   0.22710   0.67456   0.00000  Uiso   1.00
C281   C     0.83743   0.35561   0.63392   0.00000  Uiso   1.00
C282   C     0.78670   0.92103   0.72202   0.00000  Uiso   1.00
C283   C     0.81903   0.87539   0.78774   0.00000  Uiso   1.00
C284   C     0.86397   0.80890   0.78299   0.00000  Uiso   1.00
C285   C     0.94134   0.69534   0.80510   0.00000  Uiso   1.00
C286   C     0.67348   0.96506   0.65386   0.00000  Uiso   1.00
C287   C     0.61062   0.95642   0.66228   0.00000  Uiso   1.00
C288   C     0.56023   0.92698   0.60015   0.00000  Uiso   1.00
C289   C     0.46181   0.88179   0.51644   0.00000  Uiso   1.00
C290   C     0.75799   0.95915   0.58916   0.00000  Uiso   1.00
C291   C     0.77428   0.05684   0.61355   0.00000  Uiso   1.00
C292   C     0.79854   0.12147   0.57472   0.00000  Uiso   1.00
C293   C     0.81027   0.20699   0.60638   0.00000  Uiso   1.00
C294   C     0.79882   0.90095   0.65397   0.00000  Uiso   1.00
C295   C     0.84372   0.83450   0.64912   0.00000  Uiso   1.00
C296   C     0.87611   0.78879   0.71482   0.00000  Uiso   1.00
C297   C     0.68560   0.94499   0.58581   0.00000  Uiso   1.00
C298   C     0.63531   0.91554   0.52366   0.00000  Uiso   1.00
C299   C     0.57238   0.90687   0.53198   0.00000  Uiso   1.00
H300   H     0.72625   0.01173   0.76743   0.00000  Uiso   1.00
H301   H     0.76447   0.17786   0.76600   0.00000  Uiso   1.00
H302   H     0.80964   0.89094   0.84039   0.00000  Uiso   1.00
H303   H     0.60126   0.97197   0.71495   0.00000  Uiso   1.00
H304   H     0.81222   0.35319   0.73442   0.00000  Uiso   1.00
H305   H     0.90744   0.74817   0.89127   0.00000  Uiso   1.00
H306   H     0.46802   0.91902   0.62675   0.00000  Uiso   1.00
H307   H     0.76743   0.94352   0.53618   0.00000  Uiso   1.00
H308   H     0.80792   0.10591   0.52206   0.00000  Uiso   1.00
H309   H     0.85309   0.81898   0.59645   0.00000  Uiso   1.00
H310   H     0.64470   0.90001   0.47101   0.00000  Uiso   1.00
H311   H     0.84748   0.29478   0.53643   0.00000  Uiso   1.00
H312   H     0.94270   0.68976   0.69328   0.00000  Uiso   1.00
H313   H     0.50329   0.86062   0.42877   0.00000  Uiso   1.00
O314   O     0.85576   0.43203   0.63032   0.00000  Uiso   1.00
O315   O     0.98067   0.63826   0.83610   0.00000  Uiso   1.00
O316   O     0.40418   0.86243   0.48906   0.00000  Uiso   1.00
N317   N     0.81495   0.31716   0.68975   0.00000  Uiso   1.00
N318   N     0.90398   0.75151   0.83640   0.00000  Uiso   1.00
N319   N     0.49317   0.91123   0.58911   0.00000  Uiso   1.00
N320   N     0.83393   0.28574   0.58321   0.00000  Uiso   1.00
N321   N     0.92296   0.72009   0.72986   0.00000  Uiso   1.00
N322   N     0.51215   0.87980   0.48257   0.00000  Uiso   1.00
C323   C     0.23568   0.49611   0.71444   0.00000  Uiso   1.00
C324   C     0.26215   0.57692   0.68160   0.00000  Uiso   1.00
C325   C     0.27385   0.66236   0.71333   0.00000  Uiso   1.00
C326   C     0.29813   0.72710   0.67456   0.00000  Uiso   1.00
C327   C     0.33743   0.85561   0.63392   0.00000  Uiso   1.00
C328   C     0.28670   0.42103   0.72202   0.00000  Uiso   1.00
C329   C     0.31903   0.37539   0.78774   0.00000  Uiso   1.00
C330   C     0.36397   0.30890   0.78299   0.00000  Uiso   1.00
C331   C     0.44134   0.19534   0.80510   0.00000  Uiso   1.00
C332   C     0.17348   0.46506   0.65386   0.00000  Uiso   1.00
C333   C     0.11062   0.45642   0.66228   0.00000  Uiso   1.00
C334   C     0.06023   0.42698   0.60015   0.00000  Uiso   1.00
C335   C     0.96181   0.38179   0.51644   0.00000  Uiso   1.00
C336   C     0.25799   0.45915   0.58916   0.00000  Uiso   1.00
C337   C     0.27428   0.55684   0.61355   0.00000  Uiso   1.00
C338   C     0.29854   0.62147   0.57472   0.00000  Uiso   1.00
C339   C     0.31027   0.70699   0.60638   0.00000  Uiso   1.00
C340   C     0.29882   0.40095   0.65397   0.00000  Uiso   1.00
C341   C     0.34372   0.33450   0.64912   0.00000  Uiso   1.00
C342   C     0.37611   0.28879   0.71482   0.00000  Uiso   1.00
C343   C     0.18560   0.44499   0.58581   0.00000  Uiso   1.00
C344   C     0.13531   0.41554   0.52366   0.00000  Uiso   1.00
C345   C     0.07238   0.40687   0.53198   0.00000  Uiso   1.00
H346   H     0.22625   0.51173   0.76743   0.00000  Uiso   1.00
H347   H     0.26447   0.67786   0.76600   0.00000  Uiso   1.00
H348   H     0.30964   0.39094   0.84039   0.00000  Uiso   1.00
H349   H     0.10126   0.47197   0.71495   0.00000  Uiso   1.00
H350   H     0.31222   0.85319   0.73442   0.00000  Uiso   1.00
H351   H     0.40744   0.24817   0.89127   0.00000  Uiso   1.00
H352   H     0.96802   0.41902   0.62675   0.00000  Uiso   1.00
H353   H     0.26743   0.44352   0.53618   0.00000  Uiso   1.00
H354   H     0.30792   0.60591   0.52206   0.00000  Uiso   1.00
H355   H     0.35309   0.31898   0.59645   0.00000  Uiso   1.00
H356   H     0.14470   0.40001   0.47101   0.00000  Uiso   1.00
H357   H     0.34748   0.79478   0.53643   0.00000  Uiso   1.00
H358   H     0.44270   0.18976   0.69328   0.00000  Uiso   1.00
H359   H     0.00329   0.36062   0.42877   0.00000  Uiso   1.00
O360   O     0.35576   0.93203   0.63032   0.00000  Uiso   1.00
O361   O     0.48067   0.13826   0.83610   0.00000  Uiso   1.00
O362   O     0.90418   0.36243   0.48906   0.00000  Uiso   1.00
N363   N     0.31495   0.81716   0.68975   0.00000  Uiso   1.00
N364   N     0.40398   0.25151   0.83640   0.00000  Uiso   1.00
N365   N     0.99317   0.41123   0.58911   0.00000  Uiso   1.00
N366   N     0.33393   0.78574   0.58321   0.00000  Uiso   1.00
N367   N     0.42296   0.22009   0.72986   0.00000  Uiso   1.00
N368   N     0.01215   0.37980   0.48257   0.00000  Uiso   1.00
