data_job_04352
_audit_creation_date              2018-12-19
_audit_creation_method            'Materials Studio'
_symmetry_space_group_name_H-M    'P1'
_symmetry_Int_Tables_number       1
_symmetry_cell_setting            triclinic
loop_
_symmetry_equiv_pos_as_xyz
  x,y,z
_cell_length_a                    18.5122
_cell_length_b                    26.9017
_cell_length_c                    12.3721
_cell_angle_alpha                 90.0000
_cell_angle_beta                  131.9437
_cell_angle_gamma                 90.0000
loop_
_atom_site_label
_atom_site_type_symbol
_atom_site_fract_x
_atom_site_fract_y
_atom_site_fract_z
_atom_site_U_iso_or_equiv
_atom_site_adp_type
_atom_site_occupancy
C1     C     0.08559   0.61356   0.43763   0.00000  Uiso   1.00
C2     C     0.15193   0.64257   0.42806   0.00000  Uiso   1.00
C3     C     0.12309   0.66702   0.30582   0.00000  Uiso   1.00
C4     C     0.19480   0.69142   0.31916   0.00000  Uiso   1.00
C5     C     0.28306   0.73645   0.28435   0.00000  Uiso   1.00
C6     C     0.12824   0.56135   0.48740   0.00000  Uiso   1.00
C7     C     0.07946   0.51752   0.41506   0.00000  Uiso   1.00
C8     C     0.13124   0.47355   0.47837   0.00000  Uiso   1.00
C9     C     0.18268   0.39249   0.53575   0.00000  Uiso   1.00
C10    C     0.09904   0.63666   0.56264   0.00000  Uiso   1.00
C11    C     0.02572   0.65613   0.55358   0.00000  Uiso   1.00
C12    C     0.05291   0.67555   0.68025   0.00000  Uiso   1.00
C13    C     0.05902   0.71141   0.85445   0.00000  Uiso   1.00
C14    C     0.26425   0.61340   0.67872   0.00000  Uiso   1.00
C15    C     0.24897   0.64248   0.55901   0.00000  Uiso   1.00
C16    C     0.32075   0.66685   0.57255   0.00000  Uiso   1.00
C17    C     0.29202   0.69134   0.45034   0.00000  Uiso   1.00
C18    C     0.22527   0.56126   0.61834   0.00000  Uiso   1.00
C19    C     0.27713   0.51735   0.68178   0.00000  Uiso   1.00
C20    C     0.22845   0.47346   0.60955   0.00000  Uiso   1.00
C21    C     0.19608   0.63657   0.69359   0.00000  Uiso   1.00
C22    C     0.22338   0.65596   0.82030   0.00000  Uiso   1.00
C23    C     0.15012   0.67546   0.81143   0.00000  Uiso   1.00
H24    H     0.01005   0.61363   0.33569   0.00000  Uiso   1.00
H25    H     0.04798   0.66708   0.20449   0.00000  Uiso   1.00
H26    H     0.00437   0.51760   0.31373   0.00000  Uiso   1.00
H27    H     0.95063   0.65619   0.45223   0.00000  Uiso   1.00
H28    H     0.13285   0.72629   0.11677   0.00000  Uiso   1.00
H29    H     0.04087   0.41111   0.34713   0.00000  Uiso   1.00
H30    H     0.92756   0.70335   0.63917   0.00000  Uiso   1.00
H31    H     0.33980   0.61333   0.78067   0.00000  Uiso   1.00
H32    H     0.39584   0.66677   0.67389   0.00000  Uiso   1.00
H33    H     0.35222   0.51729   0.78312   0.00000  Uiso   1.00
H34    H     0.29849   0.65588   0.92162   0.00000  Uiso   1.00
H35    H     0.41518   0.72603   0.49775   0.00000  Uiso   1.00
H36    H     0.32320   0.41085   0.72811   0.00000  Uiso   1.00
H37    H     0.20989   0.70310   0.02015   0.00000  Uiso   1.00
O38    O     0.30493   0.76130   0.22898   0.00000  Uiso   1.00
O39    O     0.18425   0.34780   0.53120   0.00000  Uiso   1.00
O40    O     0.03559   0.73122   0.91436   0.00000  Uiso   1.00
N41    N     0.19160   0.71890   0.22110   0.00000  Uiso   1.00
N42    N     0.10561   0.42423   0.43645   0.00000  Uiso   1.00
N43    N     0.99967   0.69744   0.70950   0.00000  Uiso   1.00
N44    N     0.34352   0.71877   0.42610   0.00000  Uiso   1.00
N45    N     0.25753   0.42409   0.64145   0.00000  Uiso   1.00
N46    N     0.15159   0.69730   0.91450   0.00000  Uiso   1.00
C47    C     0.23578   0.38659   0.15024   0.00000  Uiso   1.00
C48    C     0.30395   0.36342   0.30147   0.00000  Uiso   1.00
C49    C     0.27664   0.34402   0.37355   0.00000  Uiso   1.00
C50    C     0.34990   0.32450   0.51120   0.00000  Uiso   1.00
C51    C     0.44100   0.28855   0.73643   0.00000  Uiso   1.00
C52    C     0.27477   0.43873   0.16786   0.00000  Uiso   1.00
C53    C     0.22293   0.48265   0.12759   0.00000  Uiso   1.00
C54    C     0.27163   0.52653   0.15275   0.00000  Uiso   1.00
C55    C     0.31740   0.60750   0.17046   0.00000  Uiso   1.00
C56    C     0.25105   0.35752   0.06108   0.00000  Uiso   1.00
C57    C     0.17925   0.33317   0.93101   0.00000  Uiso   1.00
C58    C     0.20797   0.30869   0.86625   0.00000  Uiso   1.00
C59    C     0.21691   0.26357   0.71816   0.00000  Uiso   1.00
C60    C     0.41443   0.38642   0.26650   0.00000  Uiso   1.00
C61    C     0.40099   0.36333   0.36461   0.00000  Uiso   1.00
C62    C     0.47430   0.34383   0.50218   0.00000  Uiso   1.00
C63    C     0.44711   0.32440   0.57446   0.00000  Uiso   1.00
C64    C     0.37181   0.43864   0.23100   0.00000  Uiso   1.00
C65    C     0.42059   0.48246   0.25622   0.00000  Uiso   1.00
C66    C     0.36884   0.52644   0.21601   0.00000  Uiso   1.00
C67    C     0.34808   0.35743   0.12423   0.00000  Uiso   1.00
C68    C     0.37691   0.33298   0.05964   0.00000  Uiso   1.00
C69    C     0.30518   0.30860   0.92950   0.00000  Uiso   1.00
H70    H     0.16023   0.38667   0.10108   0.00000  Uiso   1.00
H71    H     0.20154   0.34410   0.32465   0.00000  Uiso   1.00
H72    H     0.14783   0.48271   0.07871   0.00000  Uiso   1.00
H73    H     0.10417   0.33325   0.88218   0.00000  Uiso   1.00
H74    H     0.29014   0.29688   0.60040   0.00000  Uiso   1.00
H75    H     0.17689   0.58914   0.08178   0.00000  Uiso   1.00
H76    H     0.08480   0.27399   0.66732   0.00000  Uiso   1.00
H77    H     0.48998   0.38635   0.31566   0.00000  Uiso   1.00
H78    H     0.54939   0.34376   0.55102   0.00000  Uiso   1.00
H79    H     0.49568   0.48237   0.30508   0.00000  Uiso   1.00
H80    H     0.45201   0.33292   0.10854   0.00000  Uiso   1.00
H81    H     0.57247   0.29661   0.78413   0.00000  Uiso   1.00
H82    H     0.45921   0.58887   0.26549   0.00000  Uiso   1.00
H83    H     0.36713   0.27371   0.85105   0.00000  Uiso   1.00
O84    O     0.46444   0.26875   0.84323   0.00000  Uiso   1.00
O85    O     0.31584   0.65219   0.16279   0.00000  Uiso   1.00
O86    O     0.19503   0.23870   0.61905   0.00000  Uiso   1.00
N87    N     0.34843   0.30265   0.61133   0.00000  Uiso   1.00
N88    N     0.24255   0.57590   0.12647   0.00000  Uiso   1.00
N89    N     0.15645   0.28127   0.73897   0.00000  Uiso   1.00
N90    N     0.50035   0.30251   0.71019   0.00000  Uiso   1.00
N91    N     0.39446   0.57576   0.22533   0.00000  Uiso   1.00
N92    N     0.30837   0.28112   0.83783   0.00000  Uiso   1.00
C93    C     0.91441   0.11356   0.06237   0.00000  Uiso   1.00
C94    C     0.84807   0.14257   0.07194   0.00000  Uiso   1.00
C95    C     0.87691   0.16702   0.19418   0.00000  Uiso   1.00
C96    C     0.80520   0.19142   0.18084   0.00000  Uiso   1.00
C97    C     0.71694   0.23645   0.21565   0.00000  Uiso   1.00
C98    C     0.87176   0.06135   0.01260   0.00000  Uiso   1.00
C99    C     0.92054   0.01752   0.08494   0.00000  Uiso   1.00
C100   C     0.86876   0.97355   0.02163   0.00000  Uiso   1.00
C101   C     0.81732   0.89249   0.96425   0.00000  Uiso   1.00
C102   C     0.90096   0.13666   0.93736   0.00000  Uiso   1.00
C103   C     0.97428   0.15613   0.94642   0.00000  Uiso   1.00
C104   C     0.94709   0.17555   0.81975   0.00000  Uiso   1.00
C105   C     0.94098   0.21141   0.64555   0.00000  Uiso   1.00
C106   C     0.73575   0.11340   0.82128   0.00000  Uiso   1.00
C107   C     0.75103   0.14248   0.94099   0.00000  Uiso   1.00
C108   C     0.67925   0.16685   0.92745   0.00000  Uiso   1.00
C109   C     0.70798   0.19134   0.04966   0.00000  Uiso   1.00
C110   C     0.77473   0.06126   0.88166   0.00000  Uiso   1.00
C111   C     0.72287   0.01735   0.81822   0.00000  Uiso   1.00
C112   C     0.77155   0.97346   0.89045   0.00000  Uiso   1.00
C113   C     0.80392   0.13657   0.80641   0.00000  Uiso   1.00
C114   C     0.77662   0.15596   0.67970   0.00000  Uiso   1.00
C115   C     0.84988   0.17546   0.68857   0.00000  Uiso   1.00
H116   H     0.98995   0.11363   0.16431   0.00000  Uiso   1.00
H117   H     0.95202   0.16708   0.29551   0.00000  Uiso   1.00
H118   H     0.99563   0.01760   0.18627   0.00000  Uiso   1.00
H119   H     0.04937   0.15619   0.04777   0.00000  Uiso   1.00
H120   H     0.86715   0.22629   0.38323   0.00000  Uiso   1.00
H121   H     0.95913   0.91111   0.15287   0.00000  Uiso   1.00
H122   H     0.07244   0.20335   0.86083   0.00000  Uiso   1.00
H123   H     0.66020   0.11333   0.71933   0.00000  Uiso   1.00
H124   H     0.60416   0.16677   0.82611   0.00000  Uiso   1.00
H125   H     0.64778   0.01729   0.71688   0.00000  Uiso   1.00
H126   H     0.70151   0.15588   0.57838   0.00000  Uiso   1.00
H127   H     0.58482   0.22603   0.00225   0.00000  Uiso   1.00
H128   H     0.67680   0.91085   0.77189   0.00000  Uiso   1.00
H129   H     0.79011   0.20310   0.47985   0.00000  Uiso   1.00
O130   O     0.69507   0.26130   0.27102   0.00000  Uiso   1.00
O131   O     0.81575   0.84780   0.96880   0.00000  Uiso   1.00
O132   O     0.96441   0.23122   0.58564   0.00000  Uiso   1.00
N133   N     0.80840   0.21890   0.27890   0.00000  Uiso   1.00
N134   N     0.89439   0.92423   0.06355   0.00000  Uiso   1.00
N135   N     0.00033   0.19744   0.79050   0.00000  Uiso   1.00
N136   N     0.65648   0.21877   0.07390   0.00000  Uiso   1.00
N137   N     0.74247   0.92409   0.85855   0.00000  Uiso   1.00
N138   N     0.84841   0.19730   0.58550   0.00000  Uiso   1.00
C139   C     0.76422   0.88659   0.34976   0.00000  Uiso   1.00
C140   C     0.69605   0.86342   0.19853   0.00000  Uiso   1.00
C141   C     0.72336   0.84402   0.12645   0.00000  Uiso   1.00
C142   C     0.65010   0.82450   0.98880   0.00000  Uiso   1.00
C143   C     0.55900   0.78855   0.76357   0.00000  Uiso   1.00
C144   C     0.72523   0.93873   0.33214   0.00000  Uiso   1.00
C145   C     0.77707   0.98265   0.37241   0.00000  Uiso   1.00
C146   C     0.72837   0.02653   0.34725   0.00000  Uiso   1.00
C147   C     0.68260   0.10750   0.32954   0.00000  Uiso   1.00
C148   C     0.74895   0.85752   0.43892   0.00000  Uiso   1.00
C149   C     0.82075   0.83317   0.56899   0.00000  Uiso   1.00
C150   C     0.79203   0.80869   0.63375   0.00000  Uiso   1.00
C151   C     0.78309   0.76357   0.78184   0.00000  Uiso   1.00
C152   C     0.58557   0.88642   0.23350   0.00000  Uiso   1.00
C153   C     0.59901   0.86333   0.13539   0.00000  Uiso   1.00
C154   C     0.52570   0.84383   0.99782   0.00000  Uiso   1.00
C155   C     0.55289   0.82440   0.92554   0.00000  Uiso   1.00
C156   C     0.62819   0.93864   0.26900   0.00000  Uiso   1.00
C157   C     0.57941   0.98246   0.24378   0.00000  Uiso   1.00
C158   C     0.63116   0.02644   0.28399   0.00000  Uiso   1.00
C159   C     0.65192   0.85743   0.37577   0.00000  Uiso   1.00
C160   C     0.62309   0.83298   0.44036   0.00000  Uiso   1.00
C161   C     0.69482   0.80860   0.57050   0.00000  Uiso   1.00
H162   H     0.83977   0.88667   0.39892   0.00000  Uiso   1.00
H163   H     0.79846   0.84410   0.17535   0.00000  Uiso   1.00
H164   H     0.85217   0.98271   0.42129   0.00000  Uiso   1.00
H165   H     0.89583   0.83325   0.61782   0.00000  Uiso   1.00
H166   H     0.70986   0.79688   0.89960   0.00000  Uiso   1.00
H167   H     0.82311   0.08914   0.41822   0.00000  Uiso   1.00
H168   H     0.91520   0.77399   0.83268   0.00000  Uiso   1.00
H169   H     0.51002   0.88635   0.18434   0.00000  Uiso   1.00
H170   H     0.45061   0.84376   0.94898   0.00000  Uiso   1.00
H171   H     0.50432   0.98237   0.19492   0.00000  Uiso   1.00
H172   H     0.54799   0.83292   0.39146   0.00000  Uiso   1.00
H173   H     0.42753   0.79661   0.71587   0.00000  Uiso   1.00
H174   H     0.54079   0.08887   0.23451   0.00000  Uiso   1.00
H175   H     0.63287   0.77371   0.64895   0.00000  Uiso   1.00
O176   O     0.53556   0.76875   0.65677   0.00000  Uiso   1.00
O177   O     0.68416   0.15219   0.33721   0.00000  Uiso   1.00
O178   O     0.80497   0.73870   0.88095   0.00000  Uiso   1.00
N179   N     0.65157   0.80265   0.88867   0.00000  Uiso   1.00
N180   N     0.75745   0.07590   0.37353   0.00000  Uiso   1.00
N181   N     0.84355   0.78127   0.76103   0.00000  Uiso   1.00
N182   N     0.49965   0.80251   0.78981   0.00000  Uiso   1.00
N183   N     0.60554   0.07576   0.27467   0.00000  Uiso   1.00
N184   N     0.69163   0.78112   0.66217   0.00000  Uiso   1.00
C185   C     0.91441   0.38644   0.56237   0.00000  Uiso   1.00
C186   C     0.84807   0.35743   0.57194   0.00000  Uiso   1.00
C187   C     0.87691   0.33298   0.69418   0.00000  Uiso   1.00
C188   C     0.80520   0.30858   0.68084   0.00000  Uiso   1.00
C189   C     0.71694   0.26355   0.71565   0.00000  Uiso   1.00
C190   C     0.87176   0.43865   0.51260   0.00000  Uiso   1.00
C191   C     0.92054   0.48248   0.58494   0.00000  Uiso   1.00
C192   C     0.86876   0.52645   0.52163   0.00000  Uiso   1.00
C193   C     0.81732   0.60751   0.46425   0.00000  Uiso   1.00
C194   C     0.90096   0.36334   0.43736   0.00000  Uiso   1.00
C195   C     0.97428   0.34387   0.44642   0.00000  Uiso   1.00
C196   C     0.94709   0.32445   0.31975   0.00000  Uiso   1.00
C197   C     0.94098   0.28859   0.14555   0.00000  Uiso   1.00
C198   C     0.73575   0.38660   0.32128   0.00000  Uiso   1.00
C199   C     0.75103   0.35752   0.44099   0.00000  Uiso   1.00
C200   C     0.67925   0.33315   0.42745   0.00000  Uiso   1.00
C201   C     0.70798   0.30866   0.54966   0.00000  Uiso   1.00
C202   C     0.77473   0.43874   0.38166   0.00000  Uiso   1.00
C203   C     0.72287   0.48265   0.31822   0.00000  Uiso   1.00
C204   C     0.77155   0.52654   0.39045   0.00000  Uiso   1.00
C205   C     0.80392   0.36343   0.30641   0.00000  Uiso   1.00
C206   C     0.77662   0.34404   0.17970   0.00000  Uiso   1.00
C207   C     0.84988   0.32454   0.18857   0.00000  Uiso   1.00
H208   H     0.98995   0.38637   0.66431   0.00000  Uiso   1.00
H209   H     0.95202   0.33292   0.79551   0.00000  Uiso   1.00
H210   H     0.99563   0.48240   0.68627   0.00000  Uiso   1.00
H211   H     0.04937   0.34381   0.54777   0.00000  Uiso   1.00
H212   H     0.86715   0.27371   0.88323   0.00000  Uiso   1.00
H213   H     0.95913   0.58889   0.65287   0.00000  Uiso   1.00
H214   H     0.07244   0.29665   0.36083   0.00000  Uiso   1.00
H215   H     0.66020   0.38667   0.21933   0.00000  Uiso   1.00
H216   H     0.60416   0.33323   0.32611   0.00000  Uiso   1.00
H217   H     0.64778   0.48271   0.21688   0.00000  Uiso   1.00
H218   H     0.70151   0.34412   0.07838   0.00000  Uiso   1.00
H219   H     0.58482   0.27397   0.50225   0.00000  Uiso   1.00
H220   H     0.67680   0.58915   0.27189   0.00000  Uiso   1.00
H221   H     0.79011   0.29690   0.97985   0.00000  Uiso   1.00
O222   O     0.69507   0.23870   0.77102   0.00000  Uiso   1.00
O223   O     0.81575   0.65220   0.46880   0.00000  Uiso   1.00
O224   O     0.96441   0.26878   0.08564   0.00000  Uiso   1.00
N225   N     0.80840   0.28110   0.77890   0.00000  Uiso   1.00
N226   N     0.89439   0.57577   0.56355   0.00000  Uiso   1.00
N227   N     0.00033   0.30256   0.29050   0.00000  Uiso   1.00
N228   N     0.65648   0.28123   0.57390   0.00000  Uiso   1.00
N229   N     0.74247   0.57591   0.35855   0.00000  Uiso   1.00
N230   N     0.84841   0.30270   0.08550   0.00000  Uiso   1.00
C231   C     0.76422   0.61341   0.84976   0.00000  Uiso   1.00
C232   C     0.69605   0.63658   0.69853   0.00000  Uiso   1.00
C233   C     0.72336   0.65598   0.62645   0.00000  Uiso   1.00
C234   C     0.65010   0.67550   0.48880   0.00000  Uiso   1.00
C235   C     0.55900   0.71145   0.26357   0.00000  Uiso   1.00
C236   C     0.72523   0.56127   0.83214   0.00000  Uiso   1.00
C237   C     0.77707   0.51735   0.87241   0.00000  Uiso   1.00
C238   C     0.72837   0.47347   0.84725   0.00000  Uiso   1.00
C239   C     0.68260   0.39250   0.82954   0.00000  Uiso   1.00
C240   C     0.74895   0.64248   0.93892   0.00000  Uiso   1.00
C241   C     0.82075   0.66683   0.06899   0.00000  Uiso   1.00
C242   C     0.79203   0.69131   0.13375   0.00000  Uiso   1.00
C243   C     0.78309   0.73643   0.28184   0.00000  Uiso   1.00
C244   C     0.58557   0.61358   0.73350   0.00000  Uiso   1.00
C245   C     0.59901   0.63667   0.63539   0.00000  Uiso   1.00
C246   C     0.52570   0.65617   0.49782   0.00000  Uiso   1.00
C247   C     0.55289   0.67560   0.42554   0.00000  Uiso   1.00
C248   C     0.62819   0.56136   0.76900   0.00000  Uiso   1.00
C249   C     0.57941   0.51754   0.74378   0.00000  Uiso   1.00
C250   C     0.63116   0.47356   0.78399   0.00000  Uiso   1.00
C251   C     0.65192   0.64257   0.87577   0.00000  Uiso   1.00
C252   C     0.62309   0.66702   0.94036   0.00000  Uiso   1.00
C253   C     0.69482   0.69140   0.07050   0.00000  Uiso   1.00
H254   H     0.83977   0.61333   0.89892   0.00000  Uiso   1.00
H255   H     0.79846   0.65590   0.67535   0.00000  Uiso   1.00
H256   H     0.85217   0.51729   0.92129   0.00000  Uiso   1.00
H257   H     0.89583   0.66675   0.11782   0.00000  Uiso   1.00
H258   H     0.70986   0.70312   0.39960   0.00000  Uiso   1.00
H259   H     0.82311   0.41086   0.91822   0.00000  Uiso   1.00
H260   H     0.91520   0.72601   0.33268   0.00000  Uiso   1.00
H261   H     0.51002   0.61365   0.68434   0.00000  Uiso   1.00
H262   H     0.45061   0.65624   0.44898   0.00000  Uiso   1.00
H263   H     0.50432   0.51763   0.69492   0.00000  Uiso   1.00
H264   H     0.54799   0.66708   0.89146   0.00000  Uiso   1.00
H265   H     0.42753   0.70339   0.21587   0.00000  Uiso   1.00
H266   H     0.54079   0.41113   0.73451   0.00000  Uiso   1.00
H267   H     0.63287   0.72629   0.14895   0.00000  Uiso   1.00
O268   O     0.53556   0.73125   0.15677   0.00000  Uiso   1.00
O269   O     0.68416   0.34781   0.83721   0.00000  Uiso   1.00
O270   O     0.80497   0.76130   0.38095   0.00000  Uiso   1.00
N271   N     0.65157   0.69735   0.38867   0.00000  Uiso   1.00
N272   N     0.75745   0.42410   0.87353   0.00000  Uiso   1.00
N273   N     0.84355   0.71873   0.26103   0.00000  Uiso   1.00
N274   N     0.49965   0.69749   0.28981   0.00000  Uiso   1.00
N275   N     0.60554   0.42424   0.77467   0.00000  Uiso   1.00
N276   N     0.69163   0.71888   0.16217   0.00000  Uiso   1.00
C277   C     0.08559   0.88644   0.93763   0.00000  Uiso   1.00
C278   C     0.15193   0.85743   0.92806   0.00000  Uiso   1.00
C279   C     0.12309   0.83298   0.80582   0.00000  Uiso   1.00
C280   C     0.19480   0.80858   0.81916   0.00000  Uiso   1.00
C281   C     0.28306   0.76355   0.78435   0.00000  Uiso   1.00
C282   C     0.12824   0.93865   0.98740   0.00000  Uiso   1.00
C283   C     0.07946   0.98248   0.91506   0.00000  Uiso   1.00
C284   C     0.13124   0.02645   0.97837   0.00000  Uiso   1.00
C285   C     0.18268   0.10751   0.03575   0.00000  Uiso   1.00
C286   C     0.09904   0.86334   0.06264   0.00000  Uiso   1.00
C287   C     0.02572   0.84387   0.05358   0.00000  Uiso   1.00
C288   C     0.05291   0.82445   0.18025   0.00000  Uiso   1.00
C289   C     0.05902   0.78859   0.35445   0.00000  Uiso   1.00
C290   C     0.26425   0.88660   0.17872   0.00000  Uiso   1.00
C291   C     0.24897   0.85752   0.05901   0.00000  Uiso   1.00
C292   C     0.32075   0.83315   0.07255   0.00000  Uiso   1.00
C293   C     0.29202   0.80866   0.95034   0.00000  Uiso   1.00
C294   C     0.22527   0.93874   0.11834   0.00000  Uiso   1.00
C295   C     0.27713   0.98265   0.18178   0.00000  Uiso   1.00
C296   C     0.22845   0.02654   0.10955   0.00000  Uiso   1.00
C297   C     0.19608   0.86343   0.19359   0.00000  Uiso   1.00
C298   C     0.22338   0.84404   0.32030   0.00000  Uiso   1.00
C299   C     0.15012   0.82454   0.31143   0.00000  Uiso   1.00
H300   H     0.01005   0.88637   0.83569   0.00000  Uiso   1.00
H301   H     0.04798   0.83292   0.70449   0.00000  Uiso   1.00
H302   H     0.00437   0.98240   0.81373   0.00000  Uiso   1.00
H303   H     0.95063   0.84381   0.95223   0.00000  Uiso   1.00
H304   H     0.13285   0.77371   0.61677   0.00000  Uiso   1.00
H305   H     0.04087   0.08889   0.84713   0.00000  Uiso   1.00
H306   H     0.92756   0.79665   0.13917   0.00000  Uiso   1.00
H307   H     0.33980   0.88667   0.28067   0.00000  Uiso   1.00
H308   H     0.39584   0.83323   0.17389   0.00000  Uiso   1.00
H309   H     0.35222   0.98271   0.28312   0.00000  Uiso   1.00
H310   H     0.29849   0.84412   0.42162   0.00000  Uiso   1.00
H311   H     0.41518   0.77397   0.99775   0.00000  Uiso   1.00
H312   H     0.32320   0.08915   0.22811   0.00000  Uiso   1.00
H313   H     0.20989   0.79690   0.52015   0.00000  Uiso   1.00
O314   O     0.30493   0.73870   0.72898   0.00000  Uiso   1.00
O315   O     0.18425   0.15220   0.03120   0.00000  Uiso   1.00
O316   O     0.03559   0.76878   0.41436   0.00000  Uiso   1.00
N317   N     0.19160   0.78110   0.72110   0.00000  Uiso   1.00
N318   N     0.10561   0.07577   0.93645   0.00000  Uiso   1.00
N319   N     0.99967   0.80256   0.20950   0.00000  Uiso   1.00
N320   N     0.34352   0.78123   0.92610   0.00000  Uiso   1.00
N321   N     0.25753   0.07591   0.14145   0.00000  Uiso   1.00
N322   N     0.15159   0.80270   0.41450   0.00000  Uiso   1.00
C323   C     0.23578   0.11341   0.65024   0.00000  Uiso   1.00
C324   C     0.30395   0.13658   0.80147   0.00000  Uiso   1.00
C325   C     0.27664   0.15598   0.87355   0.00000  Uiso   1.00
C326   C     0.34990   0.17550   0.01120   0.00000  Uiso   1.00
C327   C     0.44100   0.21145   0.23643   0.00000  Uiso   1.00
C328   C     0.27477   0.06127   0.66786   0.00000  Uiso   1.00
C329   C     0.22293   0.01735   0.62759   0.00000  Uiso   1.00
C330   C     0.27163   0.97347   0.65275   0.00000  Uiso   1.00
C331   C     0.31740   0.89250   0.67046   0.00000  Uiso   1.00
C332   C     0.25105   0.14248   0.56108   0.00000  Uiso   1.00
C333   C     0.17925   0.16683   0.43101   0.00000  Uiso   1.00
C334   C     0.20797   0.19131   0.36625   0.00000  Uiso   1.00
C335   C     0.21691   0.23643   0.21816   0.00000  Uiso   1.00
C336   C     0.41443   0.11358   0.76650   0.00000  Uiso   1.00
C337   C     0.40099   0.13667   0.86461   0.00000  Uiso   1.00
C338   C     0.47430   0.15617   0.00218   0.00000  Uiso   1.00
C339   C     0.44711   0.17560   0.07446   0.00000  Uiso   1.00
C340   C     0.37181   0.06136   0.73100   0.00000  Uiso   1.00
C341   C     0.42059   0.01754   0.75622   0.00000  Uiso   1.00
C342   C     0.36884   0.97356   0.71601   0.00000  Uiso   1.00
C343   C     0.34808   0.14257   0.62423   0.00000  Uiso   1.00
C344   C     0.37691   0.16702   0.55964   0.00000  Uiso   1.00
C345   C     0.30518   0.19140   0.42950   0.00000  Uiso   1.00
H346   H     0.16023   0.11333   0.60108   0.00000  Uiso   1.00
H347   H     0.20154   0.15590   0.82465   0.00000  Uiso   1.00
H348   H     0.14783   0.01729   0.57871   0.00000  Uiso   1.00
H349   H     0.10417   0.16675   0.38218   0.00000  Uiso   1.00
H350   H     0.29014   0.20312   0.10040   0.00000  Uiso   1.00
H351   H     0.17689   0.91086   0.58178   0.00000  Uiso   1.00
H352   H     0.08480   0.22601   0.16732   0.00000  Uiso   1.00
H353   H     0.48998   0.11365   0.81566   0.00000  Uiso   1.00
H354   H     0.54939   0.15624   0.05102   0.00000  Uiso   1.00
H355   H     0.49568   0.01763   0.80508   0.00000  Uiso   1.00
H356   H     0.45201   0.16708   0.60854   0.00000  Uiso   1.00
H357   H     0.57247   0.20339   0.28413   0.00000  Uiso   1.00
H358   H     0.45921   0.91113   0.76549   0.00000  Uiso   1.00
H359   H     0.36713   0.22629   0.35105   0.00000  Uiso   1.00
O360   O     0.46444   0.23125   0.34323   0.00000  Uiso   1.00
O361   O     0.31584   0.84781   0.66279   0.00000  Uiso   1.00
O362   O     0.19503   0.26130   0.11905   0.00000  Uiso   1.00
N363   N     0.34843   0.19735   0.11133   0.00000  Uiso   1.00
N364   N     0.24255   0.92410   0.62647   0.00000  Uiso   1.00
N365   N     0.15645   0.21873   0.23897   0.00000  Uiso   1.00
N366   N     0.50035   0.19749   0.21019   0.00000  Uiso   1.00
N367   N     0.39446   0.92424   0.72533   0.00000  Uiso   1.00
N368   N     0.30837   0.21888   0.33783   0.00000  Uiso   1.00
