data_job_01483
_audit_creation_date              2018-12-19
_audit_creation_method            'Materials Studio'
_symmetry_space_group_name_H-M    'P1'
_symmetry_Int_Tables_number       1
_symmetry_cell_setting            triclinic
loop_
_symmetry_equiv_pos_as_xyz
  x,y,z
_cell_length_a                    20.9344
_cell_length_b                    14.3048
_cell_length_c                    25.7362
_cell_angle_alpha                 90.0000
_cell_angle_beta                  140.4363
_cell_angle_gamma                 90.0000
loop_
_atom_site_label
_atom_site_type_symbol
_atom_site_fract_x
_atom_site_fract_y
_atom_site_fract_z
_atom_site_U_iso_or_equiv
_atom_site_adp_type
_atom_site_occupancy
C1     C     0.64435   0.45973   0.46955   0.00000  Uiso   1.00
C2     C     0.73088   0.48037   0.56082   0.00000  Uiso   1.00
C3     C     0.77007   0.41886   0.62182   0.00000  Uiso   1.00
C4     C     0.84919   0.45103   0.70160   0.00000  Uiso   1.00
C5     C     0.97766   0.46934   0.84057   0.00000  Uiso   1.00
C6     C     0.56607   0.53538   0.43035   0.00000  Uiso   1.00
C7     C     0.46669   0.52011   0.38165   0.00000  Uiso   1.00
C8     C     0.40708   0.59859   0.35160   0.00000  Uiso   1.00
C9     C     0.27966   0.70230   0.28796   0.00000  Uiso   1.00
C10    C     0.68463   0.47754   0.44025   0.00000  Uiso   1.00
C11    C     0.68492   0.41366   0.39984   0.00000  Uiso   1.00
C12    C     0.72511   0.44346   0.37811   0.00000  Uiso   1.00
C13    C     0.78177   0.45737   0.32984   0.00000  Uiso   1.00
C14    C     0.71517   0.62623   0.50277   0.00000  Uiso   1.00
C15    C     0.76934   0.57081   0.57886   0.00000  Uiso   1.00
C16    C     0.84842   0.60308   0.65857   0.00000  Uiso   1.00
C17    C     0.88773   0.54163   0.71968   0.00000  Uiso   1.00
C18    C     0.60453   0.62581   0.44839   0.00000  Uiso   1.00
C19    C     0.54504   0.70433   0.41840   0.00000  Uiso   1.00
C20    C     0.44561   0.68919   0.36967   0.00000  Uiso   1.00
C21    C     0.72310   0.56798   0.45829   0.00000  Uiso   1.00
C22    C     0.76328   0.59788   0.43661   0.00000  Uiso   1.00
C23    C     0.76364   0.53406   0.39618   0.00000  Uiso   1.00
H24    H     0.61440   0.38932   0.45550   0.00000  Uiso   1.00
H25    H     0.74028   0.34888   0.60783   0.00000  Uiso   1.00
H26    H     0.43695   0.45012   0.36769   0.00000  Uiso   1.00
H27    H     0.65515   0.34368   0.38589   0.00000  Uiso   1.00
H28    H     0.89678   0.34394   0.78467   0.00000  Uiso   1.00
H29    H     0.25718   0.55741   0.27830   0.00000  Uiso   1.00
H30    H     0.71730   0.33297   0.31668   0.00000  Uiso   1.00
H31    H     0.74511   0.69664   0.51682   0.00000  Uiso   1.00
H32    H     0.87817   0.67307   0.67252   0.00000  Uiso   1.00
H33    H     0.57483   0.77431   0.43238   0.00000  Uiso   1.00
H34    H     0.79304   0.66787   0.45058   0.00000  Uiso   1.00
H35    H     0.00870   0.60706   0.83717   0.00000  Uiso   1.00
H36    H     0.36909   0.82053   0.33080   0.00000  Uiso   1.00
H37    H     0.82921   0.59609   0.36918   0.00000  Uiso   1.00
O38    O     0.03789   0.45446   0.91224   0.00000  Uiso   1.00
O39    O     0.19875   0.73452   0.24788   0.00000  Uiso   1.00
O40    O     0.80242   0.44006   0.29824   0.00000  Uiso   1.00
N41    N     0.90487   0.40909   0.77566   0.00000  Uiso   1.00
N42    N     0.30688   0.60867   0.30224   0.00000  Uiso   1.00
N43    N     0.73703   0.39885   0.33811   0.00000  Uiso   1.00
N44    N     0.96509   0.55068   0.80391   0.00000  Uiso   1.00
N45    N     0.36711   0.75026   0.33050   0.00000  Uiso   1.00
N46    N     0.79726   0.54044   0.36636   0.00000  Uiso   1.00
C47    C     0.14435   0.95973   0.46955   0.00000  Uiso   1.00
C48    C     0.23088   0.98037   0.56082   0.00000  Uiso   1.00
C49    C     0.27007   0.91886   0.62182   0.00000  Uiso   1.00
C50    C     0.34919   0.95103   0.70160   0.00000  Uiso   1.00
C51    C     0.47766   0.96934   0.84057   0.00000  Uiso   1.00
C52    C     0.06607   0.03538   0.43035   0.00000  Uiso   1.00
C53    C     0.96669   0.02011   0.38165   0.00000  Uiso   1.00
C54    C     0.90708   0.09859   0.35160   0.00000  Uiso   1.00
C55    C     0.77966   0.20230   0.28796   0.00000  Uiso   1.00
C56    C     0.18463   0.97754   0.44025   0.00000  Uiso   1.00
C57    C     0.18492   0.91366   0.39984   0.00000  Uiso   1.00
C58    C     0.22511   0.94346   0.37811   0.00000  Uiso   1.00
C59    C     0.28177   0.95737   0.32984   0.00000  Uiso   1.00
C60    C     0.21517   0.12623   0.50277   0.00000  Uiso   1.00
C61    C     0.26934   0.07081   0.57886   0.00000  Uiso   1.00
C62    C     0.34842   0.10308   0.65857   0.00000  Uiso   1.00
C63    C     0.38773   0.04163   0.71968   0.00000  Uiso   1.00
C64    C     0.10453   0.12581   0.44839   0.00000  Uiso   1.00
C65    C     0.04504   0.20433   0.41840   0.00000  Uiso   1.00
C66    C     0.94561   0.18919   0.36967   0.00000  Uiso   1.00
C67    C     0.22310   0.06798   0.45829   0.00000  Uiso   1.00
C68    C     0.26328   0.09788   0.43661   0.00000  Uiso   1.00
C69    C     0.26364   0.03406   0.39618   0.00000  Uiso   1.00
H70    H     0.11440   0.88932   0.45550   0.00000  Uiso   1.00
H71    H     0.24028   0.84888   0.60783   0.00000  Uiso   1.00
H72    H     0.93695   0.95012   0.36769   0.00000  Uiso   1.00
H73    H     0.15515   0.84368   0.38589   0.00000  Uiso   1.00
H74    H     0.39678   0.84394   0.78467   0.00000  Uiso   1.00
H75    H     0.75718   0.05741   0.27830   0.00000  Uiso   1.00
H76    H     0.21730   0.83297   0.31668   0.00000  Uiso   1.00
H77    H     0.24511   0.19664   0.51682   0.00000  Uiso   1.00
H78    H     0.37817   0.17307   0.67252   0.00000  Uiso   1.00
H79    H     0.07483   0.27431   0.43238   0.00000  Uiso   1.00
H80    H     0.29304   0.16787   0.45058   0.00000  Uiso   1.00
H81    H     0.50870   0.10706   0.83717   0.00000  Uiso   1.00
H82    H     0.86909   0.32053   0.33080   0.00000  Uiso   1.00
H83    H     0.32921   0.09609   0.36918   0.00000  Uiso   1.00
O84    O     0.53789   0.95446   0.91224   0.00000  Uiso   1.00
O85    O     0.69875   0.23452   0.24788   0.00000  Uiso   1.00
O86    O     0.30242   0.94006   0.29824   0.00000  Uiso   1.00
N87    N     0.40487   0.90909   0.77566   0.00000  Uiso   1.00
N88    N     0.80688   0.10867   0.30224   0.00000  Uiso   1.00
N89    N     0.23703   0.89885   0.33811   0.00000  Uiso   1.00
N90    N     0.46509   0.05068   0.80391   0.00000  Uiso   1.00
N91    N     0.86711   0.25026   0.33050   0.00000  Uiso   1.00
N92    N     0.29726   0.04044   0.36636   0.00000  Uiso   1.00
C93    C     0.35565   0.45973   0.03045   0.00000  Uiso   1.00
C94    C     0.26912   0.48037   0.93918   0.00000  Uiso   1.00
C95    C     0.22993   0.41886   0.87818   0.00000  Uiso   1.00
C96    C     0.15081   0.45103   0.79840   0.00000  Uiso   1.00
C97    C     0.02234   0.46934   0.65943   0.00000  Uiso   1.00
C98    C     0.43393   0.53538   0.06965   0.00000  Uiso   1.00
C99    C     0.53331   0.52011   0.11835   0.00000  Uiso   1.00
C100   C     0.59292   0.59859   0.14840   0.00000  Uiso   1.00
C101   C     0.72034   0.70230   0.21204   0.00000  Uiso   1.00
C102   C     0.31537   0.47754   0.05975   0.00000  Uiso   1.00
C103   C     0.31508   0.41366   0.10016   0.00000  Uiso   1.00
C104   C     0.27489   0.44346   0.12189   0.00000  Uiso   1.00
C105   C     0.21823   0.45737   0.17016   0.00000  Uiso   1.00
C106   C     0.28483   0.62623   0.99723   0.00000  Uiso   1.00
C107   C     0.23066   0.57081   0.92114   0.00000  Uiso   1.00
C108   C     0.15158   0.60308   0.84143   0.00000  Uiso   1.00
C109   C     0.11227   0.54163   0.78032   0.00000  Uiso   1.00
C110   C     0.39547   0.62581   0.05161   0.00000  Uiso   1.00
C111   C     0.45496   0.70433   0.08160   0.00000  Uiso   1.00
C112   C     0.55439   0.68919   0.13033   0.00000  Uiso   1.00
C113   C     0.27690   0.56798   0.04171   0.00000  Uiso   1.00
C114   C     0.23672   0.59788   0.06339   0.00000  Uiso   1.00
C115   C     0.23636   0.53406   0.10382   0.00000  Uiso   1.00
H116   H     0.38560   0.38932   0.04450   0.00000  Uiso   1.00
H117   H     0.25972   0.34888   0.89217   0.00000  Uiso   1.00
H118   H     0.56305   0.45012   0.13231   0.00000  Uiso   1.00
H119   H     0.34485   0.34368   0.11411   0.00000  Uiso   1.00
H120   H     0.10322   0.34394   0.71533   0.00000  Uiso   1.00
H121   H     0.74282   0.55741   0.22170   0.00000  Uiso   1.00
H122   H     0.28270   0.33297   0.18332   0.00000  Uiso   1.00
H123   H     0.25489   0.69664   0.98318   0.00000  Uiso   1.00
H124   H     0.12183   0.67307   0.82748   0.00000  Uiso   1.00
H125   H     0.42517   0.77431   0.06762   0.00000  Uiso   1.00
H126   H     0.20696   0.66787   0.04942   0.00000  Uiso   1.00
H127   H     0.99130   0.60706   0.66283   0.00000  Uiso   1.00
H128   H     0.63091   0.82053   0.16920   0.00000  Uiso   1.00
H129   H     0.17079   0.59609   0.13082   0.00000  Uiso   1.00
O130   O     0.96211   0.45446   0.58776   0.00000  Uiso   1.00
O131   O     0.80125   0.73452   0.25212   0.00000  Uiso   1.00
O132   O     0.19758   0.44006   0.20176   0.00000  Uiso   1.00
N133   N     0.09513   0.40909   0.72434   0.00000  Uiso   1.00
N134   N     0.69312   0.60867   0.19776   0.00000  Uiso   1.00
N135   N     0.26297   0.39885   0.16189   0.00000  Uiso   1.00
N136   N     0.03491   0.55068   0.69609   0.00000  Uiso   1.00
N137   N     0.63289   0.75026   0.16950   0.00000  Uiso   1.00
N138   N     0.20274   0.54044   0.13364   0.00000  Uiso   1.00
C139   C     0.85565   0.95973   0.03045   0.00000  Uiso   1.00
C140   C     0.76912   0.98037   0.93918   0.00000  Uiso   1.00
C141   C     0.72993   0.91886   0.87818   0.00000  Uiso   1.00
C142   C     0.65081   0.95103   0.79840   0.00000  Uiso   1.00
C143   C     0.52234   0.96934   0.65943   0.00000  Uiso   1.00
C144   C     0.93393   0.03538   0.06965   0.00000  Uiso   1.00
C145   C     0.03331   0.02011   0.11835   0.00000  Uiso   1.00
C146   C     0.09292   0.09859   0.14840   0.00000  Uiso   1.00
C147   C     0.22034   0.20230   0.21204   0.00000  Uiso   1.00
C148   C     0.81537   0.97754   0.05975   0.00000  Uiso   1.00
C149   C     0.81508   0.91366   0.10016   0.00000  Uiso   1.00
C150   C     0.77489   0.94346   0.12189   0.00000  Uiso   1.00
C151   C     0.71823   0.95737   0.17016   0.00000  Uiso   1.00
C152   C     0.78483   0.12623   0.99723   0.00000  Uiso   1.00
C153   C     0.73066   0.07081   0.92114   0.00000  Uiso   1.00
C154   C     0.65158   0.10308   0.84143   0.00000  Uiso   1.00
C155   C     0.61227   0.04163   0.78032   0.00000  Uiso   1.00
C156   C     0.89547   0.12581   0.05161   0.00000  Uiso   1.00
C157   C     0.95496   0.20433   0.08160   0.00000  Uiso   1.00
C158   C     0.05439   0.18919   0.13033   0.00000  Uiso   1.00
C159   C     0.77690   0.06798   0.04171   0.00000  Uiso   1.00
C160   C     0.73672   0.09788   0.06339   0.00000  Uiso   1.00
C161   C     0.73636   0.03406   0.10382   0.00000  Uiso   1.00
H162   H     0.88560   0.88932   0.04450   0.00000  Uiso   1.00
H163   H     0.75972   0.84888   0.89217   0.00000  Uiso   1.00
H164   H     0.06305   0.95012   0.13231   0.00000  Uiso   1.00
H165   H     0.84485   0.84368   0.11411   0.00000  Uiso   1.00
H166   H     0.60322   0.84394   0.71533   0.00000  Uiso   1.00
H167   H     0.24282   0.05741   0.22170   0.00000  Uiso   1.00
H168   H     0.78270   0.83297   0.18332   0.00000  Uiso   1.00
H169   H     0.75489   0.19664   0.98318   0.00000  Uiso   1.00
H170   H     0.62183   0.17307   0.82748   0.00000  Uiso   1.00
H171   H     0.92517   0.27431   0.06762   0.00000  Uiso   1.00
H172   H     0.70696   0.16787   0.04942   0.00000  Uiso   1.00
H173   H     0.49130   0.10706   0.66283   0.00000  Uiso   1.00
H174   H     0.13091   0.32053   0.16920   0.00000  Uiso   1.00
H175   H     0.67079   0.09609   0.13082   0.00000  Uiso   1.00
O176   O     0.46211   0.95446   0.58776   0.00000  Uiso   1.00
O177   O     0.30125   0.23452   0.25212   0.00000  Uiso   1.00
O178   O     0.69758   0.94006   0.20176   0.00000  Uiso   1.00
N179   N     0.59513   0.90909   0.72434   0.00000  Uiso   1.00
N180   N     0.19312   0.10867   0.19776   0.00000  Uiso   1.00
N181   N     0.76297   0.89885   0.16189   0.00000  Uiso   1.00
N182   N     0.53491   0.05068   0.69609   0.00000  Uiso   1.00
N183   N     0.13289   0.25026   0.16950   0.00000  Uiso   1.00
N184   N     0.70274   0.04044   0.13364   0.00000  Uiso   1.00
C185   C     0.35565   0.54027   0.53045   0.00000  Uiso   1.00
C186   C     0.26912   0.51963   0.43918   0.00000  Uiso   1.00
C187   C     0.22993   0.58114   0.37818   0.00000  Uiso   1.00
C188   C     0.15081   0.54897   0.29840   0.00000  Uiso   1.00
C189   C     0.02234   0.53066   0.15943   0.00000  Uiso   1.00
C190   C     0.43393   0.46462   0.56965   0.00000  Uiso   1.00
C191   C     0.53331   0.47989   0.61835   0.00000  Uiso   1.00
C192   C     0.59292   0.40141   0.64840   0.00000  Uiso   1.00
C193   C     0.72034   0.29770   0.71204   0.00000  Uiso   1.00
C194   C     0.31537   0.52246   0.55975   0.00000  Uiso   1.00
C195   C     0.31508   0.58634   0.60016   0.00000  Uiso   1.00
C196   C     0.27489   0.55654   0.62189   0.00000  Uiso   1.00
C197   C     0.21823   0.54263   0.67016   0.00000  Uiso   1.00
C198   C     0.28483   0.37377   0.49723   0.00000  Uiso   1.00
C199   C     0.23066   0.42919   0.42114   0.00000  Uiso   1.00
C200   C     0.15158   0.39692   0.34143   0.00000  Uiso   1.00
C201   C     0.11227   0.45837   0.28032   0.00000  Uiso   1.00
C202   C     0.39547   0.37419   0.55161   0.00000  Uiso   1.00
C203   C     0.45496   0.29567   0.58160   0.00000  Uiso   1.00
C204   C     0.55439   0.31081   0.63033   0.00000  Uiso   1.00
C205   C     0.27690   0.43202   0.54171   0.00000  Uiso   1.00
C206   C     0.23672   0.40212   0.56339   0.00000  Uiso   1.00
C207   C     0.23636   0.46594   0.60382   0.00000  Uiso   1.00
H208   H     0.38560   0.61068   0.54450   0.00000  Uiso   1.00
H209   H     0.25972   0.65112   0.39217   0.00000  Uiso   1.00
H210   H     0.56305   0.54988   0.63231   0.00000  Uiso   1.00
H211   H     0.34485   0.65632   0.61411   0.00000  Uiso   1.00
H212   H     0.10322   0.65606   0.21533   0.00000  Uiso   1.00
H213   H     0.74282   0.44259   0.72170   0.00000  Uiso   1.00
H214   H     0.28270   0.66703   0.68332   0.00000  Uiso   1.00
H215   H     0.25489   0.30336   0.48318   0.00000  Uiso   1.00
H216   H     0.12183   0.32693   0.32748   0.00000  Uiso   1.00
H217   H     0.42517   0.22569   0.56762   0.00000  Uiso   1.00
H218   H     0.20696   0.33213   0.54942   0.00000  Uiso   1.00
H219   H     0.99130   0.39294   0.16283   0.00000  Uiso   1.00
H220   H     0.63091   0.17947   0.66920   0.00000  Uiso   1.00
H221   H     0.17079   0.40391   0.63082   0.00000  Uiso   1.00
O222   O     0.96211   0.54554   0.08776   0.00000  Uiso   1.00
O223   O     0.80125   0.26548   0.75212   0.00000  Uiso   1.00
O224   O     0.19758   0.55994   0.70176   0.00000  Uiso   1.00
N225   N     0.09513   0.59091   0.22434   0.00000  Uiso   1.00
N226   N     0.69312   0.39133   0.69776   0.00000  Uiso   1.00
N227   N     0.26297   0.60115   0.66189   0.00000  Uiso   1.00
N228   N     0.03491   0.44932   0.19609   0.00000  Uiso   1.00
N229   N     0.63289   0.24974   0.66950   0.00000  Uiso   1.00
N230   N     0.20274   0.45956   0.63364   0.00000  Uiso   1.00
C231   C     0.85565   0.04027   0.53045   0.00000  Uiso   1.00
C232   C     0.76912   0.01963   0.43918   0.00000  Uiso   1.00
C233   C     0.72993   0.08114   0.37818   0.00000  Uiso   1.00
C234   C     0.65081   0.04897   0.29840   0.00000  Uiso   1.00
C235   C     0.52234   0.03066   0.15943   0.00000  Uiso   1.00
C236   C     0.93393   0.96462   0.56965   0.00000  Uiso   1.00
C237   C     0.03331   0.97989   0.61835   0.00000  Uiso   1.00
C238   C     0.09292   0.90141   0.64840   0.00000  Uiso   1.00
C239   C     0.22034   0.79770   0.71204   0.00000  Uiso   1.00
C240   C     0.81537   0.02246   0.55975   0.00000  Uiso   1.00
C241   C     0.81508   0.08634   0.60016   0.00000  Uiso   1.00
C242   C     0.77489   0.05654   0.62189   0.00000  Uiso   1.00
C243   C     0.71823   0.04263   0.67016   0.00000  Uiso   1.00
C244   C     0.78483   0.87377   0.49723   0.00000  Uiso   1.00
C245   C     0.73066   0.92919   0.42114   0.00000  Uiso   1.00
C246   C     0.65158   0.89692   0.34143   0.00000  Uiso   1.00
C247   C     0.61227   0.95837   0.28032   0.00000  Uiso   1.00
C248   C     0.89547   0.87419   0.55161   0.00000  Uiso   1.00
C249   C     0.95496   0.79567   0.58160   0.00000  Uiso   1.00
C250   C     0.05439   0.81081   0.63033   0.00000  Uiso   1.00
C251   C     0.77690   0.93202   0.54171   0.00000  Uiso   1.00
C252   C     0.73672   0.90212   0.56339   0.00000  Uiso   1.00
C253   C     0.73636   0.96594   0.60382   0.00000  Uiso   1.00
H254   H     0.88560   0.11068   0.54450   0.00000  Uiso   1.00
H255   H     0.75972   0.15112   0.39217   0.00000  Uiso   1.00
H256   H     0.06305   0.04988   0.63231   0.00000  Uiso   1.00
H257   H     0.84485   0.15632   0.61411   0.00000  Uiso   1.00
H258   H     0.60322   0.15606   0.21533   0.00000  Uiso   1.00
H259   H     0.24282   0.94259   0.72170   0.00000  Uiso   1.00
H260   H     0.78270   0.16703   0.68332   0.00000  Uiso   1.00
H261   H     0.75489   0.80336   0.48318   0.00000  Uiso   1.00
H262   H     0.62183   0.82693   0.32748   0.00000  Uiso   1.00
H263   H     0.92517   0.72569   0.56762   0.00000  Uiso   1.00
H264   H     0.70696   0.83213   0.54942   0.00000  Uiso   1.00
H265   H     0.49130   0.89294   0.16283   0.00000  Uiso   1.00
H266   H     0.13091   0.67947   0.66920   0.00000  Uiso   1.00
H267   H     0.67079   0.90391   0.63082   0.00000  Uiso   1.00
O268   O     0.46211   0.04554   0.08776   0.00000  Uiso   1.00
O269   O     0.30125   0.76548   0.75212   0.00000  Uiso   1.00
O270   O     0.69758   0.05994   0.70176   0.00000  Uiso   1.00
N271   N     0.59513   0.09091   0.22434   0.00000  Uiso   1.00
N272   N     0.19312   0.89133   0.69776   0.00000  Uiso   1.00
N273   N     0.76297   0.10115   0.66189   0.00000  Uiso   1.00
N274   N     0.53491   0.94932   0.19609   0.00000  Uiso   1.00
N275   N     0.13289   0.74974   0.66950   0.00000  Uiso   1.00
N276   N     0.70274   0.95956   0.63364   0.00000  Uiso   1.00
C277   C     0.64435   0.54027   0.96955   0.00000  Uiso   1.00
C278   C     0.73088   0.51963   0.06082   0.00000  Uiso   1.00
C279   C     0.77007   0.58114   0.12182   0.00000  Uiso   1.00
C280   C     0.84919   0.54897   0.20160   0.00000  Uiso   1.00
C281   C     0.97766   0.53066   0.34057   0.00000  Uiso   1.00
C282   C     0.56607   0.46462   0.93035   0.00000  Uiso   1.00
C283   C     0.46669   0.47989   0.88165   0.00000  Uiso   1.00
C284   C     0.40708   0.40141   0.85160   0.00000  Uiso   1.00
C285   C     0.27966   0.29770   0.78796   0.00000  Uiso   1.00
C286   C     0.68463   0.52246   0.94025   0.00000  Uiso   1.00
C287   C     0.68492   0.58634   0.89984   0.00000  Uiso   1.00
C288   C     0.72511   0.55654   0.87811   0.00000  Uiso   1.00
C289   C     0.78177   0.54263   0.82984   0.00000  Uiso   1.00
C290   C     0.71517   0.37377   0.00277   0.00000  Uiso   1.00
C291   C     0.76934   0.42919   0.07886   0.00000  Uiso   1.00
C292   C     0.84842   0.39692   0.15857   0.00000  Uiso   1.00
C293   C     0.88773   0.45837   0.21968   0.00000  Uiso   1.00
C294   C     0.60453   0.37419   0.94839   0.00000  Uiso   1.00
C295   C     0.54504   0.29567   0.91840   0.00000  Uiso   1.00
C296   C     0.44561   0.31081   0.86967   0.00000  Uiso   1.00
C297   C     0.72310   0.43202   0.95829   0.00000  Uiso   1.00
C298   C     0.76328   0.40212   0.93661   0.00000  Uiso   1.00
C299   C     0.76364   0.46594   0.89618   0.00000  Uiso   1.00
H300   H     0.61440   0.61068   0.95550   0.00000  Uiso   1.00
H301   H     0.74028   0.65112   0.10783   0.00000  Uiso   1.00
H302   H     0.43695   0.54988   0.86769   0.00000  Uiso   1.00
H303   H     0.65515   0.65632   0.88589   0.00000  Uiso   1.00
H304   H     0.89678   0.65606   0.28467   0.00000  Uiso   1.00
H305   H     0.25718   0.44259   0.77830   0.00000  Uiso   1.00
H306   H     0.71730   0.66703   0.81668   0.00000  Uiso   1.00
H307   H     0.74511   0.30336   0.01682   0.00000  Uiso   1.00
H308   H     0.87817   0.32693   0.17252   0.00000  Uiso   1.00
H309   H     0.57483   0.22569   0.93238   0.00000  Uiso   1.00
H310   H     0.79304   0.33213   0.95058   0.00000  Uiso   1.00
H311   H     0.00870   0.39294   0.33717   0.00000  Uiso   1.00
H312   H     0.36909   0.17947   0.83080   0.00000  Uiso   1.00
H313   H     0.82921   0.40391   0.86918   0.00000  Uiso   1.00
O314   O     0.03789   0.54554   0.41224   0.00000  Uiso   1.00
O315   O     0.19875   0.26548   0.74788   0.00000  Uiso   1.00
O316   O     0.80242   0.55994   0.79824   0.00000  Uiso   1.00
N317   N     0.90487   0.59091   0.27566   0.00000  Uiso   1.00
N318   N     0.30688   0.39133   0.80224   0.00000  Uiso   1.00
N319   N     0.73703   0.60115   0.83811   0.00000  Uiso   1.00
N320   N     0.96509   0.44932   0.30391   0.00000  Uiso   1.00
N321   N     0.36711   0.24974   0.83050   0.00000  Uiso   1.00
N322   N     0.79726   0.45956   0.86636   0.00000  Uiso   1.00
C323   C     0.14435   0.04027   0.96955   0.00000  Uiso   1.00
C324   C     0.23088   0.01963   0.06082   0.00000  Uiso   1.00
C325   C     0.27007   0.08114   0.12182   0.00000  Uiso   1.00
C326   C     0.34919   0.04897   0.20160   0.00000  Uiso   1.00
C327   C     0.47766   0.03066   0.34057   0.00000  Uiso   1.00
C328   C     0.06607   0.96462   0.93035   0.00000  Uiso   1.00
C329   C     0.96669   0.97989   0.88165   0.00000  Uiso   1.00
C330   C     0.90708   0.90141   0.85160   0.00000  Uiso   1.00
C331   C     0.77966   0.79770   0.78796   0.00000  Uiso   1.00
C332   C     0.18463   0.02246   0.94025   0.00000  Uiso   1.00
C333   C     0.18492   0.08634   0.89984   0.00000  Uiso   1.00
C334   C     0.22511   0.05654   0.87811   0.00000  Uiso   1.00
C335   C     0.28177   0.04263   0.82984   0.00000  Uiso   1.00
C336   C     0.21517   0.87377   0.00277   0.00000  Uiso   1.00
C337   C     0.26934   0.92919   0.07886   0.00000  Uiso   1.00
C338   C     0.34842   0.89692   0.15857   0.00000  Uiso   1.00
C339   C     0.38773   0.95837   0.21968   0.00000  Uiso   1.00
C340   C     0.10453   0.87419   0.94839   0.00000  Uiso   1.00
C341   C     0.04504   0.79567   0.91840   0.00000  Uiso   1.00
C342   C     0.94561   0.81081   0.86967   0.00000  Uiso   1.00
C343   C     0.22310   0.93202   0.95829   0.00000  Uiso   1.00
C344   C     0.26328   0.90212   0.93661   0.00000  Uiso   1.00
C345   C     0.26364   0.96594   0.89618   0.00000  Uiso   1.00
H346   H     0.11440   0.11068   0.95550   0.00000  Uiso   1.00
H347   H     0.24028   0.15112   0.10783   0.00000  Uiso   1.00
H348   H     0.93695   0.04988   0.86769   0.00000  Uiso   1.00
H349   H     0.15515   0.15632   0.88589   0.00000  Uiso   1.00
H350   H     0.39678   0.15606   0.28467   0.00000  Uiso   1.00
H351   H     0.75718   0.94259   0.77830   0.00000  Uiso   1.00
H352   H     0.21730   0.16703   0.81668   0.00000  Uiso   1.00
H353   H     0.24511   0.80336   0.01682   0.00000  Uiso   1.00
H354   H     0.37817   0.82693   0.17252   0.00000  Uiso   1.00
H355   H     0.07483   0.72569   0.93238   0.00000  Uiso   1.00
H356   H     0.29304   0.83213   0.95058   0.00000  Uiso   1.00
H357   H     0.50870   0.89294   0.33717   0.00000  Uiso   1.00
H358   H     0.86909   0.67947   0.83080   0.00000  Uiso   1.00
H359   H     0.32921   0.90391   0.86918   0.00000  Uiso   1.00
O360   O     0.53789   0.04554   0.41224   0.00000  Uiso   1.00
O361   O     0.69875   0.76548   0.74788   0.00000  Uiso   1.00
O362   O     0.30242   0.05994   0.79824   0.00000  Uiso   1.00
N363   N     0.40487   0.09091   0.27566   0.00000  Uiso   1.00
N364   N     0.80688   0.89133   0.80224   0.00000  Uiso   1.00
N365   N     0.23703   0.10115   0.83811   0.00000  Uiso   1.00
N366   N     0.46509   0.94932   0.30391   0.00000  Uiso   1.00
N367   N     0.86711   0.74974   0.83050   0.00000  Uiso   1.00
N368   N     0.29726   0.95956   0.86636   0.00000  Uiso   1.00
