data_job_02282
_audit_creation_date              2018-12-19
_audit_creation_method            'Materials Studio'
_symmetry_space_group_name_H-M    'P1'
_symmetry_Int_Tables_number       1
_symmetry_cell_setting            triclinic
loop_
_symmetry_equiv_pos_as_xyz
  x,y,z
_cell_length_a                    42.4019
_cell_length_b                    33.0681
_cell_length_c                    7.2609
_cell_angle_alpha                 90.0000
_cell_angle_beta                  99.8327
_cell_angle_gamma                 90.0000
loop_
_atom_site_label
_atom_site_type_symbol
_atom_site_fract_x
_atom_site_fract_y
_atom_site_fract_z
_atom_site_U_iso_or_equiv
_atom_site_adp_type
_atom_site_occupancy
C1     C     0.65628   0.69700   0.33417   0.00000  Uiso   1.00
C2     C     0.67985   0.72737   0.27655   0.00000  Uiso   1.00
C3     C     0.69964   0.75294   0.39627   0.00000  Uiso   1.00
C4     C     0.71948   0.77851   0.31623   0.00000  Uiso   1.00
C5     C     0.75606   0.82570   0.25608   0.00000  Uiso   1.00
C6     C     0.62368   0.70757   0.22038   0.00000  Uiso   1.00
C7     C     0.59625   0.71648   0.29288   0.00000  Uiso   1.00
C8     C     0.56881   0.72538   0.16554   0.00000  Uiso   1.00
C9     C     0.51818   0.74178   0.01817   0.00000  Uiso   1.00
C10    C     0.66533   0.65601   0.26228   0.00000  Uiso   1.00
C11    C     0.67292   0.62157   0.36999   0.00000  Uiso   1.00
C12    C     0.68054   0.58706   0.27792   0.00000  Uiso   1.00
C13    C     0.69459   0.52342   0.19562   0.00000  Uiso   1.00
C14    C     0.65632   0.69693   0.97912   0.00000  Uiso   1.00
C15    C     0.67987   0.72734   0.08370   0.00000  Uiso   1.00
C16    C     0.69969   0.75287   0.00345   0.00000  Uiso   1.00
C17    C     0.71950   0.77848   0.12304   0.00000  Uiso   1.00
C18    C     0.62370   0.70753   0.02753   0.00000  Uiso   1.00
C19    C     0.59629   0.71641   0.90006   0.00000  Uiso   1.00
C20    C     0.56883   0.72534   0.97234   0.00000  Uiso   1.00
C21    C     0.66536   0.65598   0.06943   0.00000  Uiso   1.00
C22    C     0.67297   0.62151   0.97717   0.00000  Uiso   1.00
C23    C     0.68056   0.58702   0.08472   0.00000  Uiso   1.00
H24    H     0.65626   0.69702   0.48431   0.00000  Uiso   1.00
H25    H     0.69961   0.75296   0.54551   0.00000  Uiso   1.00
H26    H     0.59624   0.71650   0.44212   0.00000  Uiso   1.00
H27    H     0.67290   0.62161   0.51923   0.00000  Uiso   1.00
H28    H     0.74768   0.81498   0.52830   0.00000  Uiso   1.00
H29    H     0.52970   0.73808   0.31030   0.00000  Uiso   1.00
H30    H     0.69136   0.53799   0.47290   0.00000  Uiso   1.00
H31    H     0.65634   0.69691   0.82897   0.00000  Uiso   1.00
H32    H     0.69970   0.75284   0.85421   0.00000  Uiso   1.00
H33    H     0.59632   0.71638   0.75083   0.00000  Uiso   1.00
H34    H     0.67298   0.62149   0.82793   0.00000  Uiso   1.00
H35    H     0.74775   0.81488   0.96722   0.00000  Uiso   1.00
H36    H     0.52977   0.73799   0.74922   0.00000  Uiso   1.00
H37    H     0.69143   0.53789   0.91181   0.00000  Uiso   1.00
O38    O     0.77623   0.85174   0.27618   0.00000  Uiso   1.00
O39    O     0.49025   0.75085   0.99018   0.00000  Uiso   1.00
O40    O     0.70234   0.48833   0.20349   0.00000  Uiso   1.00
N41    N     0.74175   0.80727   0.39279   0.00000  Uiso   1.00
N42    N     0.53796   0.73539   0.18898   0.00000  Uiso   1.00
N43    N     0.68908   0.54831   0.34098   0.00000  Uiso   1.00
N44    N     0.74179   0.80722   0.09088   0.00000  Uiso   1.00
N45    N     0.53799   0.73534   0.88706   0.00000  Uiso   1.00
N46    N     0.68912   0.54826   0.03907   0.00000  Uiso   1.00
C47    C     0.15628   0.19700   0.33417   0.00000  Uiso   1.00
C48    C     0.17985   0.22737   0.27655   0.00000  Uiso   1.00
C49    C     0.19964   0.25294   0.39627   0.00000  Uiso   1.00
C50    C     0.21948   0.27851   0.31623   0.00000  Uiso   1.00
C51    C     0.25606   0.32570   0.25608   0.00000  Uiso   1.00
C52    C     0.12368   0.20757   0.22038   0.00000  Uiso   1.00
C53    C     0.09625   0.21648   0.29288   0.00000  Uiso   1.00
C54    C     0.06881   0.22538   0.16554   0.00000  Uiso   1.00
C55    C     0.01818   0.24178   0.01817   0.00000  Uiso   1.00
C56    C     0.16533   0.15601   0.26228   0.00000  Uiso   1.00
C57    C     0.17292   0.12157   0.36999   0.00000  Uiso   1.00
C58    C     0.18054   0.08706   0.27792   0.00000  Uiso   1.00
C59    C     0.19459   0.02342   0.19562   0.00000  Uiso   1.00
C60    C     0.15632   0.19693   0.97912   0.00000  Uiso   1.00
C61    C     0.17987   0.22734   0.08370   0.00000  Uiso   1.00
C62    C     0.19969   0.25287   0.00345   0.00000  Uiso   1.00
C63    C     0.21950   0.27848   0.12304   0.00000  Uiso   1.00
C64    C     0.12370   0.20753   0.02753   0.00000  Uiso   1.00
C65    C     0.09629   0.21641   0.90006   0.00000  Uiso   1.00
C66    C     0.06883   0.22534   0.97234   0.00000  Uiso   1.00
C67    C     0.16536   0.15598   0.06943   0.00000  Uiso   1.00
C68    C     0.17297   0.12151   0.97717   0.00000  Uiso   1.00
C69    C     0.18056   0.08702   0.08472   0.00000  Uiso   1.00
H70    H     0.15626   0.19702   0.48431   0.00000  Uiso   1.00
H71    H     0.19961   0.25296   0.54551   0.00000  Uiso   1.00
H72    H     0.09624   0.21650   0.44212   0.00000  Uiso   1.00
H73    H     0.17290   0.12161   0.51923   0.00000  Uiso   1.00
H74    H     0.24768   0.31498   0.52830   0.00000  Uiso   1.00
H75    H     0.02970   0.23808   0.31030   0.00000  Uiso   1.00
H76    H     0.19136   0.03799   0.47290   0.00000  Uiso   1.00
H77    H     0.15634   0.19691   0.82897   0.00000  Uiso   1.00
H78    H     0.19970   0.25284   0.85421   0.00000  Uiso   1.00
H79    H     0.09632   0.21638   0.75083   0.00000  Uiso   1.00
H80    H     0.17298   0.12149   0.82793   0.00000  Uiso   1.00
H81    H     0.24775   0.31488   0.96722   0.00000  Uiso   1.00
H82    H     0.02977   0.23799   0.74922   0.00000  Uiso   1.00
H83    H     0.19143   0.03789   0.91181   0.00000  Uiso   1.00
O84    O     0.27623   0.35174   0.27618   0.00000  Uiso   1.00
O85    O     0.99025   0.25085   0.99018   0.00000  Uiso   1.00
O86    O     0.20234   0.98833   0.20349   0.00000  Uiso   1.00
N87    N     0.24175   0.30727   0.39279   0.00000  Uiso   1.00
N88    N     0.03796   0.23539   0.18898   0.00000  Uiso   1.00
N89    N     0.18908   0.04831   0.34098   0.00000  Uiso   1.00
N90    N     0.24179   0.30722   0.09088   0.00000  Uiso   1.00
N91    N     0.03799   0.23534   0.88706   0.00000  Uiso   1.00
N92    N     0.18912   0.04826   0.03907   0.00000  Uiso   1.00
C93    C     0.34372   0.69700   0.16583   0.00000  Uiso   1.00
C94    C     0.32015   0.72737   0.22345   0.00000  Uiso   1.00
C95    C     0.30036   0.75294   0.10373   0.00000  Uiso   1.00
C96    C     0.28052   0.77851   0.18377   0.00000  Uiso   1.00
C97    C     0.24394   0.82570   0.24392   0.00000  Uiso   1.00
C98    C     0.37632   0.70757   0.27962   0.00000  Uiso   1.00
C99    C     0.40375   0.71648   0.20712   0.00000  Uiso   1.00
C100   C     0.43119   0.72538   0.33446   0.00000  Uiso   1.00
C101   C     0.48182   0.74178   0.48183   0.00000  Uiso   1.00
C102   C     0.33467   0.65601   0.23772   0.00000  Uiso   1.00
C103   C     0.32708   0.62157   0.13001   0.00000  Uiso   1.00
C104   C     0.31946   0.58706   0.22208   0.00000  Uiso   1.00
C105   C     0.30541   0.52342   0.30438   0.00000  Uiso   1.00
C106   C     0.34368   0.69693   0.52088   0.00000  Uiso   1.00
C107   C     0.32013   0.72734   0.41630   0.00000  Uiso   1.00
C108   C     0.30031   0.75287   0.49655   0.00000  Uiso   1.00
C109   C     0.28050   0.77848   0.37696   0.00000  Uiso   1.00
C110   C     0.37630   0.70753   0.47247   0.00000  Uiso   1.00
C111   C     0.40371   0.71641   0.59994   0.00000  Uiso   1.00
C112   C     0.43117   0.72534   0.52766   0.00000  Uiso   1.00
C113   C     0.33464   0.65598   0.43057   0.00000  Uiso   1.00
C114   C     0.32703   0.62151   0.52283   0.00000  Uiso   1.00
C115   C     0.31944   0.58702   0.41528   0.00000  Uiso   1.00
H116   H     0.34374   0.69702   0.01569   0.00000  Uiso   1.00
H117   H     0.30039   0.75296   0.95449   0.00000  Uiso   1.00
H118   H     0.40376   0.71650   0.05788   0.00000  Uiso   1.00
H119   H     0.32710   0.62161   0.98077   0.00000  Uiso   1.00
H120   H     0.25232   0.81498   0.97170   0.00000  Uiso   1.00
H121   H     0.47030   0.73808   0.18970   0.00000  Uiso   1.00
H122   H     0.30864   0.53799   0.02710   0.00000  Uiso   1.00
H123   H     0.34366   0.69691   0.67103   0.00000  Uiso   1.00
H124   H     0.30030   0.75284   0.64579   0.00000  Uiso   1.00
H125   H     0.40368   0.71638   0.74917   0.00000  Uiso   1.00
H126   H     0.32702   0.62149   0.67207   0.00000  Uiso   1.00
H127   H     0.25225   0.81488   0.53278   0.00000  Uiso   1.00
H128   H     0.47023   0.73799   0.75078   0.00000  Uiso   1.00
H129   H     0.30857   0.53789   0.58819   0.00000  Uiso   1.00
O130   O     0.22377   0.85174   0.22382   0.00000  Uiso   1.00
O131   O     0.50975   0.75085   0.50982   0.00000  Uiso   1.00
O132   O     0.29766   0.48833   0.29651   0.00000  Uiso   1.00
N133   N     0.25825   0.80727   0.10721   0.00000  Uiso   1.00
N134   N     0.46204   0.73539   0.31102   0.00000  Uiso   1.00
N135   N     0.31092   0.54831   0.15902   0.00000  Uiso   1.00
N136   N     0.25821   0.80722   0.40912   0.00000  Uiso   1.00
N137   N     0.46201   0.73534   0.61294   0.00000  Uiso   1.00
N138   N     0.31088   0.54826   0.46093   0.00000  Uiso   1.00
C139   C     0.84372   0.19700   0.16583   0.00000  Uiso   1.00
C140   C     0.82015   0.22737   0.22345   0.00000  Uiso   1.00
C141   C     0.80036   0.25294   0.10373   0.00000  Uiso   1.00
C142   C     0.78052   0.27851   0.18377   0.00000  Uiso   1.00
C143   C     0.74394   0.32570   0.24392   0.00000  Uiso   1.00
C144   C     0.87632   0.20757   0.27962   0.00000  Uiso   1.00
C145   C     0.90375   0.21648   0.20712   0.00000  Uiso   1.00
C146   C     0.93119   0.22538   0.33446   0.00000  Uiso   1.00
C147   C     0.98182   0.24178   0.48183   0.00000  Uiso   1.00
C148   C     0.83467   0.15601   0.23772   0.00000  Uiso   1.00
C149   C     0.82708   0.12157   0.13001   0.00000  Uiso   1.00
C150   C     0.81946   0.08706   0.22208   0.00000  Uiso   1.00
C151   C     0.80541   0.02342   0.30438   0.00000  Uiso   1.00
C152   C     0.84368   0.19693   0.52088   0.00000  Uiso   1.00
C153   C     0.82013   0.22734   0.41630   0.00000  Uiso   1.00
C154   C     0.80031   0.25287   0.49655   0.00000  Uiso   1.00
C155   C     0.78050   0.27848   0.37696   0.00000  Uiso   1.00
C156   C     0.87630   0.20753   0.47247   0.00000  Uiso   1.00
C157   C     0.90371   0.21641   0.59994   0.00000  Uiso   1.00
C158   C     0.93117   0.22534   0.52766   0.00000  Uiso   1.00
C159   C     0.83464   0.15598   0.43057   0.00000  Uiso   1.00
C160   C     0.82703   0.12151   0.52283   0.00000  Uiso   1.00
C161   C     0.81944   0.08702   0.41528   0.00000  Uiso   1.00
H162   H     0.84374   0.19702   0.01569   0.00000  Uiso   1.00
H163   H     0.80039   0.25296   0.95449   0.00000  Uiso   1.00
H164   H     0.90376   0.21650   0.05788   0.00000  Uiso   1.00
H165   H     0.82710   0.12161   0.98077   0.00000  Uiso   1.00
H166   H     0.75232   0.31498   0.97170   0.00000  Uiso   1.00
H167   H     0.97030   0.23808   0.18970   0.00000  Uiso   1.00
H168   H     0.80864   0.03799   0.02710   0.00000  Uiso   1.00
H169   H     0.84366   0.19691   0.67103   0.00000  Uiso   1.00
H170   H     0.80030   0.25284   0.64579   0.00000  Uiso   1.00
H171   H     0.90368   0.21638   0.74917   0.00000  Uiso   1.00
H172   H     0.82702   0.12149   0.67207   0.00000  Uiso   1.00
H173   H     0.75225   0.31488   0.53278   0.00000  Uiso   1.00
H174   H     0.97023   0.23799   0.75078   0.00000  Uiso   1.00
H175   H     0.80857   0.03789   0.58819   0.00000  Uiso   1.00
O176   O     0.72377   0.35174   0.22382   0.00000  Uiso   1.00
O177   O     0.00975   0.25085   0.50982   0.00000  Uiso   1.00
O178   O     0.79766   0.98833   0.29651   0.00000  Uiso   1.00
N179   N     0.75825   0.30727   0.10721   0.00000  Uiso   1.00
N180   N     0.96204   0.23539   0.31102   0.00000  Uiso   1.00
N181   N     0.81092   0.04831   0.15902   0.00000  Uiso   1.00
N182   N     0.75821   0.30722   0.40912   0.00000  Uiso   1.00
N183   N     0.96201   0.23534   0.61294   0.00000  Uiso   1.00
N184   N     0.81088   0.04826   0.46093   0.00000  Uiso   1.00
C185   C     0.34372   0.30300   0.66583   0.00000  Uiso   1.00
C186   C     0.32015   0.27263   0.72345   0.00000  Uiso   1.00
C187   C     0.30036   0.24706   0.60373   0.00000  Uiso   1.00
C188   C     0.28052   0.22149   0.68377   0.00000  Uiso   1.00
C189   C     0.24394   0.17430   0.74392   0.00000  Uiso   1.00
C190   C     0.37632   0.29243   0.77962   0.00000  Uiso   1.00
C191   C     0.40375   0.28352   0.70712   0.00000  Uiso   1.00
C192   C     0.43119   0.27462   0.83446   0.00000  Uiso   1.00
C193   C     0.48182   0.25822   0.98183   0.00000  Uiso   1.00
C194   C     0.33467   0.34399   0.73772   0.00000  Uiso   1.00
C195   C     0.32708   0.37843   0.63001   0.00000  Uiso   1.00
C196   C     0.31946   0.41294   0.72208   0.00000  Uiso   1.00
C197   C     0.30541   0.47658   0.80438   0.00000  Uiso   1.00
C198   C     0.34368   0.30307   0.02088   0.00000  Uiso   1.00
C199   C     0.32013   0.27266   0.91630   0.00000  Uiso   1.00
C200   C     0.30031   0.24713   0.99655   0.00000  Uiso   1.00
C201   C     0.28050   0.22152   0.87696   0.00000  Uiso   1.00
C202   C     0.37630   0.29247   0.97247   0.00000  Uiso   1.00
C203   C     0.40371   0.28359   0.09994   0.00000  Uiso   1.00
C204   C     0.43117   0.27466   0.02766   0.00000  Uiso   1.00
C205   C     0.33464   0.34402   0.93057   0.00000  Uiso   1.00
C206   C     0.32703   0.37849   0.02283   0.00000  Uiso   1.00
C207   C     0.31944   0.41298   0.91528   0.00000  Uiso   1.00
H208   H     0.34374   0.30298   0.51569   0.00000  Uiso   1.00
H209   H     0.30039   0.24704   0.45449   0.00000  Uiso   1.00
H210   H     0.40376   0.28350   0.55788   0.00000  Uiso   1.00
H211   H     0.32710   0.37839   0.48077   0.00000  Uiso   1.00
H212   H     0.25232   0.18502   0.47170   0.00000  Uiso   1.00
H213   H     0.47030   0.26192   0.68970   0.00000  Uiso   1.00
H214   H     0.30864   0.46201   0.52710   0.00000  Uiso   1.00
H215   H     0.34366   0.30309   0.17103   0.00000  Uiso   1.00
H216   H     0.30030   0.24716   0.14579   0.00000  Uiso   1.00
H217   H     0.40368   0.28362   0.24917   0.00000  Uiso   1.00
H218   H     0.32702   0.37851   0.17207   0.00000  Uiso   1.00
H219   H     0.25225   0.18512   0.03278   0.00000  Uiso   1.00
H220   H     0.47023   0.26201   0.25078   0.00000  Uiso   1.00
H221   H     0.30857   0.46211   0.08819   0.00000  Uiso   1.00
O222   O     0.22377   0.14826   0.72382   0.00000  Uiso   1.00
O223   O     0.50975   0.24915   0.00982   0.00000  Uiso   1.00
O224   O     0.29766   0.51167   0.79651   0.00000  Uiso   1.00
N225   N     0.25825   0.19273   0.60721   0.00000  Uiso   1.00
N226   N     0.46204   0.26461   0.81102   0.00000  Uiso   1.00
N227   N     0.31092   0.45169   0.65902   0.00000  Uiso   1.00
N228   N     0.25821   0.19278   0.90912   0.00000  Uiso   1.00
N229   N     0.46201   0.26466   0.11294   0.00000  Uiso   1.00
N230   N     0.31088   0.45174   0.96093   0.00000  Uiso   1.00
C231   C     0.84372   0.80300   0.66583   0.00000  Uiso   1.00
C232   C     0.82015   0.77263   0.72345   0.00000  Uiso   1.00
C233   C     0.80036   0.74706   0.60373   0.00000  Uiso   1.00
C234   C     0.78052   0.72149   0.68377   0.00000  Uiso   1.00
C235   C     0.74394   0.67430   0.74392   0.00000  Uiso   1.00
C236   C     0.87632   0.79243   0.77962   0.00000  Uiso   1.00
C237   C     0.90375   0.78352   0.70712   0.00000  Uiso   1.00
C238   C     0.93119   0.77462   0.83446   0.00000  Uiso   1.00
C239   C     0.98182   0.75822   0.98183   0.00000  Uiso   1.00
C240   C     0.83467   0.84399   0.73772   0.00000  Uiso   1.00
C241   C     0.82708   0.87843   0.63001   0.00000  Uiso   1.00
C242   C     0.81946   0.91294   0.72208   0.00000  Uiso   1.00
C243   C     0.80541   0.97658   0.80438   0.00000  Uiso   1.00
C244   C     0.84368   0.80307   0.02088   0.00000  Uiso   1.00
C245   C     0.82013   0.77266   0.91630   0.00000  Uiso   1.00
C246   C     0.80031   0.74713   0.99655   0.00000  Uiso   1.00
C247   C     0.78050   0.72152   0.87696   0.00000  Uiso   1.00
C248   C     0.87630   0.79247   0.97247   0.00000  Uiso   1.00
C249   C     0.90371   0.78359   0.09994   0.00000  Uiso   1.00
C250   C     0.93117   0.77466   0.02766   0.00000  Uiso   1.00
C251   C     0.83464   0.84402   0.93057   0.00000  Uiso   1.00
C252   C     0.82703   0.87849   0.02283   0.00000  Uiso   1.00
C253   C     0.81944   0.91298   0.91528   0.00000  Uiso   1.00
H254   H     0.84374   0.80298   0.51569   0.00000  Uiso   1.00
H255   H     0.80039   0.74704   0.45449   0.00000  Uiso   1.00
H256   H     0.90376   0.78350   0.55788   0.00000  Uiso   1.00
H257   H     0.82710   0.87839   0.48077   0.00000  Uiso   1.00
H258   H     0.75232   0.68502   0.47170   0.00000  Uiso   1.00
H259   H     0.97030   0.76192   0.68970   0.00000  Uiso   1.00
H260   H     0.80864   0.96201   0.52710   0.00000  Uiso   1.00
H261   H     0.84366   0.80309   0.17103   0.00000  Uiso   1.00
H262   H     0.80030   0.74716   0.14579   0.00000  Uiso   1.00
H263   H     0.90368   0.78362   0.24917   0.00000  Uiso   1.00
H264   H     0.82702   0.87851   0.17207   0.00000  Uiso   1.00
H265   H     0.75225   0.68512   0.03278   0.00000  Uiso   1.00
H266   H     0.97023   0.76201   0.25078   0.00000  Uiso   1.00
H267   H     0.80857   0.96211   0.08819   0.00000  Uiso   1.00
O268   O     0.72377   0.64826   0.72382   0.00000  Uiso   1.00
O269   O     0.00975   0.74915   0.00982   0.00000  Uiso   1.00
O270   O     0.79766   0.01167   0.79651   0.00000  Uiso   1.00
N271   N     0.75825   0.69273   0.60721   0.00000  Uiso   1.00
N272   N     0.96204   0.76461   0.81102   0.00000  Uiso   1.00
N273   N     0.81092   0.95169   0.65902   0.00000  Uiso   1.00
N274   N     0.75821   0.69278   0.90912   0.00000  Uiso   1.00
N275   N     0.96201   0.76466   0.11294   0.00000  Uiso   1.00
N276   N     0.81088   0.95174   0.96093   0.00000  Uiso   1.00
C277   C     0.65628   0.30300   0.83417   0.00000  Uiso   1.00
C278   C     0.67985   0.27263   0.77655   0.00000  Uiso   1.00
C279   C     0.69964   0.24706   0.89627   0.00000  Uiso   1.00
C280   C     0.71948   0.22149   0.81623   0.00000  Uiso   1.00
C281   C     0.75606   0.17430   0.75608   0.00000  Uiso   1.00
C282   C     0.62368   0.29243   0.72038   0.00000  Uiso   1.00
C283   C     0.59625   0.28352   0.79288   0.00000  Uiso   1.00
C284   C     0.56881   0.27462   0.66554   0.00000  Uiso   1.00
C285   C     0.51818   0.25822   0.51817   0.00000  Uiso   1.00
C286   C     0.66533   0.34399   0.76228   0.00000  Uiso   1.00
C287   C     0.67292   0.37843   0.86999   0.00000  Uiso   1.00
C288   C     0.68054   0.41294   0.77792   0.00000  Uiso   1.00
C289   C     0.69459   0.47658   0.69562   0.00000  Uiso   1.00
C290   C     0.65632   0.30307   0.47912   0.00000  Uiso   1.00
C291   C     0.67987   0.27266   0.58370   0.00000  Uiso   1.00
C292   C     0.69969   0.24713   0.50345   0.00000  Uiso   1.00
C293   C     0.71950   0.22152   0.62304   0.00000  Uiso   1.00
C294   C     0.62370   0.29247   0.52753   0.00000  Uiso   1.00
C295   C     0.59629   0.28359   0.40006   0.00000  Uiso   1.00
C296   C     0.56883   0.27466   0.47234   0.00000  Uiso   1.00
C297   C     0.66536   0.34402   0.56943   0.00000  Uiso   1.00
C298   C     0.67297   0.37849   0.47717   0.00000  Uiso   1.00
C299   C     0.68056   0.41298   0.58472   0.00000  Uiso   1.00
H300   H     0.65626   0.30298   0.98431   0.00000  Uiso   1.00
H301   H     0.69961   0.24704   0.04551   0.00000  Uiso   1.00
H302   H     0.59624   0.28350   0.94212   0.00000  Uiso   1.00
H303   H     0.67290   0.37839   0.01923   0.00000  Uiso   1.00
H304   H     0.74768   0.18502   0.02830   0.00000  Uiso   1.00
H305   H     0.52970   0.26192   0.81030   0.00000  Uiso   1.00
H306   H     0.69136   0.46201   0.97290   0.00000  Uiso   1.00
H307   H     0.65634   0.30309   0.32897   0.00000  Uiso   1.00
H308   H     0.69970   0.24716   0.35421   0.00000  Uiso   1.00
H309   H     0.59632   0.28362   0.25083   0.00000  Uiso   1.00
H310   H     0.67298   0.37851   0.32793   0.00000  Uiso   1.00
H311   H     0.74775   0.18512   0.46722   0.00000  Uiso   1.00
H312   H     0.52977   0.26201   0.24922   0.00000  Uiso   1.00
H313   H     0.69143   0.46211   0.41181   0.00000  Uiso   1.00
O314   O     0.77623   0.14826   0.77618   0.00000  Uiso   1.00
O315   O     0.49025   0.24915   0.49018   0.00000  Uiso   1.00
O316   O     0.70234   0.51167   0.70349   0.00000  Uiso   1.00
N317   N     0.74175   0.19273   0.89279   0.00000  Uiso   1.00
N318   N     0.53796   0.26461   0.68898   0.00000  Uiso   1.00
N319   N     0.68908   0.45169   0.84098   0.00000  Uiso   1.00
N320   N     0.74179   0.19278   0.59088   0.00000  Uiso   1.00
N321   N     0.53799   0.26466   0.38706   0.00000  Uiso   1.00
N322   N     0.68912   0.45174   0.53907   0.00000  Uiso   1.00
C323   C     0.15628   0.80300   0.83417   0.00000  Uiso   1.00
C324   C     0.17985   0.77263   0.77655   0.00000  Uiso   1.00
C325   C     0.19964   0.74706   0.89627   0.00000  Uiso   1.00
C326   C     0.21948   0.72149   0.81623   0.00000  Uiso   1.00
C327   C     0.25606   0.67430   0.75608   0.00000  Uiso   1.00
C328   C     0.12368   0.79243   0.72038   0.00000  Uiso   1.00
C329   C     0.09625   0.78352   0.79288   0.00000  Uiso   1.00
C330   C     0.06881   0.77462   0.66554   0.00000  Uiso   1.00
C331   C     0.01818   0.75822   0.51817   0.00000  Uiso   1.00
C332   C     0.16533   0.84399   0.76228   0.00000  Uiso   1.00
C333   C     0.17292   0.87843   0.86999   0.00000  Uiso   1.00
C334   C     0.18054   0.91294   0.77792   0.00000  Uiso   1.00
C335   C     0.19459   0.97658   0.69562   0.00000  Uiso   1.00
C336   C     0.15632   0.80307   0.47912   0.00000  Uiso   1.00
C337   C     0.17987   0.77266   0.58370   0.00000  Uiso   1.00
C338   C     0.19969   0.74713   0.50345   0.00000  Uiso   1.00
C339   C     0.21950   0.72152   0.62304   0.00000  Uiso   1.00
C340   C     0.12370   0.79247   0.52753   0.00000  Uiso   1.00
C341   C     0.09629   0.78359   0.40006   0.00000  Uiso   1.00
C342   C     0.06883   0.77466   0.47234   0.00000  Uiso   1.00
C343   C     0.16536   0.84402   0.56943   0.00000  Uiso   1.00
C344   C     0.17297   0.87849   0.47717   0.00000  Uiso   1.00
C345   C     0.18056   0.91298   0.58472   0.00000  Uiso   1.00
H346   H     0.15626   0.80298   0.98431   0.00000  Uiso   1.00
H347   H     0.19961   0.74704   0.04551   0.00000  Uiso   1.00
H348   H     0.09624   0.78350   0.94212   0.00000  Uiso   1.00
H349   H     0.17290   0.87839   0.01923   0.00000  Uiso   1.00
H350   H     0.24768   0.68502   0.02830   0.00000  Uiso   1.00
H351   H     0.02970   0.76192   0.81030   0.00000  Uiso   1.00
H352   H     0.19136   0.96201   0.97290   0.00000  Uiso   1.00
H353   H     0.15634   0.80309   0.32897   0.00000  Uiso   1.00
H354   H     0.19970   0.74716   0.35421   0.00000  Uiso   1.00
H355   H     0.09632   0.78362   0.25083   0.00000  Uiso   1.00
H356   H     0.17298   0.87851   0.32793   0.00000  Uiso   1.00
H357   H     0.24775   0.68512   0.46722   0.00000  Uiso   1.00
H358   H     0.02977   0.76201   0.24922   0.00000  Uiso   1.00
H359   H     0.19143   0.96211   0.41181   0.00000  Uiso   1.00
O360   O     0.27623   0.64826   0.77618   0.00000  Uiso   1.00
O361   O     0.99025   0.74915   0.49018   0.00000  Uiso   1.00
O362   O     0.20234   0.01167   0.70349   0.00000  Uiso   1.00
N363   N     0.24175   0.69273   0.89279   0.00000  Uiso   1.00
N364   N     0.03796   0.76461   0.68898   0.00000  Uiso   1.00
N365   N     0.18908   0.95169   0.84098   0.00000  Uiso   1.00
N366   N     0.24179   0.69278   0.59088   0.00000  Uiso   1.00
N367   N     0.03799   0.76466   0.38706   0.00000  Uiso   1.00
N368   N     0.18912   0.95174   0.53907   0.00000  Uiso   1.00
