data_job_03367
_audit_creation_date              2018-12-19
_audit_creation_method            'Materials Studio'
_symmetry_space_group_name_H-M    'P1'
_symmetry_Int_Tables_number       1
_symmetry_cell_setting            triclinic
loop_
_symmetry_equiv_pos_as_xyz
  x,y,z
_cell_length_a                    11.7531
_cell_length_b                    23.9252
_cell_length_c                    17.8614
_cell_angle_alpha                 90.0000
_cell_angle_beta                  90.0000
_cell_angle_gamma                 90.0000
loop_
_atom_site_label
_atom_site_type_symbol
_atom_site_fract_x
_atom_site_fract_y
_atom_site_fract_z
_atom_site_U_iso_or_equiv
_atom_site_adp_type
_atom_site_occupancy
C1     C     0.21535   0.81314   0.42392   0.00000  Uiso   1.00
C2     C     0.26340   0.81809   0.34489   0.00000  Uiso   1.00
C3     C     0.27510   0.77460   0.29406   0.00000  Uiso   1.00
C4     C     0.32095   0.78769   0.22461   0.00000  Uiso   1.00
C5     C     0.39060   0.78706   0.10463   0.00000  Uiso   1.00
C6     C     0.30722   0.83568   0.47611   0.00000  Uiso   1.00
C7     C     0.35573   0.80698   0.53561   0.00000  Uiso   1.00
C8     C     0.43845   0.83490   0.57662   0.00000  Uiso   1.00
C9     C     0.57606   0.86159   0.66040   0.00000  Uiso   1.00
C10    C     0.11701   0.85459   0.42817   0.00000  Uiso   1.00
C11    C     0.00560   0.84180   0.44739   0.00000  Uiso   1.00
C12    C     0.92819   0.88563   0.44806   0.00000  Uiso   1.00
C13    C     0.77047   0.94168   0.45741   0.00000  Uiso   1.00
C14    C     0.27599   0.91374   0.39096   0.00000  Uiso   1.00
C15    C     0.29634   0.87273   0.32699   0.00000  Uiso   1.00
C16    C     0.34218   0.88590   0.25759   0.00000  Uiso   1.00
C17    C     0.35394   0.84243   0.20667   0.00000  Uiso   1.00
C18    C     0.34015   0.89032   0.45820   0.00000  Uiso   1.00
C19    C     0.42281   0.91829   0.49914   0.00000  Uiso   1.00
C20    C     0.47145   0.88964   0.55868   0.00000  Uiso   1.00
C21    C     0.14994   0.90923   0.41027   0.00000  Uiso   1.00
C22    C     0.07269   0.95310   0.41091   0.00000  Uiso   1.00
C23    C     0.96118   0.94037   0.43012   0.00000  Uiso   1.00
H24    H     0.18972   0.77060   0.43786   0.00000  Uiso   1.00
H25    H     0.24961   0.73231   0.30794   0.00000  Uiso   1.00
H26    H     0.33022   0.76470   0.54945   0.00000  Uiso   1.00
H27    H     0.98015   0.79951   0.46124   0.00000  Uiso   1.00
H28    H     0.33057   0.71396   0.15601   0.00000  Uiso   1.00
H29    H     0.50051   0.78225   0.66527   0.00000  Uiso   1.00
H30    H     0.76232   0.85565   0.47926   0.00000  Uiso   1.00
H31    H     0.30163   0.95629   0.37702   0.00000  Uiso   1.00
H32    H     0.36766   0.92819   0.24375   0.00000  Uiso   1.00
H33    H     0.44828   0.96057   0.48527   0.00000  Uiso   1.00
H34    H     0.09820   0.99538   0.39706   0.00000  Uiso   1.00
H35    H     0.42639   0.87294   0.10392   0.00000  Uiso   1.00
H36    H     0.59633   0.94123   0.61318   0.00000  Uiso   1.00
H37    H     0.85814   0.01463   0.42717   0.00000  Uiso   1.00
O38    O     0.41993   0.77161   0.04341   0.00000  Uiso   1.00
O39    O     0.64287   0.86121   0.71155   0.00000  Uiso   1.00
O40    O     0.67438   0.95751   0.46750   0.00000  Uiso   1.00
N41    N     0.34404   0.75523   0.16203   0.00000  Uiso   1.00
N42    N     0.50294   0.81908   0.63816   0.00000  Uiso   1.00
N43    N     0.81279   0.88770   0.46427   0.00000  Uiso   1.00
N44    N     0.39560   0.84078   0.13400   0.00000  Uiso   1.00
N45    N     0.55450   0.90463   0.61013   0.00000  Uiso   1.00
N46    N     0.86435   0.97325   0.43624   0.00000  Uiso   1.00
C47    C     0.28465   0.68686   0.92392   0.00000  Uiso   1.00
C48    C     0.23660   0.68191   0.84489   0.00000  Uiso   1.00
C49    C     0.22490   0.72540   0.79406   0.00000  Uiso   1.00
C50    C     0.17905   0.71231   0.72461   0.00000  Uiso   1.00
C51    C     0.10940   0.71294   0.60463   0.00000  Uiso   1.00
C52    C     0.19278   0.66432   0.97611   0.00000  Uiso   1.00
C53    C     0.14427   0.69302   0.03561   0.00000  Uiso   1.00
C54    C     0.06155   0.66510   0.07662   0.00000  Uiso   1.00
C55    C     0.92394   0.63841   0.16040   0.00000  Uiso   1.00
C56    C     0.38299   0.64541   0.92817   0.00000  Uiso   1.00
C57    C     0.49440   0.65820   0.94739   0.00000  Uiso   1.00
C58    C     0.57181   0.61437   0.94806   0.00000  Uiso   1.00
C59    C     0.72953   0.55832   0.95741   0.00000  Uiso   1.00
C60    C     0.22401   0.58626   0.89096   0.00000  Uiso   1.00
C61    C     0.20366   0.62727   0.82699   0.00000  Uiso   1.00
C62    C     0.15782   0.61410   0.75759   0.00000  Uiso   1.00
C63    C     0.14606   0.65757   0.70667   0.00000  Uiso   1.00
C64    C     0.15985   0.60968   0.95820   0.00000  Uiso   1.00
C65    C     0.07719   0.58171   0.99914   0.00000  Uiso   1.00
C66    C     0.02855   0.61036   0.05868   0.00000  Uiso   1.00
C67    C     0.35006   0.59077   0.91027   0.00000  Uiso   1.00
C68    C     0.42731   0.54690   0.91091   0.00000  Uiso   1.00
C69    C     0.53882   0.55963   0.93012   0.00000  Uiso   1.00
H70    H     0.31028   0.72940   0.93786   0.00000  Uiso   1.00
H71    H     0.25039   0.76769   0.80794   0.00000  Uiso   1.00
H72    H     0.16978   0.73530   0.04945   0.00000  Uiso   1.00
H73    H     0.51985   0.70049   0.96124   0.00000  Uiso   1.00
H74    H     0.16943   0.78604   0.65601   0.00000  Uiso   1.00
H75    H     0.99949   0.71775   0.16527   0.00000  Uiso   1.00
H76    H     0.73768   0.64435   0.97926   0.00000  Uiso   1.00
H77    H     0.19837   0.54371   0.87702   0.00000  Uiso   1.00
H78    H     0.13234   0.57181   0.74375   0.00000  Uiso   1.00
H79    H     0.05172   0.53943   0.98527   0.00000  Uiso   1.00
H80    H     0.40180   0.50462   0.89706   0.00000  Uiso   1.00
H81    H     0.07361   0.62706   0.60392   0.00000  Uiso   1.00
H82    H     0.90367   0.55877   0.11318   0.00000  Uiso   1.00
H83    H     0.64186   0.48537   0.92717   0.00000  Uiso   1.00
O84    O     0.08007   0.72839   0.54341   0.00000  Uiso   1.00
O85    O     0.85713   0.63879   0.21155   0.00000  Uiso   1.00
O86    O     0.82562   0.54249   0.96750   0.00000  Uiso   1.00
N87    N     0.15596   0.74477   0.66203   0.00000  Uiso   1.00
N88    N     0.99706   0.68092   0.13816   0.00000  Uiso   1.00
N89    N     0.68721   0.61230   0.96427   0.00000  Uiso   1.00
N90    N     0.10440   0.65922   0.63400   0.00000  Uiso   1.00
N91    N     0.94550   0.59537   0.11013   0.00000  Uiso   1.00
N92    N     0.63565   0.52675   0.93624   0.00000  Uiso   1.00
C93    C     0.78465   0.81314   0.07608   0.00000  Uiso   1.00
C94    C     0.73660   0.81809   0.15511   0.00000  Uiso   1.00
C95    C     0.72490   0.77460   0.20594   0.00000  Uiso   1.00
C96    C     0.67905   0.78769   0.27539   0.00000  Uiso   1.00
C97    C     0.60940   0.78706   0.39537   0.00000  Uiso   1.00
C98    C     0.69278   0.83568   0.02389   0.00000  Uiso   1.00
C99    C     0.64427   0.80698   0.96439   0.00000  Uiso   1.00
C100   C     0.56155   0.83490   0.92338   0.00000  Uiso   1.00
C101   C     0.42394   0.86159   0.83960   0.00000  Uiso   1.00
C102   C     0.88299   0.85459   0.07183   0.00000  Uiso   1.00
C103   C     0.99440   0.84180   0.05261   0.00000  Uiso   1.00
C104   C     0.07181   0.88563   0.05194   0.00000  Uiso   1.00
C105   C     0.22953   0.94168   0.04259   0.00000  Uiso   1.00
C106   C     0.72401   0.91374   0.10904   0.00000  Uiso   1.00
C107   C     0.70366   0.87273   0.17301   0.00000  Uiso   1.00
C108   C     0.65782   0.88590   0.24241   0.00000  Uiso   1.00
C109   C     0.64606   0.84243   0.29333   0.00000  Uiso   1.00
C110   C     0.65985   0.89032   0.04180   0.00000  Uiso   1.00
C111   C     0.57719   0.91829   0.00086   0.00000  Uiso   1.00
C112   C     0.52855   0.88964   0.94132   0.00000  Uiso   1.00
C113   C     0.85006   0.90923   0.08973   0.00000  Uiso   1.00
C114   C     0.92731   0.95310   0.08909   0.00000  Uiso   1.00
C115   C     0.03882   0.94037   0.06988   0.00000  Uiso   1.00
H116   H     0.81028   0.77060   0.06214   0.00000  Uiso   1.00
H117   H     0.75039   0.73231   0.19206   0.00000  Uiso   1.00
H118   H     0.66978   0.76470   0.95055   0.00000  Uiso   1.00
H119   H     0.01985   0.79951   0.03876   0.00000  Uiso   1.00
H120   H     0.66943   0.71396   0.34399   0.00000  Uiso   1.00
H121   H     0.49949   0.78225   0.83473   0.00000  Uiso   1.00
H122   H     0.23768   0.85565   0.02074   0.00000  Uiso   1.00
H123   H     0.69837   0.95629   0.12298   0.00000  Uiso   1.00
H124   H     0.63234   0.92819   0.25625   0.00000  Uiso   1.00
H125   H     0.55172   0.96057   0.01473   0.00000  Uiso   1.00
H126   H     0.90180   0.99538   0.10294   0.00000  Uiso   1.00
H127   H     0.57361   0.87294   0.39608   0.00000  Uiso   1.00
H128   H     0.40367   0.94123   0.88682   0.00000  Uiso   1.00
H129   H     0.14186   0.01463   0.07283   0.00000  Uiso   1.00
O130   O     0.58007   0.77161   0.45659   0.00000  Uiso   1.00
O131   O     0.35713   0.86121   0.78845   0.00000  Uiso   1.00
O132   O     0.32562   0.95751   0.03250   0.00000  Uiso   1.00
N133   N     0.65596   0.75523   0.33797   0.00000  Uiso   1.00
N134   N     0.49706   0.81908   0.86184   0.00000  Uiso   1.00
N135   N     0.18721   0.88770   0.03573   0.00000  Uiso   1.00
N136   N     0.60440   0.84078   0.36600   0.00000  Uiso   1.00
N137   N     0.44550   0.90463   0.88987   0.00000  Uiso   1.00
N138   N     0.13565   0.97325   0.06376   0.00000  Uiso   1.00
C139   C     0.71535   0.68686   0.57608   0.00000  Uiso   1.00
C140   C     0.76340   0.68191   0.65511   0.00000  Uiso   1.00
C141   C     0.77510   0.72540   0.70594   0.00000  Uiso   1.00
C142   C     0.82095   0.71231   0.77539   0.00000  Uiso   1.00
C143   C     0.89060   0.71294   0.89537   0.00000  Uiso   1.00
C144   C     0.80722   0.66432   0.52389   0.00000  Uiso   1.00
C145   C     0.85573   0.69302   0.46439   0.00000  Uiso   1.00
C146   C     0.93845   0.66510   0.42338   0.00000  Uiso   1.00
C147   C     0.07606   0.63841   0.33960   0.00000  Uiso   1.00
C148   C     0.61701   0.64541   0.57183   0.00000  Uiso   1.00
C149   C     0.50560   0.65820   0.55261   0.00000  Uiso   1.00
C150   C     0.42819   0.61437   0.55194   0.00000  Uiso   1.00
C151   C     0.27047   0.55832   0.54259   0.00000  Uiso   1.00
C152   C     0.77599   0.58626   0.60904   0.00000  Uiso   1.00
C153   C     0.79634   0.62727   0.67301   0.00000  Uiso   1.00
C154   C     0.84218   0.61410   0.74241   0.00000  Uiso   1.00
C155   C     0.85394   0.65757   0.79333   0.00000  Uiso   1.00
C156   C     0.84015   0.60968   0.54180   0.00000  Uiso   1.00
C157   C     0.92281   0.58171   0.50086   0.00000  Uiso   1.00
C158   C     0.97145   0.61036   0.44132   0.00000  Uiso   1.00
C159   C     0.64994   0.59077   0.58973   0.00000  Uiso   1.00
C160   C     0.57269   0.54690   0.58909   0.00000  Uiso   1.00
C161   C     0.46118   0.55963   0.56988   0.00000  Uiso   1.00
H162   H     0.68972   0.72940   0.56214   0.00000  Uiso   1.00
H163   H     0.74961   0.76769   0.69206   0.00000  Uiso   1.00
H164   H     0.83022   0.73530   0.45055   0.00000  Uiso   1.00
H165   H     0.48015   0.70049   0.53876   0.00000  Uiso   1.00
H166   H     0.83057   0.78604   0.84399   0.00000  Uiso   1.00
H167   H     0.00051   0.71775   0.33473   0.00000  Uiso   1.00
H168   H     0.26232   0.64435   0.52074   0.00000  Uiso   1.00
H169   H     0.80163   0.54371   0.62298   0.00000  Uiso   1.00
H170   H     0.86766   0.57181   0.75625   0.00000  Uiso   1.00
H171   H     0.94828   0.53943   0.51473   0.00000  Uiso   1.00
H172   H     0.59820   0.50462   0.60294   0.00000  Uiso   1.00
H173   H     0.92639   0.62706   0.89608   0.00000  Uiso   1.00
H174   H     0.09633   0.55877   0.38682   0.00000  Uiso   1.00
H175   H     0.35814   0.48537   0.57283   0.00000  Uiso   1.00
O176   O     0.91993   0.72839   0.95659   0.00000  Uiso   1.00
O177   O     0.14287   0.63879   0.28845   0.00000  Uiso   1.00
O178   O     0.17438   0.54249   0.53250   0.00000  Uiso   1.00
N179   N     0.84404   0.74477   0.83797   0.00000  Uiso   1.00
N180   N     0.00294   0.68092   0.36184   0.00000  Uiso   1.00
N181   N     0.31279   0.61230   0.53573   0.00000  Uiso   1.00
N182   N     0.89560   0.65922   0.86600   0.00000  Uiso   1.00
N183   N     0.05450   0.59537   0.38987   0.00000  Uiso   1.00
N184   N     0.36435   0.52675   0.56376   0.00000  Uiso   1.00
C185   C     0.78465   0.18686   0.57608   0.00000  Uiso   1.00
C186   C     0.73660   0.18191   0.65511   0.00000  Uiso   1.00
C187   C     0.72490   0.22540   0.70594   0.00000  Uiso   1.00
C188   C     0.67905   0.21231   0.77539   0.00000  Uiso   1.00
C189   C     0.60940   0.21294   0.89537   0.00000  Uiso   1.00
C190   C     0.69278   0.16432   0.52389   0.00000  Uiso   1.00
C191   C     0.64427   0.19302   0.46439   0.00000  Uiso   1.00
C192   C     0.56155   0.16510   0.42338   0.00000  Uiso   1.00
C193   C     0.42394   0.13841   0.33960   0.00000  Uiso   1.00
C194   C     0.88299   0.14541   0.57183   0.00000  Uiso   1.00
C195   C     0.99440   0.15820   0.55261   0.00000  Uiso   1.00
C196   C     0.07181   0.11437   0.55194   0.00000  Uiso   1.00
C197   C     0.22953   0.05832   0.54259   0.00000  Uiso   1.00
C198   C     0.72401   0.08626   0.60904   0.00000  Uiso   1.00
C199   C     0.70366   0.12727   0.67301   0.00000  Uiso   1.00
C200   C     0.65782   0.11410   0.74241   0.00000  Uiso   1.00
C201   C     0.64606   0.15757   0.79333   0.00000  Uiso   1.00
C202   C     0.65985   0.10968   0.54180   0.00000  Uiso   1.00
C203   C     0.57719   0.08171   0.50086   0.00000  Uiso   1.00
C204   C     0.52855   0.11036   0.44132   0.00000  Uiso   1.00
C205   C     0.85006   0.09077   0.58973   0.00000  Uiso   1.00
C206   C     0.92731   0.04690   0.58909   0.00000  Uiso   1.00
C207   C     0.03882   0.05963   0.56988   0.00000  Uiso   1.00
H208   H     0.81028   0.22940   0.56214   0.00000  Uiso   1.00
H209   H     0.75039   0.26769   0.69206   0.00000  Uiso   1.00
H210   H     0.66978   0.23530   0.45055   0.00000  Uiso   1.00
H211   H     0.01985   0.20049   0.53876   0.00000  Uiso   1.00
H212   H     0.66943   0.28604   0.84399   0.00000  Uiso   1.00
H213   H     0.49949   0.21775   0.33473   0.00000  Uiso   1.00
H214   H     0.23768   0.14435   0.52074   0.00000  Uiso   1.00
H215   H     0.69837   0.04371   0.62298   0.00000  Uiso   1.00
H216   H     0.63234   0.07181   0.75625   0.00000  Uiso   1.00
H217   H     0.55172   0.03943   0.51473   0.00000  Uiso   1.00
H218   H     0.90180   0.00462   0.60294   0.00000  Uiso   1.00
H219   H     0.57361   0.12706   0.89608   0.00000  Uiso   1.00
H220   H     0.40367   0.05877   0.38682   0.00000  Uiso   1.00
H221   H     0.14186   0.98537   0.57283   0.00000  Uiso   1.00
O222   O     0.58007   0.22839   0.95659   0.00000  Uiso   1.00
O223   O     0.35713   0.13879   0.28845   0.00000  Uiso   1.00
O224   O     0.32562   0.04249   0.53250   0.00000  Uiso   1.00
N225   N     0.65596   0.24477   0.83797   0.00000  Uiso   1.00
N226   N     0.49706   0.18092   0.36184   0.00000  Uiso   1.00
N227   N     0.18721   0.11230   0.53573   0.00000  Uiso   1.00
N228   N     0.60440   0.15922   0.86600   0.00000  Uiso   1.00
N229   N     0.44550   0.09537   0.38987   0.00000  Uiso   1.00
N230   N     0.13565   0.02675   0.56376   0.00000  Uiso   1.00
C231   C     0.71535   0.31314   0.07608   0.00000  Uiso   1.00
C232   C     0.76340   0.31809   0.15511   0.00000  Uiso   1.00
C233   C     0.77510   0.27460   0.20594   0.00000  Uiso   1.00
C234   C     0.82095   0.28769   0.27539   0.00000  Uiso   1.00
C235   C     0.89060   0.28706   0.39537   0.00000  Uiso   1.00
C236   C     0.80722   0.33568   0.02389   0.00000  Uiso   1.00
C237   C     0.85573   0.30698   0.96439   0.00000  Uiso   1.00
C238   C     0.93845   0.33490   0.92338   0.00000  Uiso   1.00
C239   C     0.07606   0.36159   0.83960   0.00000  Uiso   1.00
C240   C     0.61701   0.35459   0.07183   0.00000  Uiso   1.00
C241   C     0.50560   0.34180   0.05261   0.00000  Uiso   1.00
C242   C     0.42819   0.38563   0.05194   0.00000  Uiso   1.00
C243   C     0.27047   0.44168   0.04259   0.00000  Uiso   1.00
C244   C     0.77599   0.41374   0.10904   0.00000  Uiso   1.00
C245   C     0.79634   0.37273   0.17301   0.00000  Uiso   1.00
C246   C     0.84218   0.38590   0.24241   0.00000  Uiso   1.00
C247   C     0.85394   0.34243   0.29333   0.00000  Uiso   1.00
C248   C     0.84015   0.39032   0.04180   0.00000  Uiso   1.00
C249   C     0.92281   0.41829   0.00086   0.00000  Uiso   1.00
C250   C     0.97145   0.38964   0.94132   0.00000  Uiso   1.00
C251   C     0.64994   0.40923   0.08973   0.00000  Uiso   1.00
C252   C     0.57269   0.45310   0.08909   0.00000  Uiso   1.00
C253   C     0.46118   0.44037   0.06988   0.00000  Uiso   1.00
H254   H     0.68972   0.27060   0.06214   0.00000  Uiso   1.00
H255   H     0.74961   0.23231   0.19206   0.00000  Uiso   1.00
H256   H     0.83022   0.26470   0.95055   0.00000  Uiso   1.00
H257   H     0.48015   0.29951   0.03876   0.00000  Uiso   1.00
H258   H     0.83057   0.21396   0.34399   0.00000  Uiso   1.00
H259   H     0.00051   0.28225   0.83473   0.00000  Uiso   1.00
H260   H     0.26232   0.35565   0.02074   0.00000  Uiso   1.00
H261   H     0.80163   0.45629   0.12298   0.00000  Uiso   1.00
H262   H     0.86766   0.42819   0.25625   0.00000  Uiso   1.00
H263   H     0.94828   0.46057   0.01473   0.00000  Uiso   1.00
H264   H     0.59820   0.49538   0.10294   0.00000  Uiso   1.00
H265   H     0.92639   0.37294   0.39608   0.00000  Uiso   1.00
H266   H     0.09633   0.44123   0.88682   0.00000  Uiso   1.00
H267   H     0.35814   0.51463   0.07283   0.00000  Uiso   1.00
O268   O     0.91993   0.27161   0.45659   0.00000  Uiso   1.00
O269   O     0.14287   0.36121   0.78845   0.00000  Uiso   1.00
O270   O     0.17438   0.45751   0.03250   0.00000  Uiso   1.00
N271   N     0.84404   0.25523   0.33797   0.00000  Uiso   1.00
N272   N     0.00294   0.31908   0.86184   0.00000  Uiso   1.00
N273   N     0.31279   0.38770   0.03573   0.00000  Uiso   1.00
N274   N     0.89560   0.34078   0.36600   0.00000  Uiso   1.00
N275   N     0.05450   0.40463   0.88987   0.00000  Uiso   1.00
N276   N     0.36435   0.47325   0.06376   0.00000  Uiso   1.00
C277   C     0.21535   0.18686   0.92392   0.00000  Uiso   1.00
C278   C     0.26340   0.18191   0.84489   0.00000  Uiso   1.00
C279   C     0.27510   0.22540   0.79406   0.00000  Uiso   1.00
C280   C     0.32095   0.21231   0.72461   0.00000  Uiso   1.00
C281   C     0.39060   0.21294   0.60463   0.00000  Uiso   1.00
C282   C     0.30722   0.16432   0.97611   0.00000  Uiso   1.00
C283   C     0.35573   0.19302   0.03561   0.00000  Uiso   1.00
C284   C     0.43845   0.16510   0.07662   0.00000  Uiso   1.00
C285   C     0.57606   0.13841   0.16040   0.00000  Uiso   1.00
C286   C     0.11701   0.14541   0.92817   0.00000  Uiso   1.00
C287   C     0.00560   0.15820   0.94739   0.00000  Uiso   1.00
C288   C     0.92819   0.11437   0.94806   0.00000  Uiso   1.00
C289   C     0.77047   0.05832   0.95741   0.00000  Uiso   1.00
C290   C     0.27599   0.08626   0.89096   0.00000  Uiso   1.00
C291   C     0.29634   0.12727   0.82699   0.00000  Uiso   1.00
C292   C     0.34218   0.11410   0.75759   0.00000  Uiso   1.00
C293   C     0.35394   0.15757   0.70667   0.00000  Uiso   1.00
C294   C     0.34015   0.10968   0.95820   0.00000  Uiso   1.00
C295   C     0.42281   0.08171   0.99914   0.00000  Uiso   1.00
C296   C     0.47145   0.11036   0.05868   0.00000  Uiso   1.00
C297   C     0.14994   0.09077   0.91027   0.00000  Uiso   1.00
C298   C     0.07269   0.04690   0.91091   0.00000  Uiso   1.00
C299   C     0.96118   0.05963   0.93012   0.00000  Uiso   1.00
H300   H     0.18972   0.22940   0.93786   0.00000  Uiso   1.00
H301   H     0.24961   0.26769   0.80794   0.00000  Uiso   1.00
H302   H     0.33022   0.23530   0.04945   0.00000  Uiso   1.00
H303   H     0.98015   0.20049   0.96124   0.00000  Uiso   1.00
H304   H     0.33057   0.28604   0.65601   0.00000  Uiso   1.00
H305   H     0.50051   0.21775   0.16527   0.00000  Uiso   1.00
H306   H     0.76232   0.14435   0.97926   0.00000  Uiso   1.00
H307   H     0.30163   0.04371   0.87702   0.00000  Uiso   1.00
H308   H     0.36766   0.07181   0.74375   0.00000  Uiso   1.00
H309   H     0.44828   0.03943   0.98527   0.00000  Uiso   1.00
H310   H     0.09820   0.00462   0.89706   0.00000  Uiso   1.00
H311   H     0.42639   0.12706   0.60392   0.00000  Uiso   1.00
H312   H     0.59633   0.05877   0.11318   0.00000  Uiso   1.00
H313   H     0.85814   0.98537   0.92717   0.00000  Uiso   1.00
O314   O     0.41993   0.22839   0.54341   0.00000  Uiso   1.00
O315   O     0.64287   0.13879   0.21155   0.00000  Uiso   1.00
O316   O     0.67438   0.04249   0.96750   0.00000  Uiso   1.00
N317   N     0.34404   0.24477   0.66203   0.00000  Uiso   1.00
N318   N     0.50294   0.18092   0.13816   0.00000  Uiso   1.00
N319   N     0.81279   0.11230   0.96427   0.00000  Uiso   1.00
N320   N     0.39560   0.15922   0.63400   0.00000  Uiso   1.00
N321   N     0.55450   0.09537   0.11013   0.00000  Uiso   1.00
N322   N     0.86435   0.02675   0.93624   0.00000  Uiso   1.00
C323   C     0.28465   0.31314   0.42392   0.00000  Uiso   1.00
C324   C     0.23660   0.31809   0.34489   0.00000  Uiso   1.00
C325   C     0.22490   0.27460   0.29406   0.00000  Uiso   1.00
C326   C     0.17905   0.28769   0.22461   0.00000  Uiso   1.00
C327   C     0.10940   0.28706   0.10463   0.00000  Uiso   1.00
C328   C     0.19278   0.33568   0.47611   0.00000  Uiso   1.00
C329   C     0.14427   0.30698   0.53561   0.00000  Uiso   1.00
C330   C     0.06155   0.33490   0.57662   0.00000  Uiso   1.00
C331   C     0.92394   0.36159   0.66040   0.00000  Uiso   1.00
C332   C     0.38299   0.35459   0.42817   0.00000  Uiso   1.00
C333   C     0.49440   0.34180   0.44739   0.00000  Uiso   1.00
C334   C     0.57181   0.38563   0.44806   0.00000  Uiso   1.00
C335   C     0.72953   0.44168   0.45741   0.00000  Uiso   1.00
C336   C     0.22401   0.41374   0.39096   0.00000  Uiso   1.00
C337   C     0.20366   0.37273   0.32699   0.00000  Uiso   1.00
C338   C     0.15782   0.38590   0.25759   0.00000  Uiso   1.00
C339   C     0.14606   0.34243   0.20667   0.00000  Uiso   1.00
C340   C     0.15985   0.39032   0.45820   0.00000  Uiso   1.00
C341   C     0.07719   0.41829   0.49914   0.00000  Uiso   1.00
C342   C     0.02855   0.38964   0.55868   0.00000  Uiso   1.00
C343   C     0.35006   0.40923   0.41027   0.00000  Uiso   1.00
C344   C     0.42731   0.45310   0.41091   0.00000  Uiso   1.00
C345   C     0.53882   0.44037   0.43012   0.00000  Uiso   1.00
H346   H     0.31028   0.27060   0.43786   0.00000  Uiso   1.00
H347   H     0.25039   0.23231   0.30794   0.00000  Uiso   1.00
H348   H     0.16978   0.26470   0.54945   0.00000  Uiso   1.00
H349   H     0.51985   0.29951   0.46124   0.00000  Uiso   1.00
H350   H     0.16943   0.21396   0.15601   0.00000  Uiso   1.00
H351   H     0.99949   0.28225   0.66527   0.00000  Uiso   1.00
H352   H     0.73768   0.35565   0.47926   0.00000  Uiso   1.00
H353   H     0.19837   0.45629   0.37702   0.00000  Uiso   1.00
H354   H     0.13234   0.42819   0.24375   0.00000  Uiso   1.00
H355   H     0.05172   0.46057   0.48527   0.00000  Uiso   1.00
H356   H     0.40180   0.49538   0.39706   0.00000  Uiso   1.00
H357   H     0.07361   0.37294   0.10392   0.00000  Uiso   1.00
H358   H     0.90367   0.44123   0.61318   0.00000  Uiso   1.00
H359   H     0.64186   0.51463   0.42717   0.00000  Uiso   1.00
O360   O     0.08007   0.27161   0.04341   0.00000  Uiso   1.00
O361   O     0.85713   0.36121   0.71155   0.00000  Uiso   1.00
O362   O     0.82562   0.45751   0.46750   0.00000  Uiso   1.00
N363   N     0.15596   0.25523   0.16203   0.00000  Uiso   1.00
N364   N     0.99706   0.31908   0.63816   0.00000  Uiso   1.00
N365   N     0.68721   0.38770   0.46427   0.00000  Uiso   1.00
N366   N     0.10440   0.34078   0.13400   0.00000  Uiso   1.00
N367   N     0.94550   0.40463   0.61013   0.00000  Uiso   1.00
N368   N     0.63565   0.47325   0.43624   0.00000  Uiso   1.00
