data_job_03518
_audit_creation_date              2018-12-19
_audit_creation_method            'Materials Studio'
_symmetry_space_group_name_H-M    'P1'
_symmetry_Int_Tables_number       1
_symmetry_cell_setting            triclinic
loop_
_symmetry_equiv_pos_as_xyz
  x,y,z
_cell_length_a                    17.2699
_cell_length_b                    12.5385
_cell_length_c                    23.1460
_cell_angle_alpha                 90.0000
_cell_angle_beta                  116.6892
_cell_angle_gamma                 90.0000
loop_
_atom_site_label
_atom_site_type_symbol
_atom_site_fract_x
_atom_site_fract_y
_atom_site_fract_z
_atom_site_U_iso_or_equiv
_atom_site_adp_type
_atom_site_occupancy
C1     C     0.15378   0.40178   0.66965   0.00000  Uiso   1.00
C2     C     0.22408   0.41863   0.73860   0.00000  Uiso   1.00
C3     C     0.21369   0.40709   0.79435   0.00000  Uiso   1.00
C4     C     0.28590   0.42611   0.85282   0.00000  Uiso   1.00
C5     C     0.38293   0.44783   0.95950   0.00000  Uiso   1.00
C6     C     0.14861   0.50559   0.63376   0.00000  Uiso   1.00
C7     C     0.07475   0.56716   0.60135   0.00000  Uiso   1.00
C8     C     0.08343   0.65938   0.57155   0.00000  Uiso   1.00
C9     C     0.06327   0.81607   0.51542   0.00000  Uiso   1.00
C10    C     0.18920   0.31834   0.63981   0.00000  Uiso   1.00
C11    C     0.14946   0.22248   0.61246   0.00000  Uiso   1.00
C12    C     0.19230   0.15706   0.58774   0.00000  Uiso   1.00
C13    C     0.23516   0.02302   0.54100   0.00000  Uiso   1.00
C14    C     0.30051   0.45606   0.67436   0.00000  Uiso   1.00
C15    C     0.30378   0.44811   0.74116   0.00000  Uiso   1.00
C16    C     0.37603   0.46715   0.79957   0.00000  Uiso   1.00
C17    C     0.36574   0.45564   0.85539   0.00000  Uiso   1.00
C18    C     0.22830   0.53508   0.63632   0.00000  Uiso   1.00
C19    C     0.23709   0.62722   0.60657   0.00000  Uiso   1.00
C20    C     0.16327   0.68892   0.57412   0.00000  Uiso   1.00
C21    C     0.26889   0.34782   0.64237   0.00000  Uiso   1.00
C22    C     0.31180   0.28254   0.61768   0.00000  Uiso   1.00
C23    C     0.27214   0.18660   0.59031   0.00000  Uiso   1.00
H24    H     0.09173   0.37883   0.66765   0.00000  Uiso   1.00
H25    H     0.15200   0.38428   0.79234   0.00000  Uiso   1.00
H26    H     0.01309   0.54432   0.59937   0.00000  Uiso   1.00
H27    H     0.08779   0.19969   0.61048   0.00000  Uiso   1.00
H28    H     0.25396   0.40336   0.93172   0.00000  Uiso   1.00
H29    H     0.96104   0.74080   0.52480   0.00000  Uiso   1.00
H30    H     0.11856   0.01408   0.54824   0.00000  Uiso   1.00
H31    H     0.36255   0.47902   0.67636   0.00000  Uiso   1.00
H32    H     0.43769   0.48996   0.80153   0.00000  Uiso   1.00
H33    H     0.29877   0.65001   0.60856   0.00000  Uiso   1.00
H34    H     0.37347   0.30538   0.61967   0.00000  Uiso   1.00
H35    H     0.48583   0.48915   0.93918   0.00000  Uiso   1.00
H36    H     0.19291   0.82658   0.53226   0.00000  Uiso   1.00
H37    H     0.35043   0.09986   0.55570   0.00000  Uiso   1.00
O38    O     0.41443   0.45168   0.01764   0.00000  Uiso   1.00
O39    O     0.03013   0.89437   0.48376   0.00000  Uiso   1.00
O40    O     0.23679   0.94093   0.51452   0.00000  Uiso   1.00
N41    N     0.29822   0.42203   0.91630   0.00000  Uiso   1.00
N42    N     0.02437   0.73752   0.53586   0.00000  Uiso   1.00
N43    N     0.17162   0.05811   0.55776   0.00000  Uiso   1.00
N44    N     0.42299   0.46819   0.92031   0.00000  Uiso   1.00
N45    N     0.14914   0.78368   0.53987   0.00000  Uiso   1.00
N46    N     0.29639   0.10427   0.56177   0.00000  Uiso   1.00
C47    C     0.84622   0.90178   0.83035   0.00000  Uiso   1.00
C48    C     0.77592   0.91863   0.76140   0.00000  Uiso   1.00
C49    C     0.78631   0.90709   0.70565   0.00000  Uiso   1.00
C50    C     0.71410   0.92611   0.64718   0.00000  Uiso   1.00
C51    C     0.61707   0.94783   0.54050   0.00000  Uiso   1.00
C52    C     0.85139   0.00559   0.86624   0.00000  Uiso   1.00
C53    C     0.92525   0.06716   0.89865   0.00000  Uiso   1.00
C54    C     0.91657   0.15938   0.92845   0.00000  Uiso   1.00
C55    C     0.93673   0.31607   0.98458   0.00000  Uiso   1.00
C56    C     0.81080   0.81834   0.86019   0.00000  Uiso   1.00
C57    C     0.85054   0.72248   0.88754   0.00000  Uiso   1.00
C58    C     0.80770   0.65706   0.91226   0.00000  Uiso   1.00
C59    C     0.76484   0.52302   0.95900   0.00000  Uiso   1.00
C60    C     0.69949   0.95606   0.82564   0.00000  Uiso   1.00
C61    C     0.69622   0.94811   0.75884   0.00000  Uiso   1.00
C62    C     0.62397   0.96715   0.70043   0.00000  Uiso   1.00
C63    C     0.63426   0.95564   0.64461   0.00000  Uiso   1.00
C64    C     0.77170   0.03508   0.86368   0.00000  Uiso   1.00
C65    C     0.76291   0.12722   0.89343   0.00000  Uiso   1.00
C66    C     0.83673   0.18892   0.92588   0.00000  Uiso   1.00
C67    C     0.73111   0.84782   0.85763   0.00000  Uiso   1.00
C68    C     0.68820   0.78254   0.88232   0.00000  Uiso   1.00
C69    C     0.72786   0.68660   0.90969   0.00000  Uiso   1.00
H70    H     0.90827   0.87883   0.83235   0.00000  Uiso   1.00
H71    H     0.84800   0.88428   0.70766   0.00000  Uiso   1.00
H72    H     0.98691   0.04432   0.90063   0.00000  Uiso   1.00
H73    H     0.91221   0.69969   0.88952   0.00000  Uiso   1.00
H74    H     0.74604   0.90336   0.56828   0.00000  Uiso   1.00
H75    H     0.03896   0.24080   0.97520   0.00000  Uiso   1.00
H76    H     0.88144   0.51408   0.95176   0.00000  Uiso   1.00
H77    H     0.63745   0.97902   0.82364   0.00000  Uiso   1.00
H78    H     0.56231   0.98996   0.69847   0.00000  Uiso   1.00
H79    H     0.70123   0.15001   0.89144   0.00000  Uiso   1.00
H80    H     0.62653   0.80538   0.88033   0.00000  Uiso   1.00
H81    H     0.51417   0.98915   0.56082   0.00000  Uiso   1.00
H82    H     0.80709   0.32658   0.96774   0.00000  Uiso   1.00
H83    H     0.64957   0.59986   0.94430   0.00000  Uiso   1.00
O84    O     0.58557   0.95168   0.48236   0.00000  Uiso   1.00
O85    O     0.96987   0.39437   0.01624   0.00000  Uiso   1.00
O86    O     0.76321   0.44093   0.98548   0.00000  Uiso   1.00
N87    N     0.70178   0.92203   0.58370   0.00000  Uiso   1.00
N88    N     0.97563   0.23752   0.96414   0.00000  Uiso   1.00
N89    N     0.82838   0.55811   0.94224   0.00000  Uiso   1.00
N90    N     0.57701   0.96819   0.57969   0.00000  Uiso   1.00
N91    N     0.85086   0.28368   0.96013   0.00000  Uiso   1.00
N92    N     0.70361   0.60427   0.93823   0.00000  Uiso   1.00
C93    C     0.84622   0.59822   0.33035   0.00000  Uiso   1.00
C94    C     0.77592   0.58137   0.26140   0.00000  Uiso   1.00
C95    C     0.78631   0.59291   0.20565   0.00000  Uiso   1.00
C96    C     0.71410   0.57389   0.14718   0.00000  Uiso   1.00
C97    C     0.61707   0.55217   0.04050   0.00000  Uiso   1.00
C98    C     0.85139   0.49441   0.36624   0.00000  Uiso   1.00
C99    C     0.92525   0.43284   0.39865   0.00000  Uiso   1.00
C100   C     0.91657   0.34062   0.42845   0.00000  Uiso   1.00
C101   C     0.93673   0.18393   0.48458   0.00000  Uiso   1.00
C102   C     0.81080   0.68166   0.36019   0.00000  Uiso   1.00
C103   C     0.85054   0.77752   0.38754   0.00000  Uiso   1.00
C104   C     0.80770   0.84294   0.41226   0.00000  Uiso   1.00
C105   C     0.76484   0.97698   0.45900   0.00000  Uiso   1.00
C106   C     0.69949   0.54394   0.32564   0.00000  Uiso   1.00
C107   C     0.69622   0.55189   0.25884   0.00000  Uiso   1.00
C108   C     0.62397   0.53285   0.20043   0.00000  Uiso   1.00
C109   C     0.63426   0.54436   0.14461   0.00000  Uiso   1.00
C110   C     0.77170   0.46492   0.36368   0.00000  Uiso   1.00
C111   C     0.76291   0.37278   0.39343   0.00000  Uiso   1.00
C112   C     0.83673   0.31108   0.42588   0.00000  Uiso   1.00
C113   C     0.73111   0.65218   0.35763   0.00000  Uiso   1.00
C114   C     0.68820   0.71746   0.38232   0.00000  Uiso   1.00
C115   C     0.72786   0.81340   0.40969   0.00000  Uiso   1.00
H116   H     0.90827   0.62117   0.33235   0.00000  Uiso   1.00
H117   H     0.84800   0.61572   0.20766   0.00000  Uiso   1.00
H118   H     0.98691   0.45568   0.40063   0.00000  Uiso   1.00
H119   H     0.91221   0.80031   0.38952   0.00000  Uiso   1.00
H120   H     0.74604   0.59664   0.06828   0.00000  Uiso   1.00
H121   H     0.03896   0.25920   0.47520   0.00000  Uiso   1.00
H122   H     0.88144   0.98592   0.45176   0.00000  Uiso   1.00
H123   H     0.63745   0.52098   0.32364   0.00000  Uiso   1.00
H124   H     0.56231   0.51004   0.19847   0.00000  Uiso   1.00
H125   H     0.70123   0.34999   0.39144   0.00000  Uiso   1.00
H126   H     0.62653   0.69462   0.38033   0.00000  Uiso   1.00
H127   H     0.51417   0.51085   0.06082   0.00000  Uiso   1.00
H128   H     0.80709   0.17342   0.46774   0.00000  Uiso   1.00
H129   H     0.64957   0.90014   0.44430   0.00000  Uiso   1.00
O130   O     0.58557   0.54832   0.98236   0.00000  Uiso   1.00
O131   O     0.96987   0.10563   0.51624   0.00000  Uiso   1.00
O132   O     0.76321   0.05907   0.48548   0.00000  Uiso   1.00
N133   N     0.70178   0.57797   0.08370   0.00000  Uiso   1.00
N134   N     0.97563   0.26248   0.46414   0.00000  Uiso   1.00
N135   N     0.82838   0.94189   0.44224   0.00000  Uiso   1.00
N136   N     0.57701   0.53181   0.07969   0.00000  Uiso   1.00
N137   N     0.85086   0.21632   0.46013   0.00000  Uiso   1.00
N138   N     0.70361   0.89573   0.43823   0.00000  Uiso   1.00
C139   C     0.15378   0.09822   0.16965   0.00000  Uiso   1.00
C140   C     0.22408   0.08137   0.23860   0.00000  Uiso   1.00
C141   C     0.21369   0.09291   0.29435   0.00000  Uiso   1.00
C142   C     0.28590   0.07389   0.35282   0.00000  Uiso   1.00
C143   C     0.38293   0.05217   0.45950   0.00000  Uiso   1.00
C144   C     0.14861   0.99441   0.13376   0.00000  Uiso   1.00
C145   C     0.07475   0.93284   0.10135   0.00000  Uiso   1.00
C146   C     0.08343   0.84062   0.07155   0.00000  Uiso   1.00
C147   C     0.06327   0.68393   0.01542   0.00000  Uiso   1.00
C148   C     0.18920   0.18166   0.13981   0.00000  Uiso   1.00
C149   C     0.14946   0.27752   0.11246   0.00000  Uiso   1.00
C150   C     0.19230   0.34294   0.08774   0.00000  Uiso   1.00
C151   C     0.23516   0.47698   0.04100   0.00000  Uiso   1.00
C152   C     0.30051   0.04394   0.17436   0.00000  Uiso   1.00
C153   C     0.30378   0.05189   0.24116   0.00000  Uiso   1.00
C154   C     0.37603   0.03285   0.29957   0.00000  Uiso   1.00
C155   C     0.36574   0.04436   0.35539   0.00000  Uiso   1.00
C156   C     0.22830   0.96492   0.13632   0.00000  Uiso   1.00
C157   C     0.23709   0.87278   0.10657   0.00000  Uiso   1.00
C158   C     0.16327   0.81108   0.07412   0.00000  Uiso   1.00
C159   C     0.26889   0.15218   0.14237   0.00000  Uiso   1.00
C160   C     0.31180   0.21746   0.11768   0.00000  Uiso   1.00
C161   C     0.27214   0.31340   0.09031   0.00000  Uiso   1.00
H162   H     0.09173   0.12117   0.16765   0.00000  Uiso   1.00
H163   H     0.15200   0.11572   0.29234   0.00000  Uiso   1.00
H164   H     0.01309   0.95568   0.09937   0.00000  Uiso   1.00
H165   H     0.08779   0.30031   0.11048   0.00000  Uiso   1.00
H166   H     0.25396   0.09664   0.43172   0.00000  Uiso   1.00
H167   H     0.96104   0.75920   0.02480   0.00000  Uiso   1.00
H168   H     0.11856   0.48592   0.04824   0.00000  Uiso   1.00
H169   H     0.36255   0.02098   0.17636   0.00000  Uiso   1.00
H170   H     0.43769   0.01004   0.30153   0.00000  Uiso   1.00
H171   H     0.29877   0.84999   0.10856   0.00000  Uiso   1.00
H172   H     0.37347   0.19462   0.11967   0.00000  Uiso   1.00
H173   H     0.48583   0.01085   0.43918   0.00000  Uiso   1.00
H174   H     0.19291   0.67342   0.03226   0.00000  Uiso   1.00
H175   H     0.35043   0.40014   0.05570   0.00000  Uiso   1.00
O176   O     0.41443   0.04832   0.51764   0.00000  Uiso   1.00
O177   O     0.03013   0.60563   0.98376   0.00000  Uiso   1.00
O178   O     0.23679   0.55907   0.01452   0.00000  Uiso   1.00
N179   N     0.29822   0.07797   0.41630   0.00000  Uiso   1.00
N180   N     0.02437   0.76248   0.03586   0.00000  Uiso   1.00
N181   N     0.17162   0.44189   0.05776   0.00000  Uiso   1.00
N182   N     0.42299   0.03181   0.42031   0.00000  Uiso   1.00
N183   N     0.14914   0.71632   0.03987   0.00000  Uiso   1.00
N184   N     0.29639   0.39573   0.06177   0.00000  Uiso   1.00
