data_job_00717
_audit_creation_date              2018-12-19
_audit_creation_method            'Materials Studio'
_symmetry_space_group_name_H-M    'P1'
_symmetry_Int_Tables_number       1
_symmetry_cell_setting            triclinic
loop_
_symmetry_equiv_pos_as_xyz
  x,y,z
_cell_length_a                    12.5215
_cell_length_b                    14.9370
_cell_length_c                    27.9098
_cell_angle_alpha                 90.0000
_cell_angle_beta                  84.3935
_cell_angle_gamma                 90.0000
loop_
_atom_site_label
_atom_site_type_symbol
_atom_site_fract_x
_atom_site_fract_y
_atom_site_fract_z
_atom_site_U_iso_or_equiv
_atom_site_adp_type
_atom_site_occupancy
C1     C     0.33540   0.77357   0.66246   0.00000  Uiso   1.00
C2     C     0.34219   0.83555   0.70547   0.00000  Uiso   1.00
C3     C     0.31877   0.81214   0.75346   0.00000  Uiso   1.00
C4     C     0.32994   0.87848   0.78746   0.00000  Uiso   1.00
C5     C     0.33536   0.96156   0.85630   0.00000  Uiso   1.00
C6     C     0.25994   0.81923   0.63037   0.00000  Uiso   1.00
C7     C     0.16737   0.78208   0.61522   0.00000  Uiso   1.00
C8     C     0.10929   0.83469   0.58598   0.00000  Uiso   1.00
C9     C     0.98705   0.89240   0.53821   0.00000  Uiso   1.00
C10    C     0.44618   0.77521   0.63442   0.00000  Uiso   1.00
C11    C     0.51020   0.70105   0.62265   0.00000  Uiso   1.00
C12    C     0.60893   0.71659   0.59682   0.00000  Uiso   1.00
C13    C     0.77586   0.70596   0.55533   0.00000  Uiso   1.00
C14    C     0.39687   0.93304   0.63748   0.00000  Uiso   1.00
C15    C     0.37558   0.92217   0.69190   0.00000  Uiso   1.00
C16    C     0.38679   0.98857   0.72583   0.00000  Uiso   1.00
C17    C     0.36339   0.96526   0.77386   0.00000  Uiso   1.00
C18    C     0.29332   0.90585   0.61680   0.00000  Uiso   1.00
C19    C     0.23538   0.95852   0.58758   0.00000  Uiso   1.00
C20    C     0.14274   0.92146   0.57239   0.00000  Uiso   1.00
C21    C     0.47958   0.86183   0.62085   0.00000  Uiso   1.00
C22    C     0.57822   0.87749   0.59502   0.00000  Uiso   1.00
C23    C     0.64237   0.80337   0.58322   0.00000  Uiso   1.00
H24    H     0.30940   0.70614   0.67302   0.00000  Uiso   1.00
H25    H     0.29293   0.74510   0.76395   0.00000  Uiso   1.00
H26    H     0.14155   0.71505   0.62572   0.00000  Uiso   1.00
H27    H     0.48433   0.63403   0.63316   0.00000  Uiso   1.00
H28    H     0.28935   0.82650   0.85878   0.00000  Uiso   1.00
H29    H     0.97019   0.76313   0.56730   0.00000  Uiso   1.00
H30    H     0.69301   0.59229   0.58299   0.00000  Uiso   1.00
H31    H     0.42287   0.00048   0.62691   0.00000  Uiso   1.00
H32    H     0.41263   0.05560   0.71532   0.00000  Uiso   1.00
H33    H     0.26125   0.02554   0.57709   0.00000  Uiso   1.00
H34    H     0.60403   0.94453   0.58453   0.00000  Uiso   1.00
H35    H     0.38650   0.07852   0.81931   0.00000  Uiso   1.00
H36    H     0.06734   0.01513   0.52782   0.00000  Uiso   1.00
H37    H     0.79016   0.84430   0.54352   0.00000  Uiso   1.00
O38    O     0.32911   0.98347   0.89803   0.00000  Uiso   1.00
O39    O     0.91039   0.90031   0.51561   0.00000  Uiso   1.00
O40    O     0.85871   0.67617   0.53620   0.00000  Uiso   1.00
N41    N     0.31364   0.87825   0.83736   0.00000  Uiso   1.00
N42    N     0.01523   0.81900   0.56485   0.00000  Uiso   1.00
N43    N     0.69100   0.65927   0.57950   0.00000  Uiso   1.00
N44    N     0.36592   0.01385   0.81612   0.00000  Uiso   1.00
N45    N     0.06751   0.95460   0.54361   0.00000  Uiso   1.00
N46    N     0.74328   0.79488   0.55826   0.00000  Uiso   1.00
C47    C     0.19712   0.39226   0.62438   0.00000  Uiso   1.00
C48    C     0.17000   0.33150   0.66778   0.00000  Uiso   1.00
C49    C     0.17034   0.35641   0.71567   0.00000  Uiso   1.00
C50    C     0.14320   0.29101   0.75007   0.00000  Uiso   1.00
C51    C     0.10518   0.20992   0.81944   0.00000  Uiso   1.00
C52    C     0.28793   0.34599   0.59342   0.00000  Uiso   1.00
C53    C     0.38741   0.38308   0.57879   0.00000  Uiso   1.00
C54    C     0.45953   0.32987   0.55058   0.00000  Uiso   1.00
C55    C     0.60456   0.27129   0.50448   0.00000  Uiso   1.00
C56    C     0.09998   0.38935   0.59545   0.00000  Uiso   1.00
C57    C     0.04144   0.46289   0.58252   0.00000  Uiso   1.00
C58    C     0.95533   0.44619   0.55601   0.00000  Uiso   1.00
C59    C     0.80855   0.45492   0.51307   0.00000  Uiso   1.00
C60    C     0.14829   0.23183   0.60031   0.00000  Uiso   1.00
C61    C     0.14349   0.24437   0.65470   0.00000  Uiso   1.00
C62    C     0.11633   0.17891   0.68904   0.00000  Uiso   1.00
C63    C     0.11663   0.20372   0.73697   0.00000  Uiso   1.00
C64    C     0.26141   0.25885   0.58035   0.00000  Uiso   1.00
C65    C     0.33339   0.20558   0.55215   0.00000  Uiso   1.00
C66    C     0.43296   0.24258   0.53748   0.00000  Uiso   1.00
C67    C     0.07345   0.30221   0.58238   0.00000  Uiso   1.00
C68    C     0.98742   0.28539   0.55589   0.00000  Uiso   1.00
C69    C     0.92877   0.35889   0.54291   0.00000  Uiso   1.00
H70    H     0.21777   0.46010   0.63456   0.00000  Uiso   1.00
H71    H     0.19088   0.42385   0.72577   0.00000  Uiso   1.00
H72    H     0.40791   0.45052   0.58891   0.00000  Uiso   1.00
H73    H     0.06199   0.53031   0.59264   0.00000  Uiso   1.00
H74    H     0.14942   0.34522   0.82113   0.00000  Uiso   1.00
H75    H     0.60701   0.40146   0.53253   0.00000  Uiso   1.00
H76    H     0.87758   0.56973   0.54040   0.00000  Uiso   1.00
H77    H     0.12765   0.16399   0.59013   0.00000  Uiso   1.00
H78    H     0.09581   0.11149   0.67891   0.00000  Uiso   1.00
H79    H     0.31284   0.13816   0.54204   0.00000  Uiso   1.00
H80    H     0.96692   0.21795   0.54577   0.00000  Uiso   1.00
H81    H     0.07226   0.09169   0.78309   0.00000  Uiso   1.00
H82    H     0.52985   0.14794   0.49449   0.00000  Uiso   1.00
H83    H     0.80042   0.31620   0.50236   0.00000  Uiso   1.00
O84    O     0.09156   0.18925   0.86131   0.00000  Uiso   1.00
O85    O     0.69189   0.26305   0.48267   0.00000  Uiso   1.00
O86    O     0.73490   0.48381   0.49300   0.00000  Uiso   1.00
N87    N     0.13560   0.29276   0.80000   0.00000  Uiso   1.00
N88    N     0.56344   0.34534   0.53017   0.00000  Uiso   1.00
N89    N     0.88150   0.50266   0.53752   0.00000  Uiso   1.00
N90    N     0.09408   0.15634   0.77953   0.00000  Uiso   1.00
N91    N     0.52192   0.20892   0.50971   0.00000  Uiso   1.00
N92    N     0.83998   0.36624   0.51705   0.00000  Uiso   1.00
C93    C     0.66460   0.27357   0.83754   0.00000  Uiso   1.00
C94    C     0.65781   0.33555   0.79453   0.00000  Uiso   1.00
C95    C     0.68123   0.31214   0.74654   0.00000  Uiso   1.00
C96    C     0.67006   0.37848   0.71254   0.00000  Uiso   1.00
C97    C     0.66464   0.46156   0.64370   0.00000  Uiso   1.00
C98    C     0.74006   0.31923   0.86963   0.00000  Uiso   1.00
C99    C     0.83263   0.28208   0.88478   0.00000  Uiso   1.00
C100   C     0.89071   0.33469   0.91402   0.00000  Uiso   1.00
C101   C     0.01295   0.39240   0.96179   0.00000  Uiso   1.00
C102   C     0.55382   0.27521   0.86558   0.00000  Uiso   1.00
C103   C     0.48980   0.20105   0.87735   0.00000  Uiso   1.00
C104   C     0.39107   0.21659   0.90318   0.00000  Uiso   1.00
C105   C     0.22414   0.20596   0.94467   0.00000  Uiso   1.00
C106   C     0.60313   0.43304   0.86252   0.00000  Uiso   1.00
C107   C     0.62442   0.42217   0.80810   0.00000  Uiso   1.00
C108   C     0.61321   0.48857   0.77417   0.00000  Uiso   1.00
C109   C     0.63661   0.46526   0.72614   0.00000  Uiso   1.00
C110   C     0.70668   0.40585   0.88320   0.00000  Uiso   1.00
C111   C     0.76462   0.45852   0.91242   0.00000  Uiso   1.00
C112   C     0.85726   0.42146   0.92761   0.00000  Uiso   1.00
C113   C     0.52042   0.36183   0.87915   0.00000  Uiso   1.00
C114   C     0.42178   0.37749   0.90498   0.00000  Uiso   1.00
C115   C     0.35763   0.30337   0.91678   0.00000  Uiso   1.00
H116   H     0.69060   0.20614   0.82698   0.00000  Uiso   1.00
H117   H     0.70707   0.24510   0.73605   0.00000  Uiso   1.00
H118   H     0.85845   0.21505   0.87428   0.00000  Uiso   1.00
H119   H     0.51567   0.13403   0.86684   0.00000  Uiso   1.00
H120   H     0.71065   0.32650   0.64122   0.00000  Uiso   1.00
H121   H     0.02981   0.26313   0.93270   0.00000  Uiso   1.00
H122   H     0.30699   0.09229   0.91701   0.00000  Uiso   1.00
H123   H     0.57713   0.50048   0.87309   0.00000  Uiso   1.00
H124   H     0.58737   0.55560   0.78468   0.00000  Uiso   1.00
H125   H     0.73875   0.52554   0.92291   0.00000  Uiso   1.00
H126   H     0.39597   0.44453   0.91547   0.00000  Uiso   1.00
H127   H     0.61350   0.57852   0.68069   0.00000  Uiso   1.00
H128   H     0.93266   0.51513   0.97218   0.00000  Uiso   1.00
H129   H     0.20984   0.34430   0.95648   0.00000  Uiso   1.00
O130   O     0.67089   0.48347   0.60197   0.00000  Uiso   1.00
O131   O     0.08961   0.40031   0.98439   0.00000  Uiso   1.00
O132   O     0.14129   0.17617   0.96380   0.00000  Uiso   1.00
N133   N     0.68636   0.37825   0.66264   0.00000  Uiso   1.00
N134   N     0.98477   0.31900   0.93515   0.00000  Uiso   1.00
N135   N     0.30900   0.15927   0.92050   0.00000  Uiso   1.00
N136   N     0.63408   0.51385   0.68388   0.00000  Uiso   1.00
N137   N     0.93249   0.45460   0.95639   0.00000  Uiso   1.00
N138   N     0.25672   0.29488   0.94174   0.00000  Uiso   1.00
C139   C     0.80288   0.89226   0.87562   0.00000  Uiso   1.00
C140   C     0.83000   0.83150   0.83222   0.00000  Uiso   1.00
C141   C     0.82966   0.85641   0.78433   0.00000  Uiso   1.00
C142   C     0.85680   0.79101   0.74993   0.00000  Uiso   1.00
C143   C     0.89482   0.70992   0.68056   0.00000  Uiso   1.00
C144   C     0.71207   0.84599   0.90658   0.00000  Uiso   1.00
C145   C     0.61259   0.88308   0.92121   0.00000  Uiso   1.00
C146   C     0.54047   0.82987   0.94942   0.00000  Uiso   1.00
C147   C     0.39544   0.77129   0.99552   0.00000  Uiso   1.00
C148   C     0.90002   0.88935   0.90455   0.00000  Uiso   1.00
C149   C     0.95856   0.96289   0.91748   0.00000  Uiso   1.00
C150   C     0.04467   0.94619   0.94399   0.00000  Uiso   1.00
C151   C     0.19145   0.95492   0.98693   0.00000  Uiso   1.00
C152   C     0.85171   0.73183   0.89969   0.00000  Uiso   1.00
C153   C     0.85651   0.74437   0.84530   0.00000  Uiso   1.00
C154   C     0.88367   0.67891   0.81096   0.00000  Uiso   1.00
C155   C     0.88337   0.70372   0.76303   0.00000  Uiso   1.00
C156   C     0.73859   0.75885   0.91965   0.00000  Uiso   1.00
C157   C     0.66661   0.70558   0.94785   0.00000  Uiso   1.00
C158   C     0.56704   0.74258   0.96252   0.00000  Uiso   1.00
C159   C     0.92655   0.80221   0.91762   0.00000  Uiso   1.00
C160   C     0.01258   0.78539   0.94411   0.00000  Uiso   1.00
C161   C     0.07123   0.85889   0.95709   0.00000  Uiso   1.00
H162   H     0.78223   0.96010   0.86544   0.00000  Uiso   1.00
H163   H     0.80912   0.92385   0.77423   0.00000  Uiso   1.00
H164   H     0.59209   0.95052   0.91109   0.00000  Uiso   1.00
H165   H     0.93801   0.03031   0.90736   0.00000  Uiso   1.00
H166   H     0.85058   0.84522   0.67887   0.00000  Uiso   1.00
H167   H     0.39299   0.90146   0.96747   0.00000  Uiso   1.00
H168   H     0.12242   0.06973   0.95960   0.00000  Uiso   1.00
H169   H     0.87235   0.66399   0.90987   0.00000  Uiso   1.00
H170   H     0.90419   0.61149   0.82109   0.00000  Uiso   1.00
H171   H     0.68716   0.63816   0.95796   0.00000  Uiso   1.00
H172   H     0.03308   0.71795   0.95423   0.00000  Uiso   1.00
H173   H     0.92774   0.59169   0.71691   0.00000  Uiso   1.00
H174   H     0.47015   0.64794   0.00551   0.00000  Uiso   1.00
H175   H     0.19958   0.81620   0.99764   0.00000  Uiso   1.00
O176   O     0.90844   0.68925   0.63869   0.00000  Uiso   1.00
O177   O     0.30811   0.76305   0.01733   0.00000  Uiso   1.00
O178   O     0.26510   0.98381   0.00700   0.00000  Uiso   1.00
N179   N     0.86440   0.79276   0.70000   0.00000  Uiso   1.00
N180   N     0.43656   0.84534   0.96983   0.00000  Uiso   1.00
N181   N     0.11850   0.00266   0.96248   0.00000  Uiso   1.00
N182   N     0.90592   0.65634   0.72047   0.00000  Uiso   1.00
N183   N     0.47808   0.70892   0.99029   0.00000  Uiso   1.00
N184   N     0.16002   0.86624   0.98295   0.00000  Uiso   1.00
C185   C     0.66460   0.22643   0.33754   0.00000  Uiso   1.00
C186   C     0.65781   0.16445   0.29453   0.00000  Uiso   1.00
C187   C     0.68123   0.18786   0.24654   0.00000  Uiso   1.00
C188   C     0.67006   0.12152   0.21254   0.00000  Uiso   1.00
C189   C     0.66464   0.03844   0.14370   0.00000  Uiso   1.00
C190   C     0.74006   0.18077   0.36963   0.00000  Uiso   1.00
C191   C     0.83263   0.21792   0.38478   0.00000  Uiso   1.00
C192   C     0.89071   0.16531   0.41402   0.00000  Uiso   1.00
C193   C     0.01295   0.10760   0.46179   0.00000  Uiso   1.00
C194   C     0.55382   0.22479   0.36558   0.00000  Uiso   1.00
C195   C     0.48980   0.29895   0.37735   0.00000  Uiso   1.00
C196   C     0.39107   0.28341   0.40318   0.00000  Uiso   1.00
C197   C     0.22414   0.29404   0.44467   0.00000  Uiso   1.00
C198   C     0.60313   0.06696   0.36252   0.00000  Uiso   1.00
C199   C     0.62442   0.07783   0.30810   0.00000  Uiso   1.00
C200   C     0.61321   0.01143   0.27417   0.00000  Uiso   1.00
C201   C     0.63661   0.03474   0.22614   0.00000  Uiso   1.00
C202   C     0.70668   0.09415   0.38320   0.00000  Uiso   1.00
C203   C     0.76462   0.04148   0.41242   0.00000  Uiso   1.00
C204   C     0.85726   0.07854   0.42761   0.00000  Uiso   1.00
C205   C     0.52042   0.13817   0.37915   0.00000  Uiso   1.00
C206   C     0.42178   0.12251   0.40498   0.00000  Uiso   1.00
C207   C     0.35763   0.19663   0.41678   0.00000  Uiso   1.00
H208   H     0.69060   0.29386   0.32698   0.00000  Uiso   1.00
H209   H     0.70707   0.25490   0.23605   0.00000  Uiso   1.00
H210   H     0.85845   0.28495   0.37428   0.00000  Uiso   1.00
H211   H     0.51567   0.36597   0.36684   0.00000  Uiso   1.00
H212   H     0.71065   0.17350   0.14122   0.00000  Uiso   1.00
H213   H     0.02981   0.23687   0.43270   0.00000  Uiso   1.00
H214   H     0.30699   0.40771   0.41701   0.00000  Uiso   1.00
H215   H     0.57713   0.99952   0.37309   0.00000  Uiso   1.00
H216   H     0.58737   0.94440   0.28468   0.00000  Uiso   1.00
H217   H     0.73875   0.97446   0.42291   0.00000  Uiso   1.00
H218   H     0.39597   0.05547   0.41547   0.00000  Uiso   1.00
H219   H     0.61350   0.92148   0.18069   0.00000  Uiso   1.00
H220   H     0.93266   0.98487   0.47218   0.00000  Uiso   1.00
H221   H     0.20984   0.15570   0.45648   0.00000  Uiso   1.00
O222   O     0.67089   0.01653   0.10197   0.00000  Uiso   1.00
O223   O     0.08961   0.09969   0.48439   0.00000  Uiso   1.00
O224   O     0.14129   0.32383   0.46380   0.00000  Uiso   1.00
N225   N     0.68636   0.12175   0.16264   0.00000  Uiso   1.00
N226   N     0.98477   0.18100   0.43515   0.00000  Uiso   1.00
N227   N     0.30900   0.34073   0.42050   0.00000  Uiso   1.00
N228   N     0.63408   0.98615   0.18388   0.00000  Uiso   1.00
N229   N     0.93249   0.04540   0.45639   0.00000  Uiso   1.00
N230   N     0.25672   0.20512   0.44174   0.00000  Uiso   1.00
C231   C     0.80288   0.60774   0.37562   0.00000  Uiso   1.00
C232   C     0.83000   0.66850   0.33222   0.00000  Uiso   1.00
C233   C     0.82966   0.64359   0.28433   0.00000  Uiso   1.00
C234   C     0.85680   0.70899   0.24993   0.00000  Uiso   1.00
C235   C     0.89482   0.79008   0.18056   0.00000  Uiso   1.00
C236   C     0.71207   0.65401   0.40658   0.00000  Uiso   1.00
C237   C     0.61259   0.61692   0.42121   0.00000  Uiso   1.00
C238   C     0.54047   0.67013   0.44942   0.00000  Uiso   1.00
C239   C     0.39544   0.72871   0.49552   0.00000  Uiso   1.00
C240   C     0.90002   0.61065   0.40455   0.00000  Uiso   1.00
C241   C     0.95856   0.53711   0.41748   0.00000  Uiso   1.00
C242   C     0.04467   0.55381   0.44399   0.00000  Uiso   1.00
C243   C     0.19145   0.54508   0.48693   0.00000  Uiso   1.00
C244   C     0.85171   0.76817   0.39969   0.00000  Uiso   1.00
C245   C     0.85651   0.75563   0.34530   0.00000  Uiso   1.00
C246   C     0.88367   0.82109   0.31096   0.00000  Uiso   1.00
C247   C     0.88337   0.79628   0.26303   0.00000  Uiso   1.00
C248   C     0.73859   0.74115   0.41965   0.00000  Uiso   1.00
C249   C     0.66661   0.79442   0.44785   0.00000  Uiso   1.00
C250   C     0.56704   0.75742   0.46252   0.00000  Uiso   1.00
C251   C     0.92655   0.69779   0.41762   0.00000  Uiso   1.00
C252   C     0.01258   0.71461   0.44411   0.00000  Uiso   1.00
C253   C     0.07123   0.64111   0.45709   0.00000  Uiso   1.00
H254   H     0.78223   0.53990   0.36544   0.00000  Uiso   1.00
H255   H     0.80912   0.57615   0.27423   0.00000  Uiso   1.00
H256   H     0.59209   0.54948   0.41109   0.00000  Uiso   1.00
H257   H     0.93801   0.46969   0.40736   0.00000  Uiso   1.00
H258   H     0.85058   0.65478   0.17887   0.00000  Uiso   1.00
H259   H     0.39299   0.59854   0.46747   0.00000  Uiso   1.00
H260   H     0.12242   0.43027   0.45960   0.00000  Uiso   1.00
H261   H     0.87235   0.83601   0.40987   0.00000  Uiso   1.00
H262   H     0.90419   0.88851   0.32109   0.00000  Uiso   1.00
H263   H     0.68716   0.86184   0.45796   0.00000  Uiso   1.00
H264   H     0.03308   0.78205   0.45423   0.00000  Uiso   1.00
H265   H     0.92774   0.90831   0.21691   0.00000  Uiso   1.00
H266   H     0.47015   0.85206   0.50551   0.00000  Uiso   1.00
H267   H     0.19958   0.68380   0.49764   0.00000  Uiso   1.00
O268   O     0.90844   0.81075   0.13869   0.00000  Uiso   1.00
O269   O     0.30811   0.73695   0.51733   0.00000  Uiso   1.00
O270   O     0.26510   0.51619   0.50700   0.00000  Uiso   1.00
N271   N     0.86440   0.70724   0.20000   0.00000  Uiso   1.00
N272   N     0.43656   0.65466   0.46983   0.00000  Uiso   1.00
N273   N     0.11850   0.49734   0.46248   0.00000  Uiso   1.00
N274   N     0.90592   0.84366   0.22047   0.00000  Uiso   1.00
N275   N     0.47808   0.79108   0.49029   0.00000  Uiso   1.00
N276   N     0.16002   0.63376   0.48295   0.00000  Uiso   1.00
C277   C     0.33540   0.72643   0.16246   0.00000  Uiso   1.00
C278   C     0.34219   0.66445   0.20547   0.00000  Uiso   1.00
C279   C     0.31877   0.68786   0.25346   0.00000  Uiso   1.00
C280   C     0.32994   0.62152   0.28746   0.00000  Uiso   1.00
C281   C     0.33536   0.53844   0.35630   0.00000  Uiso   1.00
C282   C     0.25994   0.68077   0.13037   0.00000  Uiso   1.00
C283   C     0.16737   0.71792   0.11522   0.00000  Uiso   1.00
C284   C     0.10929   0.66531   0.08598   0.00000  Uiso   1.00
C285   C     0.98705   0.60760   0.03821   0.00000  Uiso   1.00
C286   C     0.44618   0.72479   0.13442   0.00000  Uiso   1.00
C287   C     0.51020   0.79895   0.12265   0.00000  Uiso   1.00
C288   C     0.60893   0.78341   0.09682   0.00000  Uiso   1.00
C289   C     0.77586   0.79404   0.05533   0.00000  Uiso   1.00
C290   C     0.39687   0.56696   0.13748   0.00000  Uiso   1.00
C291   C     0.37558   0.57783   0.19190   0.00000  Uiso   1.00
C292   C     0.38679   0.51143   0.22583   0.00000  Uiso   1.00
C293   C     0.36339   0.53474   0.27386   0.00000  Uiso   1.00
C294   C     0.29332   0.59415   0.11680   0.00000  Uiso   1.00
C295   C     0.23538   0.54148   0.08758   0.00000  Uiso   1.00
C296   C     0.14274   0.57854   0.07239   0.00000  Uiso   1.00
C297   C     0.47958   0.63817   0.12085   0.00000  Uiso   1.00
C298   C     0.57822   0.62251   0.09502   0.00000  Uiso   1.00
C299   C     0.64237   0.69663   0.08322   0.00000  Uiso   1.00
H300   H     0.30940   0.79386   0.17302   0.00000  Uiso   1.00
H301   H     0.29293   0.75490   0.26395   0.00000  Uiso   1.00
H302   H     0.14155   0.78495   0.12572   0.00000  Uiso   1.00
H303   H     0.48433   0.86597   0.13316   0.00000  Uiso   1.00
H304   H     0.28935   0.67350   0.35878   0.00000  Uiso   1.00
H305   H     0.97019   0.73687   0.06730   0.00000  Uiso   1.00
H306   H     0.69301   0.90771   0.08299   0.00000  Uiso   1.00
H307   H     0.42287   0.49952   0.12691   0.00000  Uiso   1.00
H308   H     0.41263   0.44440   0.21532   0.00000  Uiso   1.00
H309   H     0.26125   0.47446   0.07709   0.00000  Uiso   1.00
H310   H     0.60403   0.55547   0.08453   0.00000  Uiso   1.00
H311   H     0.38650   0.42148   0.31931   0.00000  Uiso   1.00
H312   H     0.06734   0.48487   0.02782   0.00000  Uiso   1.00
H313   H     0.79016   0.65570   0.04352   0.00000  Uiso   1.00
O314   O     0.32911   0.51653   0.39803   0.00000  Uiso   1.00
O315   O     0.91039   0.59969   0.01561   0.00000  Uiso   1.00
O316   O     0.85871   0.82383   0.03620   0.00000  Uiso   1.00
N317   N     0.31364   0.62175   0.33736   0.00000  Uiso   1.00
N318   N     0.01523   0.68100   0.06485   0.00000  Uiso   1.00
N319   N     0.69100   0.84073   0.07950   0.00000  Uiso   1.00
N320   N     0.36592   0.48615   0.31612   0.00000  Uiso   1.00
N321   N     0.06751   0.54540   0.04361   0.00000  Uiso   1.00
N322   N     0.74328   0.70512   0.05826   0.00000  Uiso   1.00
C323   C     0.19712   0.10774   0.12438   0.00000  Uiso   1.00
C324   C     0.17000   0.16850   0.16778   0.00000  Uiso   1.00
C325   C     0.17034   0.14359   0.21567   0.00000  Uiso   1.00
C326   C     0.14320   0.20899   0.25007   0.00000  Uiso   1.00
C327   C     0.10518   0.29008   0.31944   0.00000  Uiso   1.00
C328   C     0.28793   0.15401   0.09342   0.00000  Uiso   1.00
C329   C     0.38741   0.11692   0.07879   0.00000  Uiso   1.00
C330   C     0.45953   0.17013   0.05058   0.00000  Uiso   1.00
C331   C     0.60456   0.22871   0.00448   0.00000  Uiso   1.00
C332   C     0.09998   0.11065   0.09545   0.00000  Uiso   1.00
C333   C     0.04144   0.03711   0.08252   0.00000  Uiso   1.00
C334   C     0.95533   0.05381   0.05601   0.00000  Uiso   1.00
C335   C     0.80855   0.04508   0.01307   0.00000  Uiso   1.00
C336   C     0.14829   0.26817   0.10031   0.00000  Uiso   1.00
C337   C     0.14349   0.25563   0.15470   0.00000  Uiso   1.00
C338   C     0.11633   0.32109   0.18904   0.00000  Uiso   1.00
C339   C     0.11663   0.29628   0.23697   0.00000  Uiso   1.00
C340   C     0.26141   0.24115   0.08035   0.00000  Uiso   1.00
C341   C     0.33339   0.29442   0.05215   0.00000  Uiso   1.00
C342   C     0.43296   0.25742   0.03748   0.00000  Uiso   1.00
C343   C     0.07345   0.19779   0.08238   0.00000  Uiso   1.00
C344   C     0.98742   0.21461   0.05589   0.00000  Uiso   1.00
C345   C     0.92877   0.14111   0.04291   0.00000  Uiso   1.00
H346   H     0.21777   0.03990   0.13456   0.00000  Uiso   1.00
H347   H     0.19088   0.07615   0.22577   0.00000  Uiso   1.00
H348   H     0.40791   0.04948   0.08891   0.00000  Uiso   1.00
H349   H     0.06199   0.96969   0.09264   0.00000  Uiso   1.00
H350   H     0.14942   0.15478   0.32113   0.00000  Uiso   1.00
H351   H     0.60701   0.09854   0.03253   0.00000  Uiso   1.00
H352   H     0.87758   0.93027   0.04040   0.00000  Uiso   1.00
H353   H     0.12765   0.33601   0.09013   0.00000  Uiso   1.00
H354   H     0.09581   0.38851   0.17891   0.00000  Uiso   1.00
H355   H     0.31284   0.36184   0.04204   0.00000  Uiso   1.00
H356   H     0.96692   0.28205   0.04577   0.00000  Uiso   1.00
H357   H     0.07226   0.40831   0.28309   0.00000  Uiso   1.00
H358   H     0.52985   0.35206   0.99449   0.00000  Uiso   1.00
H359   H     0.80042   0.18380   0.00236   0.00000  Uiso   1.00
O360   O     0.09156   0.31075   0.36131   0.00000  Uiso   1.00
O361   O     0.69189   0.23695   0.98267   0.00000  Uiso   1.00
O362   O     0.73490   0.01619   0.99300   0.00000  Uiso   1.00
N363   N     0.13560   0.20724   0.30000   0.00000  Uiso   1.00
N364   N     0.56344   0.15466   0.03017   0.00000  Uiso   1.00
N365   N     0.88150   0.99734   0.03752   0.00000  Uiso   1.00
N366   N     0.09408   0.34366   0.27953   0.00000  Uiso   1.00
N367   N     0.52192   0.29108   0.00971   0.00000  Uiso   1.00
N368   N     0.83998   0.13376   0.01705   0.00000  Uiso   1.00
