data_job_03025
_audit_creation_date              2018-12-19
_audit_creation_method            'Materials Studio'
_symmetry_space_group_name_H-M    'P1'
_symmetry_Int_Tables_number       1
_symmetry_cell_setting            triclinic
loop_
_symmetry_equiv_pos_as_xyz
  x,y,z
_cell_length_a                    21.6983
_cell_length_b                    12.3995
_cell_length_c                    21.8488
_cell_angle_alpha                 90.0000
_cell_angle_beta                  42.1540
_cell_angle_gamma                 90.0000
loop_
_atom_site_label
_atom_site_type_symbol
_atom_site_fract_x
_atom_site_fract_y
_atom_site_fract_z
_atom_site_U_iso_or_equiv
_atom_site_adp_type
_atom_site_occupancy
C1     C     0.45231   0.98769   0.24819   0.00000  Uiso   1.00
C2     C     0.52166   0.06590   0.16947   0.00000  Uiso   1.00
C3     C     0.55474   0.15874   0.17290   0.00000  Uiso   1.00
C4     C     0.61783   0.21952   0.09359   0.00000  Uiso   1.00
C5     C     0.72107   0.34571   0.98352   0.00000  Uiso   1.00
C6     C     0.37333   0.98073   0.26068   0.00000  Uiso   1.00
C7     C     0.28170   0.00195   0.34081   0.00000  Uiso   1.00
C8     C     0.21993   0.99102   0.33828   0.00000  Uiso   1.00
C9     C     0.09288   0.98490   0.36984   0.00000  Uiso   1.00
C10    C     0.49842   0.87728   0.21370   0.00000  Uiso   1.00
C11    C     0.51195   0.81148   0.25433   0.00000  Uiso   1.00
C12    C     0.55547   0.71344   0.21225   0.00000  Uiso   1.00
C13    C     0.62264   0.54670   0.17086   0.00000  Uiso   1.00
C14    C     0.50553   0.93054   0.10123   0.00000  Uiso   1.00
C15    C     0.55056   0.03486   0.08965   0.00000  Uiso   1.00
C16    C     0.61362   0.09551   0.01031   0.00000  Uiso   1.00
C17    C     0.64680   0.18842   0.01362   0.00000  Uiso   1.00
C18    C     0.40223   0.94969   0.18087   0.00000  Uiso   1.00
C19    C     0.34058   0.93872   0.17822   0.00000  Uiso   1.00
C20    C     0.24888   0.95992   0.25832   0.00000  Uiso   1.00
C21    C     0.52732   0.84623   0.13388   0.00000  Uiso   1.00
C22    C     0.57083   0.74826   0.09173   0.00000  Uiso   1.00
C23    C     0.58443   0.68234   0.13229   0.00000  Uiso   1.00
H24    H     0.42980   0.01186   0.31033   0.00000  Uiso   1.00
H25    H     0.53235   0.18274   0.23469   0.00000  Uiso   1.00
H26    H     0.25935   0.02596   0.40257   0.00000  Uiso   1.00
H27    H     0.48957   0.83553   0.31609   0.00000  Uiso   1.00
H28    H     0.65876   0.35853   0.11563   0.00000  Uiso   1.00
H29    H     0.08313   0.02791   0.46963   0.00000  Uiso   1.00
H30    H     0.56858   0.62636   0.28729   0.00000  Uiso   1.00
H31    H     0.52803   0.90637   0.03909   0.00000  Uiso   1.00
H32    H     0.63597   0.07147   0.94855   0.00000  Uiso   1.00
H33    H     0.36297   0.91469   0.11644   0.00000  Uiso   1.00
H34    H     0.59319   0.72426   0.02996   0.00000  Uiso   1.00
H35    H     0.74286   0.26822   0.88340   0.00000  Uiso   1.00
H36    H     0.16722   0.93760   0.23740   0.00000  Uiso   1.00
H37    H     0.65268   0.53605   0.05505   0.00000  Uiso   1.00
O38    O     0.77002   0.42390   0.94486   0.00000  Uiso   1.00
O39    O     0.01481   0.99012   0.40930   0.00000  Uiso   1.00
O40    O     0.65172   0.46331   0.17007   0.00000  Uiso   1.00
N41    N     0.66376   0.31460   0.07339   0.00000  Uiso   1.00
N42    N     0.12557   0.00551   0.40436   0.00000  Uiso   1.00
N43    N     0.57941   0.63009   0.23389   0.00000  Uiso   1.00
N44    N     0.70901   0.26601   0.94843   0.00000  Uiso   1.00
N45    N     0.17083   0.95692   0.27939   0.00000  Uiso   1.00
N46    N     0.62466   0.58149   0.10893   0.00000  Uiso   1.00
C47    C     0.95231   0.48769   0.24819   0.00000  Uiso   1.00
C48    C     0.02166   0.56590   0.16947   0.00000  Uiso   1.00
C49    C     0.05474   0.65874   0.17290   0.00000  Uiso   1.00
C50    C     0.11783   0.71952   0.09359   0.00000  Uiso   1.00
C51    C     0.22107   0.84571   0.98352   0.00000  Uiso   1.00
C52    C     0.87333   0.48073   0.26068   0.00000  Uiso   1.00
C53    C     0.78170   0.50195   0.34081   0.00000  Uiso   1.00
C54    C     0.71993   0.49102   0.33828   0.00000  Uiso   1.00
C55    C     0.59288   0.48490   0.36984   0.00000  Uiso   1.00
C56    C     0.99842   0.37728   0.21370   0.00000  Uiso   1.00
C57    C     0.01195   0.31148   0.25433   0.00000  Uiso   1.00
C58    C     0.05547   0.21344   0.21225   0.00000  Uiso   1.00
C59    C     0.12264   0.04670   0.17086   0.00000  Uiso   1.00
C60    C     0.00553   0.43054   0.10123   0.00000  Uiso   1.00
C61    C     0.05056   0.53486   0.08965   0.00000  Uiso   1.00
C62    C     0.11362   0.59551   0.01031   0.00000  Uiso   1.00
C63    C     0.14680   0.68842   0.01362   0.00000  Uiso   1.00
C64    C     0.90223   0.44969   0.18087   0.00000  Uiso   1.00
C65    C     0.84058   0.43872   0.17822   0.00000  Uiso   1.00
C66    C     0.74888   0.45992   0.25832   0.00000  Uiso   1.00
C67    C     0.02732   0.34623   0.13388   0.00000  Uiso   1.00
C68    C     0.07083   0.24826   0.09173   0.00000  Uiso   1.00
C69    C     0.08443   0.18234   0.13229   0.00000  Uiso   1.00
H70    H     0.92980   0.51186   0.31033   0.00000  Uiso   1.00
H71    H     0.03235   0.68274   0.23469   0.00000  Uiso   1.00
H72    H     0.75935   0.52596   0.40257   0.00000  Uiso   1.00
H73    H     0.98957   0.33553   0.31609   0.00000  Uiso   1.00
H74    H     0.15876   0.85853   0.11563   0.00000  Uiso   1.00
H75    H     0.58313   0.52791   0.46963   0.00000  Uiso   1.00
H76    H     0.06858   0.12636   0.28729   0.00000  Uiso   1.00
H77    H     0.02803   0.40637   0.03909   0.00000  Uiso   1.00
H78    H     0.13597   0.57147   0.94855   0.00000  Uiso   1.00
H79    H     0.86297   0.41469   0.11644   0.00000  Uiso   1.00
H80    H     0.09319   0.22426   0.02996   0.00000  Uiso   1.00
H81    H     0.24286   0.76822   0.88340   0.00000  Uiso   1.00
H82    H     0.66722   0.43760   0.23740   0.00000  Uiso   1.00
H83    H     0.15268   0.03605   0.05505   0.00000  Uiso   1.00
O84    O     0.27002   0.92390   0.94486   0.00000  Uiso   1.00
O85    O     0.51481   0.49012   0.40930   0.00000  Uiso   1.00
O86    O     0.15172   0.96331   0.17007   0.00000  Uiso   1.00
N87    N     0.16376   0.81460   0.07339   0.00000  Uiso   1.00
N88    N     0.62557   0.50551   0.40436   0.00000  Uiso   1.00
N89    N     0.07941   0.13009   0.23389   0.00000  Uiso   1.00
N90    N     0.20901   0.76601   0.94843   0.00000  Uiso   1.00
N91    N     0.67083   0.45692   0.27939   0.00000  Uiso   1.00
N92    N     0.12466   0.08149   0.10893   0.00000  Uiso   1.00
C93    C     0.54769   0.98769   0.75181   0.00000  Uiso   1.00
C94    C     0.47834   0.06590   0.83053   0.00000  Uiso   1.00
C95    C     0.44526   0.15874   0.82710   0.00000  Uiso   1.00
C96    C     0.38217   0.21952   0.90641   0.00000  Uiso   1.00
C97    C     0.27893   0.34571   0.01648   0.00000  Uiso   1.00
C98    C     0.62667   0.98073   0.73932   0.00000  Uiso   1.00
C99    C     0.71830   0.00195   0.65919   0.00000  Uiso   1.00
C100   C     0.78007   0.99102   0.66172   0.00000  Uiso   1.00
C101   C     0.90712   0.98490   0.63016   0.00000  Uiso   1.00
C102   C     0.50158   0.87728   0.78630   0.00000  Uiso   1.00
C103   C     0.48805   0.81148   0.74567   0.00000  Uiso   1.00
C104   C     0.44453   0.71344   0.78775   0.00000  Uiso   1.00
C105   C     0.37736   0.54670   0.82914   0.00000  Uiso   1.00
C106   C     0.49447   0.93054   0.89877   0.00000  Uiso   1.00
C107   C     0.44944   0.03486   0.91035   0.00000  Uiso   1.00
C108   C     0.38638   0.09551   0.98969   0.00000  Uiso   1.00
C109   C     0.35320   0.18842   0.98638   0.00000  Uiso   1.00
C110   C     0.59777   0.94969   0.81913   0.00000  Uiso   1.00
C111   C     0.65942   0.93872   0.82178   0.00000  Uiso   1.00
C112   C     0.75112   0.95992   0.74168   0.00000  Uiso   1.00
C113   C     0.47268   0.84623   0.86612   0.00000  Uiso   1.00
C114   C     0.42917   0.74826   0.90827   0.00000  Uiso   1.00
C115   C     0.41557   0.68234   0.86771   0.00000  Uiso   1.00
H116   H     0.57020   0.01186   0.68967   0.00000  Uiso   1.00
H117   H     0.46765   0.18274   0.76531   0.00000  Uiso   1.00
H118   H     0.74065   0.02596   0.59743   0.00000  Uiso   1.00
H119   H     0.51043   0.83553   0.68391   0.00000  Uiso   1.00
H120   H     0.34124   0.35853   0.88437   0.00000  Uiso   1.00
H121   H     0.91687   0.02791   0.53037   0.00000  Uiso   1.00
H122   H     0.43142   0.62636   0.71271   0.00000  Uiso   1.00
H123   H     0.47197   0.90637   0.96091   0.00000  Uiso   1.00
H124   H     0.36403   0.07147   0.05145   0.00000  Uiso   1.00
H125   H     0.63703   0.91469   0.88356   0.00000  Uiso   1.00
H126   H     0.40681   0.72426   0.97004   0.00000  Uiso   1.00
H127   H     0.25714   0.26822   0.11660   0.00000  Uiso   1.00
H128   H     0.83278   0.93760   0.76260   0.00000  Uiso   1.00
H129   H     0.34732   0.53605   0.94495   0.00000  Uiso   1.00
O130   O     0.22998   0.42390   0.05514   0.00000  Uiso   1.00
O131   O     0.98519   0.99012   0.59070   0.00000  Uiso   1.00
O132   O     0.34828   0.46331   0.82993   0.00000  Uiso   1.00
N133   N     0.33624   0.31460   0.92661   0.00000  Uiso   1.00
N134   N     0.87443   0.00551   0.59564   0.00000  Uiso   1.00
N135   N     0.42059   0.63009   0.76611   0.00000  Uiso   1.00
N136   N     0.29099   0.26601   0.05157   0.00000  Uiso   1.00
N137   N     0.82917   0.95692   0.72061   0.00000  Uiso   1.00
N138   N     0.37534   0.58149   0.89107   0.00000  Uiso   1.00
C139   C     0.04769   0.48769   0.75181   0.00000  Uiso   1.00
C140   C     0.97834   0.56590   0.83053   0.00000  Uiso   1.00
C141   C     0.94526   0.65874   0.82710   0.00000  Uiso   1.00
C142   C     0.88217   0.71952   0.90641   0.00000  Uiso   1.00
C143   C     0.77893   0.84571   0.01648   0.00000  Uiso   1.00
C144   C     0.12667   0.48073   0.73932   0.00000  Uiso   1.00
C145   C     0.21830   0.50195   0.65919   0.00000  Uiso   1.00
C146   C     0.28007   0.49102   0.66172   0.00000  Uiso   1.00
C147   C     0.40712   0.48490   0.63016   0.00000  Uiso   1.00
C148   C     0.00158   0.37728   0.78630   0.00000  Uiso   1.00
C149   C     0.98805   0.31148   0.74567   0.00000  Uiso   1.00
C150   C     0.94453   0.21344   0.78775   0.00000  Uiso   1.00
C151   C     0.87736   0.04670   0.82914   0.00000  Uiso   1.00
C152   C     0.99447   0.43054   0.89877   0.00000  Uiso   1.00
C153   C     0.94944   0.53486   0.91035   0.00000  Uiso   1.00
C154   C     0.88638   0.59551   0.98969   0.00000  Uiso   1.00
C155   C     0.85320   0.68842   0.98638   0.00000  Uiso   1.00
C156   C     0.09777   0.44969   0.81913   0.00000  Uiso   1.00
C157   C     0.15942   0.43872   0.82178   0.00000  Uiso   1.00
C158   C     0.25112   0.45992   0.74168   0.00000  Uiso   1.00
C159   C     0.97268   0.34623   0.86612   0.00000  Uiso   1.00
C160   C     0.92917   0.24826   0.90827   0.00000  Uiso   1.00
C161   C     0.91557   0.18234   0.86771   0.00000  Uiso   1.00
H162   H     0.07020   0.51186   0.68967   0.00000  Uiso   1.00
H163   H     0.96765   0.68274   0.76531   0.00000  Uiso   1.00
H164   H     0.24065   0.52596   0.59743   0.00000  Uiso   1.00
H165   H     0.01043   0.33553   0.68391   0.00000  Uiso   1.00
H166   H     0.84124   0.85853   0.88437   0.00000  Uiso   1.00
H167   H     0.41687   0.52791   0.53037   0.00000  Uiso   1.00
H168   H     0.93142   0.12636   0.71271   0.00000  Uiso   1.00
H169   H     0.97197   0.40637   0.96091   0.00000  Uiso   1.00
H170   H     0.86403   0.57147   0.05145   0.00000  Uiso   1.00
H171   H     0.13703   0.41469   0.88356   0.00000  Uiso   1.00
H172   H     0.90681   0.22426   0.97004   0.00000  Uiso   1.00
H173   H     0.75714   0.76822   0.11660   0.00000  Uiso   1.00
H174   H     0.33278   0.43760   0.76260   0.00000  Uiso   1.00
H175   H     0.84732   0.03605   0.94495   0.00000  Uiso   1.00
O176   O     0.72998   0.92390   0.05514   0.00000  Uiso   1.00
O177   O     0.48519   0.49012   0.59070   0.00000  Uiso   1.00
O178   O     0.84828   0.96331   0.82993   0.00000  Uiso   1.00
N179   N     0.83624   0.81460   0.92661   0.00000  Uiso   1.00
N180   N     0.37443   0.50551   0.59564   0.00000  Uiso   1.00
N181   N     0.92059   0.13009   0.76611   0.00000  Uiso   1.00
N182   N     0.79099   0.76601   0.05157   0.00000  Uiso   1.00
N183   N     0.32917   0.45692   0.72061   0.00000  Uiso   1.00
N184   N     0.87534   0.08149   0.89107   0.00000  Uiso   1.00
