data_job_04689
_audit_creation_date              2018-12-19
_audit_creation_method            'Materials Studio'
_symmetry_space_group_name_H-M    'P1'
_symmetry_Int_Tables_number       1
_symmetry_cell_setting            triclinic
loop_
_symmetry_equiv_pos_as_xyz
  x,y,z
_cell_length_a                    26.5936
_cell_length_b                    6.9451
_cell_length_c                    12.2055
_cell_angle_alpha                 90.0000
_cell_angle_beta                  90.0000
_cell_angle_gamma                 90.0000
loop_
_atom_site_label
_atom_site_type_symbol
_atom_site_fract_x
_atom_site_fract_y
_atom_site_fract_z
_atom_site_U_iso_or_equiv
_atom_site_adp_type
_atom_site_occupancy
C1     C     0.38547   0.32842   0.06614   0.00000  Uiso   1.00
C2     C     0.43950   0.25533   0.07070   0.00000  Uiso   1.00
C3     C     0.48212   0.36191   0.04567   0.00000  Uiso   1.00
C4     C     0.52814   0.26886   0.05489   0.00000  Uiso   1.00
C5     C     0.61154   0.18465   0.05689   0.00000  Uiso   1.00
C6     C     0.35745   0.19218   0.98950   0.00000  Uiso   1.00
C7     C     0.33108   0.24568   0.89621   0.00000  Uiso   1.00
C8     C     0.30802   0.09947   0.83710   0.00000  Uiso   1.00
C9     C     0.26402   0.91724   0.71308   0.00000  Uiso   1.00
C10    C     0.36351   0.29463   0.17994   0.00000  Uiso   1.00
C11    C     0.34223   0.43426   0.24677   0.00000  Uiso   1.00
C12    C     0.32426   0.37429   0.34798   0.00000  Uiso   1.00
C13    C     0.28967   0.35114   0.51965   0.00000  Uiso   1.00
C14    C     0.39139   0.97366   0.12703   0.00000  Uiso   1.00
C15    C     0.44272   0.06264   0.10377   0.00000  Uiso   1.00
C16    C     0.48868   0.96941   0.11304   0.00000  Uiso   1.00
C17    C     0.53136   0.07583   0.08803   0.00000  Uiso   1.00
C18    C     0.36067   0.99950   0.02257   0.00000  Uiso   1.00
C19    C     0.33764   0.85318   0.96359   0.00000  Uiso   1.00
C20    C     0.31125   0.90643   0.87023   0.00000  Uiso   1.00
C21    C     0.36673   0.10194   0.21302   0.00000  Uiso   1.00
C22    C     0.34879   0.04175   0.31414   0.00000  Uiso   1.00
C23    C     0.32748   0.18125   0.38111   0.00000  Uiso   1.00
H24    H     0.38296   0.47843   0.04038   0.00000  Uiso   1.00
H25    H     0.47962   0.51102   0.02007   0.00000  Uiso   1.00
H26    H     0.32860   0.39480   0.87065   0.00000  Uiso   1.00
H27    H     0.33974   0.58335   0.22115   0.00000  Uiso   1.00
H28    H     0.58819   0.46215   0.01209   0.00000  Uiso   1.00
H29    H     0.26975   0.21711   0.69705   0.00000  Uiso   1.00
H30    H     0.29325   0.61471   0.43614   0.00000  Uiso   1.00
H31    H     0.39390   0.82364   0.15278   0.00000  Uiso   1.00
H32    H     0.49116   0.82029   0.13864   0.00000  Uiso   1.00
H33    H     0.34014   0.70408   0.98921   0.00000  Uiso   1.00
H34    H     0.35129   0.89263   0.33971   0.00000  Uiso   1.00
H35    H     0.59756   0.90152   0.10832   0.00000  Uiso   1.00
H36    H     0.27911   0.65649   0.79327   0.00000  Uiso   1.00
H37    H     0.30262   0.05408   0.53237   0.00000  Uiso   1.00
O38    O     0.65666   0.19143   0.04883   0.00000  Uiso   1.00
O39    O     0.23886   0.86996   0.63552   0.00000  Uiso   1.00
O40    O     0.26970   0.39160   0.60520   0.00000  Uiso   1.00
N41    N     0.57705   0.33067   0.03670   0.00000  Uiso   1.00
N42    N     0.27933   0.10158   0.74214   0.00000  Uiso   1.00
N43    N     0.30129   0.47329   0.43313   0.00000  Uiso   1.00
N44    N     0.58209   0.02901   0.08848   0.00000  Uiso   1.00
N45    N     0.28437   0.79991   0.79392   0.00000  Uiso   1.00
N46    N     0.30633   0.17162   0.48491   0.00000  Uiso   1.00
C47    C     0.61453   0.67158   0.56614   0.00000  Uiso   1.00
C48    C     0.56050   0.74467   0.57070   0.00000  Uiso   1.00
C49    C     0.51788   0.63809   0.54567   0.00000  Uiso   1.00
C50    C     0.47186   0.73114   0.55489   0.00000  Uiso   1.00
C51    C     0.38846   0.81535   0.55689   0.00000  Uiso   1.00
C52    C     0.64255   0.80782   0.48950   0.00000  Uiso   1.00
C53    C     0.66892   0.75432   0.39621   0.00000  Uiso   1.00
C54    C     0.69198   0.90053   0.33710   0.00000  Uiso   1.00
C55    C     0.73598   0.08276   0.21308   0.00000  Uiso   1.00
C56    C     0.63649   0.70537   0.67994   0.00000  Uiso   1.00
C57    C     0.65777   0.56574   0.74677   0.00000  Uiso   1.00
C58    C     0.67574   0.62571   0.84798   0.00000  Uiso   1.00
C59    C     0.71033   0.64886   0.01965   0.00000  Uiso   1.00
C60    C     0.60861   0.02634   0.62703   0.00000  Uiso   1.00
C61    C     0.55728   0.93736   0.60377   0.00000  Uiso   1.00
C62    C     0.51132   0.03059   0.61304   0.00000  Uiso   1.00
C63    C     0.46864   0.92417   0.58803   0.00000  Uiso   1.00
C64    C     0.63933   0.00050   0.52257   0.00000  Uiso   1.00
C65    C     0.66236   0.14682   0.46359   0.00000  Uiso   1.00
C66    C     0.68875   0.09357   0.37023   0.00000  Uiso   1.00
C67    C     0.63327   0.89806   0.71302   0.00000  Uiso   1.00
C68    C     0.65121   0.95825   0.81414   0.00000  Uiso   1.00
C69    C     0.67252   0.81875   0.88111   0.00000  Uiso   1.00
H70    H     0.61704   0.52157   0.54038   0.00000  Uiso   1.00
H71    H     0.52038   0.48898   0.52007   0.00000  Uiso   1.00
H72    H     0.67140   0.60520   0.37065   0.00000  Uiso   1.00
H73    H     0.66026   0.41665   0.72115   0.00000  Uiso   1.00
H74    H     0.41181   0.53785   0.51209   0.00000  Uiso   1.00
H75    H     0.73025   0.78289   0.19705   0.00000  Uiso   1.00
H76    H     0.70675   0.38529   0.93614   0.00000  Uiso   1.00
H77    H     0.60610   0.17636   0.65278   0.00000  Uiso   1.00
H78    H     0.50884   0.17971   0.63864   0.00000  Uiso   1.00
H79    H     0.65986   0.29592   0.48921   0.00000  Uiso   1.00
H80    H     0.64871   0.10737   0.83971   0.00000  Uiso   1.00
H81    H     0.40244   0.09848   0.60832   0.00000  Uiso   1.00
H82    H     0.72089   0.34351   0.29327   0.00000  Uiso   1.00
H83    H     0.69738   0.94592   0.03237   0.00000  Uiso   1.00
O84    O     0.34334   0.80857   0.54883   0.00000  Uiso   1.00
O85    O     0.76114   0.13004   0.13552   0.00000  Uiso   1.00
O86    O     0.73030   0.60840   0.10520   0.00000  Uiso   1.00
N87    N     0.42295   0.66933   0.53670   0.00000  Uiso   1.00
N88    N     0.72067   0.89842   0.24214   0.00000  Uiso   1.00
N89    N     0.69871   0.52671   0.93313   0.00000  Uiso   1.00
N90    N     0.41791   0.97099   0.58848   0.00000  Uiso   1.00
N91    N     0.71563   0.20009   0.29392   0.00000  Uiso   1.00
N92    N     0.69367   0.82838   0.98491   0.00000  Uiso   1.00
C93    C     0.88547   0.67158   0.06614   0.00000  Uiso   1.00
C94    C     0.93950   0.74467   0.07070   0.00000  Uiso   1.00
C95    C     0.98212   0.63809   0.04567   0.00000  Uiso   1.00
C96    C     0.02814   0.73114   0.05489   0.00000  Uiso   1.00
C97    C     0.11154   0.81535   0.05689   0.00000  Uiso   1.00
C98    C     0.85745   0.80782   0.98950   0.00000  Uiso   1.00
C99    C     0.83108   0.75432   0.89621   0.00000  Uiso   1.00
C100   C     0.80802   0.90053   0.83710   0.00000  Uiso   1.00
C101   C     0.76402   0.08276   0.71308   0.00000  Uiso   1.00
C102   C     0.86351   0.70537   0.17994   0.00000  Uiso   1.00
C103   C     0.84223   0.56574   0.24677   0.00000  Uiso   1.00
C104   C     0.82426   0.62571   0.34798   0.00000  Uiso   1.00
C105   C     0.78967   0.64886   0.51965   0.00000  Uiso   1.00
C106   C     0.89139   0.02634   0.12703   0.00000  Uiso   1.00
C107   C     0.94272   0.93736   0.10377   0.00000  Uiso   1.00
C108   C     0.98868   0.03059   0.11304   0.00000  Uiso   1.00
C109   C     0.03136   0.92417   0.08803   0.00000  Uiso   1.00
C110   C     0.86067   0.00050   0.02257   0.00000  Uiso   1.00
C111   C     0.83764   0.14682   0.96359   0.00000  Uiso   1.00
C112   C     0.81125   0.09357   0.87023   0.00000  Uiso   1.00
C113   C     0.86673   0.89806   0.21302   0.00000  Uiso   1.00
C114   C     0.84879   0.95825   0.31414   0.00000  Uiso   1.00
C115   C     0.82748   0.81875   0.38111   0.00000  Uiso   1.00
H116   H     0.88296   0.52157   0.04038   0.00000  Uiso   1.00
H117   H     0.97962   0.48898   0.02007   0.00000  Uiso   1.00
H118   H     0.82860   0.60520   0.87065   0.00000  Uiso   1.00
H119   H     0.83974   0.41665   0.22115   0.00000  Uiso   1.00
H120   H     0.08819   0.53785   0.01209   0.00000  Uiso   1.00
H121   H     0.76975   0.78289   0.69705   0.00000  Uiso   1.00
H122   H     0.79325   0.38529   0.43614   0.00000  Uiso   1.00
H123   H     0.89390   0.17636   0.15278   0.00000  Uiso   1.00
H124   H     0.99116   0.17971   0.13864   0.00000  Uiso   1.00
H125   H     0.84014   0.29592   0.98921   0.00000  Uiso   1.00
H126   H     0.85129   0.10737   0.33971   0.00000  Uiso   1.00
H127   H     0.09756   0.09848   0.10832   0.00000  Uiso   1.00
H128   H     0.77911   0.34351   0.79327   0.00000  Uiso   1.00
H129   H     0.80262   0.94592   0.53237   0.00000  Uiso   1.00
O130   O     0.15666   0.80857   0.04883   0.00000  Uiso   1.00
O131   O     0.73886   0.13004   0.63552   0.00000  Uiso   1.00
O132   O     0.76970   0.60840   0.60520   0.00000  Uiso   1.00
N133   N     0.07705   0.66933   0.03670   0.00000  Uiso   1.00
N134   N     0.77933   0.89842   0.74214   0.00000  Uiso   1.00
N135   N     0.80129   0.52671   0.43313   0.00000  Uiso   1.00
N136   N     0.08209   0.97099   0.08848   0.00000  Uiso   1.00
N137   N     0.78437   0.20009   0.79392   0.00000  Uiso   1.00
N138   N     0.80633   0.82838   0.48491   0.00000  Uiso   1.00
C139   C     0.11453   0.32842   0.56614   0.00000  Uiso   1.00
C140   C     0.06050   0.25533   0.57070   0.00000  Uiso   1.00
C141   C     0.01788   0.36191   0.54567   0.00000  Uiso   1.00
C142   C     0.97186   0.26886   0.55489   0.00000  Uiso   1.00
C143   C     0.88846   0.18465   0.55689   0.00000  Uiso   1.00
C144   C     0.14255   0.19218   0.48950   0.00000  Uiso   1.00
C145   C     0.16892   0.24568   0.39621   0.00000  Uiso   1.00
C146   C     0.19198   0.09947   0.33710   0.00000  Uiso   1.00
C147   C     0.23598   0.91724   0.21308   0.00000  Uiso   1.00
C148   C     0.13649   0.29463   0.67994   0.00000  Uiso   1.00
C149   C     0.15777   0.43426   0.74677   0.00000  Uiso   1.00
C150   C     0.17574   0.37429   0.84798   0.00000  Uiso   1.00
C151   C     0.21033   0.35114   0.01965   0.00000  Uiso   1.00
C152   C     0.10861   0.97366   0.62703   0.00000  Uiso   1.00
C153   C     0.05728   0.06264   0.60377   0.00000  Uiso   1.00
C154   C     0.01132   0.96941   0.61304   0.00000  Uiso   1.00
C155   C     0.96864   0.07583   0.58803   0.00000  Uiso   1.00
C156   C     0.13933   0.99950   0.52257   0.00000  Uiso   1.00
C157   C     0.16236   0.85318   0.46359   0.00000  Uiso   1.00
C158   C     0.18875   0.90643   0.37023   0.00000  Uiso   1.00
C159   C     0.13327   0.10194   0.71302   0.00000  Uiso   1.00
C160   C     0.15121   0.04175   0.81414   0.00000  Uiso   1.00
C161   C     0.17252   0.18125   0.88111   0.00000  Uiso   1.00
H162   H     0.11704   0.47843   0.54038   0.00000  Uiso   1.00
H163   H     0.02038   0.51102   0.52007   0.00000  Uiso   1.00
H164   H     0.17140   0.39480   0.37065   0.00000  Uiso   1.00
H165   H     0.16026   0.58335   0.72115   0.00000  Uiso   1.00
H166   H     0.91181   0.46215   0.51209   0.00000  Uiso   1.00
H167   H     0.23025   0.21711   0.19705   0.00000  Uiso   1.00
H168   H     0.20675   0.61471   0.93614   0.00000  Uiso   1.00
H169   H     0.10610   0.82364   0.65278   0.00000  Uiso   1.00
H170   H     0.00884   0.82029   0.63864   0.00000  Uiso   1.00
H171   H     0.15986   0.70408   0.48921   0.00000  Uiso   1.00
H172   H     0.14871   0.89263   0.83971   0.00000  Uiso   1.00
H173   H     0.90244   0.90152   0.60832   0.00000  Uiso   1.00
H174   H     0.22089   0.65649   0.29327   0.00000  Uiso   1.00
H175   H     0.19738   0.05408   0.03237   0.00000  Uiso   1.00
O176   O     0.84334   0.19143   0.54883   0.00000  Uiso   1.00
O177   O     0.26114   0.86996   0.13552   0.00000  Uiso   1.00
O178   O     0.23030   0.39160   0.10520   0.00000  Uiso   1.00
N179   N     0.92295   0.33067   0.53670   0.00000  Uiso   1.00
N180   N     0.22067   0.10158   0.24214   0.00000  Uiso   1.00
N181   N     0.19871   0.47329   0.93313   0.00000  Uiso   1.00
N182   N     0.91791   0.02901   0.58848   0.00000  Uiso   1.00
N183   N     0.21563   0.79991   0.29392   0.00000  Uiso   1.00
N184   N     0.19367   0.17162   0.98491   0.00000  Uiso   1.00
