data_job_01155
_audit_creation_date              2018-12-19
_audit_creation_method            'Materials Studio'
_symmetry_space_group_name_H-M    'P1'
_symmetry_Int_Tables_number       1
_symmetry_cell_setting            triclinic
loop_
_symmetry_equiv_pos_as_xyz
  x,y,z
_cell_length_a                    15.9722
_cell_length_b                    13.8305
_cell_length_c                    21.2438
_cell_angle_alpha                 90.0000
_cell_angle_beta                  90.0000
_cell_angle_gamma                 90.0000
loop_
_atom_site_label
_atom_site_type_symbol
_atom_site_fract_x
_atom_site_fract_y
_atom_site_fract_z
_atom_site_U_iso_or_equiv
_atom_site_adp_type
_atom_site_occupancy
C1     C     0.41364   0.64562   0.00162   0.00000  Uiso   1.00
C2     C     0.46499   0.72985   0.02722   0.00000  Uiso   1.00
C3     C     0.54448   0.72328   0.05325   0.00000  Uiso   1.00
C4     C     0.58091   0.80870   0.07394   0.00000  Uiso   1.00
C5     C     0.66699   0.92600   0.11444   0.00000  Uiso   1.00
C6     C     0.39251   0.67164   0.93370   0.00000  Uiso   1.00
C7     C     0.41105   0.61611   0.88110   0.00000  Uiso   1.00
C8     C     0.38645   0.65253   0.82307   0.00000  Uiso   1.00
C9     C     0.35994   0.67941   0.71839   0.00000  Uiso   1.00
C10    C     0.33090   0.64735   0.03741   0.00000  Uiso   1.00
C11    C     0.29762   0.57139   0.07200   0.00000  Uiso   1.00
C12    C     0.22114   0.58736   0.10127   0.00000  Uiso   1.00
C13    C     0.09898   0.57653   0.15762   0.00000  Uiso   1.00
C14    C     0.33698   0.80902   0.99209   0.00000  Uiso   1.00
C15    C     0.42335   0.81861   0.02204   0.00000  Uiso   1.00
C16    C     0.45966   0.90406   0.04270   0.00000  Uiso   1.00
C17    C     0.53919   0.89761   0.06876   0.00000  Uiso   1.00
C18    C     0.35087   0.76039   0.92852   0.00000  Uiso   1.00
C19    C     0.32623   0.79690   0.87056   0.00000  Uiso   1.00
C20    C     0.34473   0.74144   0.81789   0.00000  Uiso   1.00
C21    C     0.28926   0.73611   0.03224   0.00000  Uiso   1.00
C22    C     0.21281   0.75219   0.06146   0.00000  Uiso   1.00
C23    C     0.17942   0.67627   0.09609   0.00000  Uiso   1.00
H24    H     0.44606   0.57652   0.00565   0.00000  Uiso   1.00
H25    H     0.57669   0.65458   0.05724   0.00000  Uiso   1.00
H26    H     0.44326   0.54742   0.88512   0.00000  Uiso   1.00
H27    H     0.32986   0.50272   0.07599   0.00000  Uiso   1.00
H28    H     0.70316   0.78026   0.11213   0.00000  Uiso   1.00
H29    H     0.42181   0.55431   0.74922   0.00000  Uiso   1.00
H30    H     0.18267   0.46004   0.15170   0.00000  Uiso   1.00
H31    H     0.30456   0.87813   0.98806   0.00000  Uiso   1.00
H32    H     0.42743   0.97274   0.03869   0.00000  Uiso   1.00
H33    H     0.29400   0.86558   0.86657   0.00000  Uiso   1.00
H34    H     0.18060   0.82088   0.05744   0.00000  Uiso   1.00
H35    H     0.58202   0.03849   0.09708   0.00000  Uiso   1.00
H36    H     0.30066   0.81253   0.73416   0.00000  Uiso   1.00
H37    H     0.06153   0.71827   0.13665   0.00000  Uiso   1.00
O38    O     0.72598   0.96618   0.13821   0.00000  Uiso   1.00
O39    O     0.35684   0.66972   0.66208   0.00000  Uiso   1.00
O40    O     0.04310   0.54605   0.19013   0.00000  Uiso   1.00
N41    N     0.65778   0.82805   0.10165   0.00000  Uiso   1.00
N42    N     0.39474   0.61680   0.76235   0.00000  Uiso   1.00
N43    N     0.17116   0.52866   0.13862   0.00000  Uiso   1.00
N44    N     0.59259   0.96700   0.09355   0.00000  Uiso   1.00
N45    N     0.32956   0.75575   0.75425   0.00000  Uiso   1.00
N46    N     0.10598   0.66761   0.13052   0.00000  Uiso   1.00
C47    C     0.08636   0.35438   0.50162   0.00000  Uiso   1.00
C48    C     0.03501   0.27015   0.52722   0.00000  Uiso   1.00
C49    C     0.95552   0.27672   0.55325   0.00000  Uiso   1.00
C50    C     0.91909   0.19130   0.57394   0.00000  Uiso   1.00
C51    C     0.83301   0.07400   0.61444   0.00000  Uiso   1.00
C52    C     0.10749   0.32836   0.43370   0.00000  Uiso   1.00
C53    C     0.08895   0.38389   0.38110   0.00000  Uiso   1.00
C54    C     0.11355   0.34747   0.32307   0.00000  Uiso   1.00
C55    C     0.14006   0.32059   0.21839   0.00000  Uiso   1.00
C56    C     0.16910   0.35265   0.53741   0.00000  Uiso   1.00
C57    C     0.20238   0.42861   0.57200   0.00000  Uiso   1.00
C58    C     0.27886   0.41264   0.60127   0.00000  Uiso   1.00
C59    C     0.40102   0.42347   0.65762   0.00000  Uiso   1.00
C60    C     0.16302   0.19098   0.49209   0.00000  Uiso   1.00
C61    C     0.07665   0.18139   0.52204   0.00000  Uiso   1.00
C62    C     0.04034   0.09594   0.54270   0.00000  Uiso   1.00
C63    C     0.96081   0.10239   0.56876   0.00000  Uiso   1.00
C64    C     0.14913   0.23961   0.42852   0.00000  Uiso   1.00
C65    C     0.17377   0.20310   0.37056   0.00000  Uiso   1.00
C66    C     0.15527   0.25856   0.31789   0.00000  Uiso   1.00
C67    C     0.21074   0.26389   0.53224   0.00000  Uiso   1.00
C68    C     0.28719   0.24781   0.56146   0.00000  Uiso   1.00
C69    C     0.32058   0.32373   0.59609   0.00000  Uiso   1.00
H70    H     0.05394   0.42348   0.50565   0.00000  Uiso   1.00
H71    H     0.92331   0.34542   0.55724   0.00000  Uiso   1.00
H72    H     0.05674   0.45258   0.38512   0.00000  Uiso   1.00
H73    H     0.17014   0.49728   0.57599   0.00000  Uiso   1.00
H74    H     0.79684   0.21974   0.61213   0.00000  Uiso   1.00
H75    H     0.07819   0.44569   0.24922   0.00000  Uiso   1.00
H76    H     0.31733   0.53996   0.65170   0.00000  Uiso   1.00
H77    H     0.19544   0.12187   0.48806   0.00000  Uiso   1.00
H78    H     0.07257   0.02726   0.53869   0.00000  Uiso   1.00
H79    H     0.20600   0.13442   0.36657   0.00000  Uiso   1.00
H80    H     0.31940   0.17912   0.55744   0.00000  Uiso   1.00
H81    H     0.91798   0.96151   0.59708   0.00000  Uiso   1.00
H82    H     0.19934   0.18747   0.23416   0.00000  Uiso   1.00
H83    H     0.43847   0.28173   0.63665   0.00000  Uiso   1.00
O84    O     0.77402   0.03382   0.63821   0.00000  Uiso   1.00
O85    O     0.14316   0.33028   0.16208   0.00000  Uiso   1.00
O86    O     0.45690   0.45395   0.69013   0.00000  Uiso   1.00
N87    N     0.84222   0.17195   0.60165   0.00000  Uiso   1.00
N88    N     0.10526   0.38320   0.26235   0.00000  Uiso   1.00
N89    N     0.32884   0.47134   0.63862   0.00000  Uiso   1.00
N90    N     0.90741   0.03300   0.59355   0.00000  Uiso   1.00
N91    N     0.17044   0.24425   0.25425   0.00000  Uiso   1.00
N92    N     0.39402   0.33239   0.63052   0.00000  Uiso   1.00
C93    C     0.58636   0.14562   0.49838   0.00000  Uiso   1.00
C94    C     0.53501   0.22985   0.47278   0.00000  Uiso   1.00
C95    C     0.45552   0.22328   0.44675   0.00000  Uiso   1.00
C96    C     0.41909   0.30870   0.42606   0.00000  Uiso   1.00
C97    C     0.33301   0.42600   0.38556   0.00000  Uiso   1.00
C98    C     0.60749   0.17164   0.56630   0.00000  Uiso   1.00
C99    C     0.58895   0.11611   0.61890   0.00000  Uiso   1.00
C100   C     0.61355   0.15253   0.67693   0.00000  Uiso   1.00
C101   C     0.64006   0.17941   0.78161   0.00000  Uiso   1.00
C102   C     0.66910   0.14735   0.46259   0.00000  Uiso   1.00
C103   C     0.70238   0.07139   0.42800   0.00000  Uiso   1.00
C104   C     0.77886   0.08736   0.39873   0.00000  Uiso   1.00
C105   C     0.90102   0.07653   0.34238   0.00000  Uiso   1.00
C106   C     0.66302   0.30902   0.50791   0.00000  Uiso   1.00
C107   C     0.57665   0.31861   0.47796   0.00000  Uiso   1.00
C108   C     0.54034   0.40406   0.45730   0.00000  Uiso   1.00
C109   C     0.46081   0.39761   0.43124   0.00000  Uiso   1.00
C110   C     0.64913   0.26039   0.57148   0.00000  Uiso   1.00
C111   C     0.67377   0.29690   0.62944   0.00000  Uiso   1.00
C112   C     0.65527   0.24144   0.68211   0.00000  Uiso   1.00
C113   C     0.71074   0.23611   0.46776   0.00000  Uiso   1.00
C114   C     0.78719   0.25219   0.43854   0.00000  Uiso   1.00
C115   C     0.82058   0.17627   0.40391   0.00000  Uiso   1.00
H116   H     0.55394   0.07652   0.49435   0.00000  Uiso   1.00
H117   H     0.42331   0.15458   0.44276   0.00000  Uiso   1.00
H118   H     0.55674   0.04742   0.61488   0.00000  Uiso   1.00
H119   H     0.67014   0.00272   0.42401   0.00000  Uiso   1.00
H120   H     0.29684   0.28026   0.38787   0.00000  Uiso   1.00
H121   H     0.57819   0.05431   0.75078   0.00000  Uiso   1.00
H122   H     0.81733   0.96004   0.34830   0.00000  Uiso   1.00
H123   H     0.69544   0.37813   0.51194   0.00000  Uiso   1.00
H124   H     0.57257   0.47274   0.46131   0.00000  Uiso   1.00
H125   H     0.70600   0.36558   0.63343   0.00000  Uiso   1.00
H126   H     0.81940   0.32088   0.44256   0.00000  Uiso   1.00
H127   H     0.41798   0.53849   0.40292   0.00000  Uiso   1.00
H128   H     0.69934   0.31253   0.76584   0.00000  Uiso   1.00
H129   H     0.93847   0.21827   0.36335   0.00000  Uiso   1.00
O130   O     0.27402   0.46618   0.36179   0.00000  Uiso   1.00
O131   O     0.64316   0.16972   0.83792   0.00000  Uiso   1.00
O132   O     0.95690   0.04605   0.30987   0.00000  Uiso   1.00
N133   N     0.34222   0.32805   0.39835   0.00000  Uiso   1.00
N134   N     0.60526   0.11680   0.73765   0.00000  Uiso   1.00
N135   N     0.82884   0.02866   0.36138   0.00000  Uiso   1.00
N136   N     0.40741   0.46700   0.40645   0.00000  Uiso   1.00
N137   N     0.67044   0.25575   0.74575   0.00000  Uiso   1.00
N138   N     0.89402   0.16761   0.36948   0.00000  Uiso   1.00
C139   C     0.91364   0.85438   0.99838   0.00000  Uiso   1.00
C140   C     0.96499   0.77015   0.97278   0.00000  Uiso   1.00
C141   C     0.04448   0.77672   0.94675   0.00000  Uiso   1.00
C142   C     0.08091   0.69130   0.92606   0.00000  Uiso   1.00
C143   C     0.16699   0.57400   0.88556   0.00000  Uiso   1.00
C144   C     0.89251   0.82836   0.06630   0.00000  Uiso   1.00
C145   C     0.91105   0.88389   0.11890   0.00000  Uiso   1.00
C146   C     0.88645   0.84747   0.17693   0.00000  Uiso   1.00
C147   C     0.85994   0.82059   0.28161   0.00000  Uiso   1.00
C148   C     0.83090   0.85265   0.96259   0.00000  Uiso   1.00
C149   C     0.79762   0.92861   0.92800   0.00000  Uiso   1.00
C150   C     0.72114   0.91264   0.89873   0.00000  Uiso   1.00
C151   C     0.59898   0.92347   0.84238   0.00000  Uiso   1.00
C152   C     0.83698   0.69098   0.00791   0.00000  Uiso   1.00
C153   C     0.92335   0.68139   0.97796   0.00000  Uiso   1.00
C154   C     0.95966   0.59594   0.95730   0.00000  Uiso   1.00
C155   C     0.03919   0.60239   0.93124   0.00000  Uiso   1.00
C156   C     0.85087   0.73961   0.07148   0.00000  Uiso   1.00
C157   C     0.82623   0.70310   0.12944   0.00000  Uiso   1.00
C158   C     0.84473   0.75856   0.18211   0.00000  Uiso   1.00
C159   C     0.78926   0.76389   0.96776   0.00000  Uiso   1.00
C160   C     0.71281   0.74781   0.93854   0.00000  Uiso   1.00
C161   C     0.67942   0.82373   0.90391   0.00000  Uiso   1.00
H162   H     0.94606   0.92348   0.99435   0.00000  Uiso   1.00
H163   H     0.07669   0.84542   0.94276   0.00000  Uiso   1.00
H164   H     0.94326   0.95258   0.11488   0.00000  Uiso   1.00
H165   H     0.82986   0.99728   0.92401   0.00000  Uiso   1.00
H166   H     0.20316   0.71974   0.88787   0.00000  Uiso   1.00
H167   H     0.92181   0.94569   0.25078   0.00000  Uiso   1.00
H168   H     0.68267   0.03996   0.84830   0.00000  Uiso   1.00
H169   H     0.80456   0.62187   0.01194   0.00000  Uiso   1.00
H170   H     0.92743   0.52726   0.96131   0.00000  Uiso   1.00
H171   H     0.79400   0.63442   0.13343   0.00000  Uiso   1.00
H172   H     0.68060   0.67912   0.94256   0.00000  Uiso   1.00
H173   H     0.08202   0.46151   0.90292   0.00000  Uiso   1.00
H174   H     0.80066   0.68747   0.26584   0.00000  Uiso   1.00
H175   H     0.56153   0.78173   0.86335   0.00000  Uiso   1.00
O176   O     0.22598   0.53382   0.86179   0.00000  Uiso   1.00
O177   O     0.85684   0.83028   0.33792   0.00000  Uiso   1.00
O178   O     0.54310   0.95395   0.80987   0.00000  Uiso   1.00
N179   N     0.15778   0.67195   0.89835   0.00000  Uiso   1.00
N180   N     0.89474   0.88320   0.23765   0.00000  Uiso   1.00
N181   N     0.67116   0.97134   0.86138   0.00000  Uiso   1.00
N182   N     0.09259   0.53300   0.90645   0.00000  Uiso   1.00
N183   N     0.82956   0.74425   0.24575   0.00000  Uiso   1.00
N184   N     0.60598   0.83239   0.86948   0.00000  Uiso   1.00
C185   C     0.58636   0.35438   0.99838   0.00000  Uiso   1.00
C186   C     0.53501   0.27015   0.97278   0.00000  Uiso   1.00
C187   C     0.45552   0.27672   0.94675   0.00000  Uiso   1.00
C188   C     0.41909   0.19130   0.92606   0.00000  Uiso   1.00
C189   C     0.33301   0.07400   0.88556   0.00000  Uiso   1.00
C190   C     0.60749   0.32836   0.06630   0.00000  Uiso   1.00
C191   C     0.58895   0.38389   0.11890   0.00000  Uiso   1.00
C192   C     0.61355   0.34747   0.17693   0.00000  Uiso   1.00
C193   C     0.64006   0.32059   0.28161   0.00000  Uiso   1.00
C194   C     0.66910   0.35265   0.96259   0.00000  Uiso   1.00
C195   C     0.70238   0.42861   0.92800   0.00000  Uiso   1.00
C196   C     0.77886   0.41264   0.89873   0.00000  Uiso   1.00
C197   C     0.90102   0.42347   0.84238   0.00000  Uiso   1.00
C198   C     0.66302   0.19098   0.00791   0.00000  Uiso   1.00
C199   C     0.57665   0.18139   0.97796   0.00000  Uiso   1.00
C200   C     0.54034   0.09594   0.95730   0.00000  Uiso   1.00
C201   C     0.46081   0.10239   0.93124   0.00000  Uiso   1.00
C202   C     0.64913   0.23961   0.07148   0.00000  Uiso   1.00
C203   C     0.67377   0.20310   0.12944   0.00000  Uiso   1.00
C204   C     0.65527   0.25856   0.18211   0.00000  Uiso   1.00
C205   C     0.71074   0.26389   0.96776   0.00000  Uiso   1.00
C206   C     0.78719   0.24781   0.93854   0.00000  Uiso   1.00
C207   C     0.82058   0.32373   0.90391   0.00000  Uiso   1.00
H208   H     0.55394   0.42348   0.99435   0.00000  Uiso   1.00
H209   H     0.42331   0.34542   0.94276   0.00000  Uiso   1.00
H210   H     0.55674   0.45258   0.11488   0.00000  Uiso   1.00
H211   H     0.67014   0.49728   0.92401   0.00000  Uiso   1.00
H212   H     0.29684   0.21974   0.88787   0.00000  Uiso   1.00
H213   H     0.57819   0.44569   0.25078   0.00000  Uiso   1.00
H214   H     0.81733   0.53996   0.84830   0.00000  Uiso   1.00
H215   H     0.69544   0.12187   0.01194   0.00000  Uiso   1.00
H216   H     0.57257   0.02726   0.96131   0.00000  Uiso   1.00
H217   H     0.70600   0.13442   0.13343   0.00000  Uiso   1.00
H218   H     0.81940   0.17912   0.94256   0.00000  Uiso   1.00
H219   H     0.41798   0.96151   0.90292   0.00000  Uiso   1.00
H220   H     0.69934   0.18747   0.26584   0.00000  Uiso   1.00
H221   H     0.93847   0.28173   0.86335   0.00000  Uiso   1.00
O222   O     0.27402   0.03382   0.86179   0.00000  Uiso   1.00
O223   O     0.64316   0.33028   0.33792   0.00000  Uiso   1.00
O224   O     0.95690   0.45395   0.80987   0.00000  Uiso   1.00
N225   N     0.34222   0.17195   0.89835   0.00000  Uiso   1.00
N226   N     0.60526   0.38320   0.23765   0.00000  Uiso   1.00
N227   N     0.82884   0.47134   0.86138   0.00000  Uiso   1.00
N228   N     0.40741   0.03300   0.90645   0.00000  Uiso   1.00
N229   N     0.67044   0.24425   0.24575   0.00000  Uiso   1.00
N230   N     0.89402   0.33239   0.86948   0.00000  Uiso   1.00
C231   C     0.91364   0.64562   0.49838   0.00000  Uiso   1.00
C232   C     0.96499   0.72985   0.47278   0.00000  Uiso   1.00
C233   C     0.04448   0.72328   0.44675   0.00000  Uiso   1.00
C234   C     0.08091   0.80870   0.42606   0.00000  Uiso   1.00
C235   C     0.16699   0.92600   0.38556   0.00000  Uiso   1.00
C236   C     0.89251   0.67164   0.56630   0.00000  Uiso   1.00
C237   C     0.91105   0.61611   0.61890   0.00000  Uiso   1.00
C238   C     0.88645   0.65253   0.67693   0.00000  Uiso   1.00
C239   C     0.85994   0.67941   0.78161   0.00000  Uiso   1.00
C240   C     0.83090   0.64735   0.46259   0.00000  Uiso   1.00
C241   C     0.79762   0.57139   0.42800   0.00000  Uiso   1.00
C242   C     0.72114   0.58736   0.39873   0.00000  Uiso   1.00
C243   C     0.59898   0.57653   0.34238   0.00000  Uiso   1.00
C244   C     0.83698   0.80902   0.50791   0.00000  Uiso   1.00
C245   C     0.92335   0.81861   0.47796   0.00000  Uiso   1.00
C246   C     0.95966   0.90406   0.45730   0.00000  Uiso   1.00
C247   C     0.03919   0.89761   0.43124   0.00000  Uiso   1.00
C248   C     0.85087   0.76039   0.57148   0.00000  Uiso   1.00
C249   C     0.82623   0.79690   0.62944   0.00000  Uiso   1.00
C250   C     0.84473   0.74144   0.68211   0.00000  Uiso   1.00
C251   C     0.78926   0.73611   0.46776   0.00000  Uiso   1.00
C252   C     0.71281   0.75219   0.43854   0.00000  Uiso   1.00
C253   C     0.67942   0.67627   0.40391   0.00000  Uiso   1.00
H254   H     0.94606   0.57652   0.49435   0.00000  Uiso   1.00
H255   H     0.07669   0.65458   0.44276   0.00000  Uiso   1.00
H256   H     0.94326   0.54742   0.61488   0.00000  Uiso   1.00
H257   H     0.82986   0.50272   0.42401   0.00000  Uiso   1.00
H258   H     0.20316   0.78026   0.38787   0.00000  Uiso   1.00
H259   H     0.92181   0.55431   0.75078   0.00000  Uiso   1.00
H260   H     0.68267   0.46004   0.34830   0.00000  Uiso   1.00
H261   H     0.80456   0.87813   0.51194   0.00000  Uiso   1.00
H262   H     0.92743   0.97274   0.46131   0.00000  Uiso   1.00
H263   H     0.79400   0.86558   0.63343   0.00000  Uiso   1.00
H264   H     0.68060   0.82088   0.44256   0.00000  Uiso   1.00
H265   H     0.08202   0.03849   0.40292   0.00000  Uiso   1.00
H266   H     0.80066   0.81253   0.76584   0.00000  Uiso   1.00
H267   H     0.56153   0.71827   0.36335   0.00000  Uiso   1.00
O268   O     0.22598   0.96618   0.36179   0.00000  Uiso   1.00
O269   O     0.85684   0.66972   0.83792   0.00000  Uiso   1.00
O270   O     0.54310   0.54605   0.30987   0.00000  Uiso   1.00
N271   N     0.15778   0.82805   0.39835   0.00000  Uiso   1.00
N272   N     0.89474   0.61680   0.73765   0.00000  Uiso   1.00
N273   N     0.67116   0.52866   0.36138   0.00000  Uiso   1.00
N274   N     0.09259   0.96700   0.40645   0.00000  Uiso   1.00
N275   N     0.82956   0.75575   0.74575   0.00000  Uiso   1.00
N276   N     0.60598   0.66761   0.36948   0.00000  Uiso   1.00
C277   C     0.41364   0.85438   0.50162   0.00000  Uiso   1.00
C278   C     0.46499   0.77015   0.52722   0.00000  Uiso   1.00
C279   C     0.54448   0.77672   0.55325   0.00000  Uiso   1.00
C280   C     0.58091   0.69130   0.57394   0.00000  Uiso   1.00
C281   C     0.66699   0.57400   0.61444   0.00000  Uiso   1.00
C282   C     0.39251   0.82836   0.43370   0.00000  Uiso   1.00
C283   C     0.41105   0.88389   0.38110   0.00000  Uiso   1.00
C284   C     0.38645   0.84747   0.32307   0.00000  Uiso   1.00
C285   C     0.35994   0.82059   0.21839   0.00000  Uiso   1.00
C286   C     0.33090   0.85265   0.53741   0.00000  Uiso   1.00
C287   C     0.29762   0.92861   0.57200   0.00000  Uiso   1.00
C288   C     0.22114   0.91264   0.60127   0.00000  Uiso   1.00
C289   C     0.09898   0.92347   0.65762   0.00000  Uiso   1.00
C290   C     0.33698   0.69098   0.49209   0.00000  Uiso   1.00
C291   C     0.42335   0.68139   0.52204   0.00000  Uiso   1.00
C292   C     0.45966   0.59594   0.54270   0.00000  Uiso   1.00
C293   C     0.53919   0.60239   0.56876   0.00000  Uiso   1.00
C294   C     0.35087   0.73961   0.42852   0.00000  Uiso   1.00
C295   C     0.32623   0.70310   0.37056   0.00000  Uiso   1.00
C296   C     0.34473   0.75856   0.31789   0.00000  Uiso   1.00
C297   C     0.28926   0.76389   0.53224   0.00000  Uiso   1.00
C298   C     0.21281   0.74781   0.56146   0.00000  Uiso   1.00
C299   C     0.17942   0.82373   0.59609   0.00000  Uiso   1.00
H300   H     0.44606   0.92348   0.50565   0.00000  Uiso   1.00
H301   H     0.57669   0.84542   0.55724   0.00000  Uiso   1.00
H302   H     0.44326   0.95258   0.38512   0.00000  Uiso   1.00
H303   H     0.32986   0.99728   0.57599   0.00000  Uiso   1.00
H304   H     0.70316   0.71974   0.61213   0.00000  Uiso   1.00
H305   H     0.42181   0.94569   0.24922   0.00000  Uiso   1.00
H306   H     0.18267   0.03996   0.65170   0.00000  Uiso   1.00
H307   H     0.30456   0.62187   0.48806   0.00000  Uiso   1.00
H308   H     0.42743   0.52726   0.53869   0.00000  Uiso   1.00
H309   H     0.29400   0.63442   0.36657   0.00000  Uiso   1.00
H310   H     0.18060   0.67912   0.55744   0.00000  Uiso   1.00
H311   H     0.58202   0.46151   0.59708   0.00000  Uiso   1.00
H312   H     0.30066   0.68747   0.23416   0.00000  Uiso   1.00
H313   H     0.06153   0.78173   0.63665   0.00000  Uiso   1.00
O314   O     0.72598   0.53382   0.63821   0.00000  Uiso   1.00
O315   O     0.35684   0.83028   0.16208   0.00000  Uiso   1.00
O316   O     0.04310   0.95395   0.69013   0.00000  Uiso   1.00
N317   N     0.65778   0.67195   0.60165   0.00000  Uiso   1.00
N318   N     0.39474   0.88320   0.26235   0.00000  Uiso   1.00
N319   N     0.17116   0.97134   0.63862   0.00000  Uiso   1.00
N320   N     0.59259   0.53300   0.59355   0.00000  Uiso   1.00
N321   N     0.32956   0.74425   0.25425   0.00000  Uiso   1.00
N322   N     0.10598   0.83239   0.63052   0.00000  Uiso   1.00
C323   C     0.08636   0.14562   0.00162   0.00000  Uiso   1.00
C324   C     0.03501   0.22985   0.02722   0.00000  Uiso   1.00
C325   C     0.95552   0.22328   0.05325   0.00000  Uiso   1.00
C326   C     0.91909   0.30870   0.07394   0.00000  Uiso   1.00
C327   C     0.83301   0.42600   0.11444   0.00000  Uiso   1.00
C328   C     0.10749   0.17164   0.93370   0.00000  Uiso   1.00
C329   C     0.08895   0.11611   0.88110   0.00000  Uiso   1.00
C330   C     0.11355   0.15253   0.82307   0.00000  Uiso   1.00
C331   C     0.14006   0.17941   0.71839   0.00000  Uiso   1.00
C332   C     0.16910   0.14735   0.03741   0.00000  Uiso   1.00
C333   C     0.20238   0.07139   0.07200   0.00000  Uiso   1.00
C334   C     0.27886   0.08736   0.10127   0.00000  Uiso   1.00
C335   C     0.40102   0.07653   0.15762   0.00000  Uiso   1.00
C336   C     0.16302   0.30902   0.99209   0.00000  Uiso   1.00
C337   C     0.07665   0.31861   0.02204   0.00000  Uiso   1.00
C338   C     0.04034   0.40406   0.04270   0.00000  Uiso   1.00
C339   C     0.96081   0.39761   0.06876   0.00000  Uiso   1.00
C340   C     0.14913   0.26039   0.92852   0.00000  Uiso   1.00
C341   C     0.17377   0.29690   0.87056   0.00000  Uiso   1.00
C342   C     0.15527   0.24144   0.81789   0.00000  Uiso   1.00
C343   C     0.21074   0.23611   0.03224   0.00000  Uiso   1.00
C344   C     0.28719   0.25219   0.06146   0.00000  Uiso   1.00
C345   C     0.32058   0.17627   0.09609   0.00000  Uiso   1.00
H346   H     0.05394   0.07652   0.00565   0.00000  Uiso   1.00
H347   H     0.92331   0.15458   0.05724   0.00000  Uiso   1.00
H348   H     0.05674   0.04742   0.88512   0.00000  Uiso   1.00
H349   H     0.17014   0.00272   0.07599   0.00000  Uiso   1.00
H350   H     0.79684   0.28026   0.11213   0.00000  Uiso   1.00
H351   H     0.07819   0.05431   0.74922   0.00000  Uiso   1.00
H352   H     0.31733   0.96004   0.15170   0.00000  Uiso   1.00
H353   H     0.19544   0.37813   0.98806   0.00000  Uiso   1.00
H354   H     0.07257   0.47274   0.03869   0.00000  Uiso   1.00
H355   H     0.20600   0.36558   0.86657   0.00000  Uiso   1.00
H356   H     0.31940   0.32088   0.05744   0.00000  Uiso   1.00
H357   H     0.91798   0.53849   0.09708   0.00000  Uiso   1.00
H358   H     0.19934   0.31253   0.73416   0.00000  Uiso   1.00
H359   H     0.43847   0.21827   0.13665   0.00000  Uiso   1.00
O360   O     0.77402   0.46618   0.13821   0.00000  Uiso   1.00
O361   O     0.14316   0.16972   0.66208   0.00000  Uiso   1.00
O362   O     0.45690   0.04605   0.19013   0.00000  Uiso   1.00
N363   N     0.84222   0.32805   0.10165   0.00000  Uiso   1.00
N364   N     0.10526   0.11680   0.76235   0.00000  Uiso   1.00
N365   N     0.32884   0.02866   0.13862   0.00000  Uiso   1.00
N366   N     0.90741   0.46700   0.09355   0.00000  Uiso   1.00
N367   N     0.17044   0.25575   0.75425   0.00000  Uiso   1.00
N368   N     0.39402   0.16761   0.13052   0.00000  Uiso   1.00
