data_job_06279
_audit_creation_date              2018-12-19
_audit_creation_method            'Materials Studio'
_symmetry_space_group_name_H-M    'P1'
_symmetry_Int_Tables_number       1
_symmetry_cell_setting            triclinic
loop_
_symmetry_equiv_pos_as_xyz
  x,y,z
_cell_length_a                    8.7093
_cell_length_b                    22.0186
_cell_length_c                    23.0098
_cell_angle_alpha                 118.0400
_cell_angle_beta                  79.2797
_cell_angle_gamma                 90.6459
loop_
_atom_site_label
_atom_site_type_symbol
_atom_site_fract_x
_atom_site_fract_y
_atom_site_fract_z
_atom_site_U_iso_or_equiv
_atom_site_adp_type
_atom_site_occupancy
C1     C     0.50921   0.65557   0.98893   0.00000  Uiso   1.00
C2     C     0.66816   0.64571   0.94306   0.00000  Uiso   1.00
C3     C     0.70325   0.60460   0.87371   0.00000  Uiso   1.00
C4     C     0.85555   0.60244   0.84086   0.00000  Uiso   1.00
C5     C     0.08520   0.58136   0.76426   0.00000  Uiso   1.00
C6     C     0.53906   0.63530   0.04103   0.00000  Uiso   1.00
C7     C     0.46557   0.58546   0.05406   0.00000  Uiso   1.00
C8     C     0.50919   0.57454   0.10369   0.00000  Uiso   1.00
C9     C     0.53831   0.53735   0.17923   0.00000  Uiso   1.00
C10    C     0.46301   0.73316   0.02725   0.00000  Uiso   1.00
C11    C     0.32557   0.76560   0.02870   0.00000  Uiso   1.00
C12    C     0.30514   0.83708   0.06674   0.00000  Uiso   1.00
C13    C     0.21619   0.95183   0.12088   0.00000  Uiso   1.00
C14    C     0.71730   0.72482   0.05392   0.00000  Uiso   1.00
C15    C     0.78119   0.68332   0.97836   0.00000  Uiso   1.00
C16    C     0.93348   0.68122   0.94560   0.00000  Uiso   1.00
C17    C     0.96879   0.64012   0.87621   0.00000  Uiso   1.00
C18    C     0.65208   0.67291   0.07633   0.00000  Uiso   1.00
C19    C     0.69581   0.66207   0.12595   0.00000  Uiso   1.00
C20    C     0.62242   0.61222   0.13905   0.00000  Uiso   1.00
C21    C     0.57604   0.77078   0.06254   0.00000  Uiso   1.00
C22    C     0.55581   0.84222   0.10059   0.00000  Uiso   1.00
C23    C     0.41837   0.87476   0.10210   0.00000  Uiso   1.00
H24    H     0.42121   0.62629   0.96146   0.00000  Uiso   1.00
H25    H     0.61574   0.57550   0.84641   0.00000  Uiso   1.00
H26    H     0.37810   0.55636   0.02674   0.00000  Uiso   1.00
H27    H     0.23813   0.73648   0.00138   0.00000  Uiso   1.00
H28    H     0.88129   0.53575   0.73443   0.00000  Uiso   1.00
H29    H     0.38016   0.49542   0.11467   0.00000  Uiso   1.00
H30    H     0.08499   0.87523   0.06121   0.00000  Uiso   1.00
H31    H     0.80530   0.75411   0.08140   0.00000  Uiso   1.00
H32    H     0.02093   0.71033   0.97293   0.00000  Uiso   1.00
H33    H     0.78328   0.69119   0.15326   0.00000  Uiso   1.00
H34    H     0.64330   0.87131   0.12790   0.00000  Uiso   1.00
H35    H     0.21015   0.64518   0.83712   0.00000  Uiso   1.00
H36    H     0.70901   0.60485   0.21736   0.00000  Uiso   1.00
H37    H     0.41385   0.98466   0.16390   0.00000  Uiso   1.00
O38    O     0.18064   0.55934   0.71226   0.00000  Uiso   1.00
O39    O     0.52316   0.50644   0.21113   0.00000  Uiso   1.00
O40    O     0.13591   0.00474   0.14098   0.00000  Uiso   1.00
N41    N     0.92909   0.56753   0.77348   0.00000  Uiso   1.00
N42    N     0.46058   0.52981   0.12898   0.00000  Uiso   1.00
N43    N     0.18460   0.88490   0.07901   0.00000  Uiso   1.00
N44    N     0.10604   0.62641   0.82873   0.00000  Uiso   1.00
N45    N     0.63754   0.58869   0.18423   0.00000  Uiso   1.00
N46    N     0.36156   0.94378   0.13426   0.00000  Uiso   1.00
C47    C     0.50965   0.00482   0.67575   0.00000  Uiso   1.00
C48    C     0.62586   0.05720   0.70633   0.00000  Uiso   1.00
C49    C     0.59968   0.12832   0.73406   0.00000  Uiso   1.00
C50    C     0.72075   0.16735   0.75941   0.00000  Uiso   1.00
C51    C     0.87961   0.25341   0.80722   0.00000  Uiso   1.00
C52    C     0.59370   0.95479   0.60418   0.00000  Uiso   1.00
C53    C     0.54047   0.93980   0.54603   0.00000  Uiso   1.00
C54    C     0.63446   0.89261   0.48539   0.00000  Uiso   1.00
C55    C     0.74334   0.81964   0.37462   0.00000  Uiso   1.00
C56    C     0.48865   0.96328   0.71379   0.00000  Uiso   1.00
C57    C     0.34708   0.95541   0.74779   0.00000  Uiso   1.00
C58    C     0.35263   0.91536   0.77943   0.00000  Uiso   1.00
C59    C     0.29839   0.85557   0.83883   0.00000  Uiso   1.00
C60    C     0.77123   0.94765   0.67145   0.00000  Uiso   1.00
C61    C     0.76794   0.02615   0.70399   0.00000  Uiso   1.00
C62    C     0.88908   0.06508   0.72931   0.00000  Uiso   1.00
C63    C     0.86308   0.13625   0.75708   0.00000  Uiso   1.00
C64    C     0.73578   0.92374   0.60184   0.00000  Uiso   1.00
C65    C     0.82987   0.87656   0.54128   0.00000  Uiso   1.00
C66    C     0.77679   0.86150   0.48305   0.00000  Uiso   1.00
C67    C     0.63073   0.93223   0.71146   0.00000  Uiso   1.00
C68    C     0.63649   0.89217   0.74304   0.00000  Uiso   1.00
C69    C     0.49496   0.88425   0.77709   0.00000  Uiso   1.00
H70    H     0.39904   0.02899   0.67756   0.00000  Uiso   1.00
H71    H     0.48972   0.15233   0.73585   0.00000  Uiso   1.00
H72    H     0.43051   0.96383   0.54785   0.00000  Uiso   1.00
H73    H     0.23716   0.97945   0.74959   0.00000  Uiso   1.00
H74    H     0.65292   0.27539   0.79943   0.00000  Uiso   1.00
H75    H     0.52805   0.87791   0.40302   0.00000  Uiso   1.00
H76    H     0.12033   0.91084   0.82841   0.00000  Uiso   1.00
H77    H     0.88184   0.92348   0.66963   0.00000  Uiso   1.00
H78    H     0.99902   0.04104   0.72749   0.00000  Uiso   1.00
H79    H     0.93980   0.85253   0.53949   0.00000  Uiso   1.00
H80    H     0.74646   0.86815   0.74122   0.00000  Uiso   1.00
H81    H     0.06629   0.18506   0.79264   0.00000  Uiso   1.00
H82    H     0.94141   0.78757   0.39623   0.00000  Uiso   1.00
H83    H     0.53370   0.82051   0.82162   0.00000  Uiso   1.00
O84    O     0.92800   0.30946   0.83422   0.00000  Uiso   1.00
O85    O     0.76414   0.78797   0.31416   0.00000  Uiso   1.00
O86    O     0.22924   0.83118   0.87226   0.00000  Uiso   1.00
N87    N     0.73412   0.23800   0.78990   0.00000  Uiso   1.00
N88    N     0.61738   0.86638   0.41929   0.00000  Uiso   1.00
N89    N     0.23620   0.89716   0.81697   0.00000  Uiso   1.00
N90    N     0.95655   0.18939   0.78625   0.00000  Uiso   1.00
N91    N     0.83981   0.81778   0.41563   0.00000  Uiso   1.00
N92    N     0.45862   0.84855   0.81332   0.00000  Uiso   1.00
C93    C     0.18572   0.31574   0.33376   0.00000  Uiso   1.00
C94    C     0.32408   0.28920   0.35010   0.00000  Uiso   1.00
C95    C     0.31383   0.25914   0.39171   0.00000  Uiso   1.00
C96    C     0.45403   0.23826   0.40025   0.00000  Uiso   1.00
C97    C     0.64678   0.19574   0.43050   0.00000  Uiso   1.00
C98    C     0.20790   0.39130   0.35358   0.00000  Uiso   1.00
C99    C     0.09996   0.44707   0.39811   0.00000  Uiso   1.00
C100   C     0.14237   0.51214   0.40957   0.00000  Uiso   1.00
C101   C     0.15471   0.62811   0.44519   0.00000  Uiso   1.00
C102   C     0.20832   0.27796   0.25730   0.00000  Uiso   1.00
C103   C     0.10071   0.23845   0.22087   0.00000  Uiso   1.00
C104   C     0.14345   0.20811   0.15127   0.00000  Uiso   1.00
C105   C     0.15642   0.14811   0.03739   0.00000  Uiso   1.00
C106   C     0.45294   0.33214   0.27493   0.00000  Uiso   1.00
C107   C     0.46922   0.29811   0.31814   0.00000  Uiso   1.00
C108   C     0.60948   0.27728   0.32662   0.00000  Uiso   1.00
C109   C     0.59944   0.24718   0.36823   0.00000  Uiso   1.00
C110   C     0.35304   0.40021   0.32163   0.00000  Uiso   1.00
C111   C     0.39561   0.46521   0.33302   0.00000  Uiso   1.00
C112   C     0.28777   0.52106   0.37755   0.00000  Uiso   1.00
C113   C     0.35346   0.28687   0.22534   0.00000  Uiso   1.00
C114   C     0.39636   0.25659   0.15578   0.00000  Uiso   1.00
C115   C     0.28885   0.21703   0.11925   0.00000  Uiso   1.00
H116   H     0.07272   0.30881   0.35865   0.00000  Uiso   1.00
H117   H     0.20148   0.25226   0.41644   0.00000  Uiso   1.00
H118   H     0.98765   0.44016   0.42283   0.00000  Uiso   1.00
H119   H     0.98840   0.23157   0.24562   0.00000  Uiso   1.00
H120   H     0.40824   0.19351   0.46644   0.00000  Uiso   1.00
H121   H     0.95734   0.58971   0.47990   0.00000  Uiso   1.00
H122   H     0.95892   0.14986   0.10621   0.00000  Uiso   1.00
H123   H     0.56595   0.33907   0.25005   0.00000  Uiso   1.00
H124   H     0.72178   0.28418   0.30188   0.00000  Uiso   1.00
H125   H     0.50794   0.47208   0.30827   0.00000  Uiso   1.00
H126   H     0.50869   0.26349   0.13106   0.00000  Uiso   1.00
H127   H     0.83053   0.21942   0.37346   0.00000  Uiso   1.00
H128   H     0.37963   0.61562   0.38692   0.00000  Uiso   1.00
H129   H     0.38121   0.17576   0.01324   0.00000  Uiso   1.00
O130   O     0.71300   0.16983   0.45603   0.00000  Uiso   1.00
O131   O     0.12142   0.68962   0.47367   0.00000  Uiso   1.00
O132   O     0.12350   0.11254   0.98341   0.00000  Uiso   1.00
N133   N     0.48624   0.20713   0.43743   0.00000  Uiso   1.00
N134   N     0.06469   0.57755   0.45002   0.00000  Uiso   1.00
N135   N     0.06615   0.16634   0.10066   0.00000  Uiso   1.00
N136   N     0.71347   0.22107   0.38740   0.00000  Uiso   1.00
N137   N     0.29192   0.59149   0.39999   0.00000  Uiso   1.00
N138   N     0.29338   0.18028   0.05063   0.00000  Uiso   1.00
C139   C     0.49079   0.34443   0.01107   0.00000  Uiso   1.00
C140   C     0.33184   0.35429   0.05694   0.00000  Uiso   1.00
C141   C     0.29675   0.39540   0.12629   0.00000  Uiso   1.00
C142   C     0.14445   0.39756   0.15914   0.00000  Uiso   1.00
C143   C     0.91480   0.41864   0.23574   0.00000  Uiso   1.00
C144   C     0.46094   0.36470   0.95897   0.00000  Uiso   1.00
C145   C     0.53443   0.41454   0.94594   0.00000  Uiso   1.00
C146   C     0.49081   0.42546   0.89631   0.00000  Uiso   1.00
C147   C     0.46169   0.46265   0.82078   0.00000  Uiso   1.00
C148   C     0.53699   0.26684   0.97275   0.00000  Uiso   1.00
C149   C     0.67443   0.23440   0.97130   0.00000  Uiso   1.00
C150   C     0.69486   0.16292   0.93326   0.00000  Uiso   1.00
C151   C     0.78381   0.04817   0.87912   0.00000  Uiso   1.00
C152   C     0.28270   0.27518   0.94608   0.00000  Uiso   1.00
C153   C     0.21881   0.31668   0.02164   0.00000  Uiso   1.00
C154   C     0.06652   0.31878   0.05440   0.00000  Uiso   1.00
C155   C     0.03121   0.35988   0.12379   0.00000  Uiso   1.00
C156   C     0.34792   0.32709   0.92368   0.00000  Uiso   1.00
C157   C     0.30419   0.33793   0.87405   0.00000  Uiso   1.00
C158   C     0.37758   0.38778   0.86095   0.00000  Uiso   1.00
C159   C     0.42396   0.22922   0.93746   0.00000  Uiso   1.00
C160   C     0.44419   0.15778   0.89941   0.00000  Uiso   1.00
C161   C     0.58163   0.12524   0.89790   0.00000  Uiso   1.00
H162   H     0.57879   0.37371   0.03854   0.00000  Uiso   1.00
H163   H     0.38426   0.42450   0.15359   0.00000  Uiso   1.00
H164   H     0.62190   0.44364   0.97326   0.00000  Uiso   1.00
H165   H     0.76187   0.26352   0.99862   0.00000  Uiso   1.00
H166   H     0.11871   0.46425   0.26557   0.00000  Uiso   1.00
H167   H     0.61984   0.50458   0.88533   0.00000  Uiso   1.00
H168   H     0.91501   0.12477   0.93879   0.00000  Uiso   1.00
H169   H     0.19470   0.24589   0.91860   0.00000  Uiso   1.00
H170   H     0.97907   0.28967   0.02707   0.00000  Uiso   1.00
H171   H     0.21672   0.30881   0.84674   0.00000  Uiso   1.00
H172   H     0.35670   0.12869   0.87210   0.00000  Uiso   1.00
H173   H     0.78985   0.35482   0.16289   0.00000  Uiso   1.00
H174   H     0.29099   0.39515   0.78264   0.00000  Uiso   1.00
H175   H     0.58615   0.01534   0.83610   0.00000  Uiso   1.00
O176   O     0.81936   0.44065   0.28774   0.00000  Uiso   1.00
O177   O     0.47684   0.49356   0.78887   0.00000  Uiso   1.00
O178   O     0.86409   0.99526   0.85902   0.00000  Uiso   1.00
N179   N     0.07091   0.43247   0.22652   0.00000  Uiso   1.00
N180   N     0.53942   0.47019   0.87102   0.00000  Uiso   1.00
N181   N     0.81540   0.11510   0.92099   0.00000  Uiso   1.00
N182   N     0.89396   0.37359   0.17127   0.00000  Uiso   1.00
N183   N     0.36246   0.41131   0.81577   0.00000  Uiso   1.00
N184   N     0.63844   0.05622   0.86574   0.00000  Uiso   1.00
C185   C     0.49035   0.99518   0.32425   0.00000  Uiso   1.00
C186   C     0.37414   0.94280   0.29367   0.00000  Uiso   1.00
C187   C     0.40032   0.87168   0.26594   0.00000  Uiso   1.00
C188   C     0.27925   0.83265   0.24059   0.00000  Uiso   1.00
C189   C     0.12039   0.74659   0.19278   0.00000  Uiso   1.00
C190   C     0.40630   0.04521   0.39582   0.00000  Uiso   1.00
C191   C     0.45953   0.06020   0.45397   0.00000  Uiso   1.00
C192   C     0.36554   0.10739   0.51461   0.00000  Uiso   1.00
C193   C     0.25666   0.18037   0.62538   0.00000  Uiso   1.00
C194   C     0.51135   0.03672   0.28621   0.00000  Uiso   1.00
C195   C     0.65292   0.04459   0.25221   0.00000  Uiso   1.00
C196   C     0.64737   0.08464   0.22057   0.00000  Uiso   1.00
C197   C     0.70161   0.14443   0.16117   0.00000  Uiso   1.00
C198   C     0.22877   0.05235   0.32855   0.00000  Uiso   1.00
C199   C     0.23206   0.97385   0.29601   0.00000  Uiso   1.00
C200   C     0.11092   0.93492   0.27069   0.00000  Uiso   1.00
C201   C     0.13692   0.86375   0.24292   0.00000  Uiso   1.00
C202   C     0.26422   0.07626   0.39816   0.00000  Uiso   1.00
C203   C     0.17013   0.12344   0.45872   0.00000  Uiso   1.00
C204   C     0.22321   0.13850   0.51695   0.00000  Uiso   1.00
C205   C     0.36927   0.06777   0.28854   0.00000  Uiso   1.00
C206   C     0.36351   0.10783   0.25696   0.00000  Uiso   1.00
C207   C     0.50504   0.11575   0.22292   0.00000  Uiso   1.00
H208   H     0.60096   0.97101   0.32244   0.00000  Uiso   1.00
H209   H     0.51028   0.84767   0.26415   0.00000  Uiso   1.00
H210   H     0.56949   0.03617   0.45215   0.00000  Uiso   1.00
H211   H     0.76284   0.02055   0.25041   0.00000  Uiso   1.00
H212   H     0.34708   0.72461   0.20057   0.00000  Uiso   1.00
H213   H     0.47195   0.12209   0.59698   0.00000  Uiso   1.00
H214   H     0.87967   0.08916   0.17159   0.00000  Uiso   1.00
H215   H     0.11816   0.07652   0.33037   0.00000  Uiso   1.00
H216   H     0.00098   0.95896   0.27251   0.00000  Uiso   1.00
H217   H     0.06020   0.14746   0.46051   0.00000  Uiso   1.00
H218   H     0.25354   0.13185   0.25878   0.00000  Uiso   1.00
H219   H     0.93371   0.81494   0.20736   0.00000  Uiso   1.00
H220   H     0.05859   0.21243   0.60377   0.00000  Uiso   1.00
H221   H     0.46630   0.17949   0.17838   0.00000  Uiso   1.00
O222   O     0.07200   0.69054   0.16578   0.00000  Uiso   1.00
O223   O     0.23586   0.21203   0.68584   0.00000  Uiso   1.00
O224   O     0.77076   0.16882   0.12774   0.00000  Uiso   1.00
N225   N     0.26588   0.76200   0.21010   0.00000  Uiso   1.00
N226   N     0.38262   0.13362   0.58071   0.00000  Uiso   1.00
N227   N     0.76380   0.10284   0.18303   0.00000  Uiso   1.00
N228   N     0.04345   0.81061   0.21375   0.00000  Uiso   1.00
N229   N     0.16019   0.18222   0.58437   0.00000  Uiso   1.00
N230   N     0.54138   0.15145   0.18668   0.00000  Uiso   1.00
C231   C     0.81428   0.68426   0.66624   0.00000  Uiso   1.00
C232   C     0.67592   0.71080   0.64990   0.00000  Uiso   1.00
C233   C     0.68617   0.74086   0.60829   0.00000  Uiso   1.00
C234   C     0.54597   0.76174   0.59975   0.00000  Uiso   1.00
C235   C     0.35322   0.80426   0.56950   0.00000  Uiso   1.00
C236   C     0.79210   0.60870   0.64642   0.00000  Uiso   1.00
C237   C     0.90004   0.55293   0.60189   0.00000  Uiso   1.00
C238   C     0.85763   0.48786   0.59043   0.00000  Uiso   1.00
C239   C     0.84529   0.37189   0.55481   0.00000  Uiso   1.00
C240   C     0.79168   0.72204   0.74270   0.00000  Uiso   1.00
C241   C     0.89929   0.76155   0.77913   0.00000  Uiso   1.00
C242   C     0.85655   0.79189   0.84873   0.00000  Uiso   1.00
C243   C     0.84358   0.85189   0.96261   0.00000  Uiso   1.00
C244   C     0.54706   0.66786   0.72507   0.00000  Uiso   1.00
C245   C     0.53078   0.70188   0.68186   0.00000  Uiso   1.00
C246   C     0.39052   0.72272   0.67338   0.00000  Uiso   1.00
C247   C     0.40056   0.75282   0.63177   0.00000  Uiso   1.00
C248   C     0.64696   0.59979   0.67837   0.00000  Uiso   1.00
C249   C     0.60439   0.53479   0.66698   0.00000  Uiso   1.00
C250   C     0.71223   0.47894   0.62245   0.00000  Uiso   1.00
C251   C     0.64654   0.71313   0.77466   0.00000  Uiso   1.00
C252   C     0.60364   0.74341   0.84422   0.00000  Uiso   1.00
C253   C     0.71115   0.78297   0.88075   0.00000  Uiso   1.00
H254   H     0.92728   0.69119   0.64135   0.00000  Uiso   1.00
H255   H     0.79852   0.74774   0.58356   0.00000  Uiso   1.00
H256   H     0.01235   0.55984   0.57717   0.00000  Uiso   1.00
H257   H     0.01160   0.76843   0.75438   0.00000  Uiso   1.00
H258   H     0.59176   0.80649   0.53356   0.00000  Uiso   1.00
H259   H     0.04266   0.41029   0.52010   0.00000  Uiso   1.00
H260   H     0.04108   0.85014   0.89379   0.00000  Uiso   1.00
H261   H     0.43405   0.66093   0.74995   0.00000  Uiso   1.00
H262   H     0.27822   0.71582   0.69812   0.00000  Uiso   1.00
H263   H     0.49206   0.52792   0.69173   0.00000  Uiso   1.00
H264   H     0.49131   0.73651   0.86894   0.00000  Uiso   1.00
H265   H     0.16947   0.78058   0.62654   0.00000  Uiso   1.00
H266   H     0.62037   0.38438   0.61308   0.00000  Uiso   1.00
H267   H     0.61879   0.82424   0.98676   0.00000  Uiso   1.00
O268   O     0.28700   0.83017   0.54397   0.00000  Uiso   1.00
O269   O     0.87858   0.31038   0.52633   0.00000  Uiso   1.00
O270   O     0.87650   0.88746   0.01659   0.00000  Uiso   1.00
N271   N     0.51376   0.79287   0.56257   0.00000  Uiso   1.00
N272   N     0.93531   0.42245   0.54998   0.00000  Uiso   1.00
N273   N     0.93385   0.83366   0.89934   0.00000  Uiso   1.00
N274   N     0.28653   0.77893   0.61260   0.00000  Uiso   1.00
N275   N     0.70808   0.40851   0.60001   0.00000  Uiso   1.00
N276   N     0.70662   0.81972   0.94937   0.00000  Uiso   1.00
