data_job_06919
_audit_creation_date              2018-12-19
_audit_creation_method            'Materials Studio'
_symmetry_space_group_name_H-M    'P1'
_symmetry_Int_Tables_number       1
_symmetry_cell_setting            triclinic
loop_
_symmetry_equiv_pos_as_xyz
  x,y,z
_cell_length_a                    19.0678
_cell_length_b                    21.0584
_cell_length_c                    23.1638
_cell_angle_alpha                 102.4386
_cell_angle_beta                  70.9838
_cell_angle_gamma                 73.8276
loop_
_atom_site_label
_atom_site_type_symbol
_atom_site_fract_x
_atom_site_fract_y
_atom_site_fract_z
_atom_site_U_iso_or_equiv
_atom_site_adp_type
_atom_site_occupancy
C1     C     0.63162   0.97303   0.82537   0.00000  Uiso   1.00
C2     C     0.66578   0.89661   0.82092   0.00000  Uiso   1.00
C3     C     0.62226   0.86032   0.84956   0.00000  Uiso   1.00
C4     C     0.66457   0.79075   0.83976   0.00000  Uiso   1.00
C5     C     0.70502   0.67698   0.83853   0.00000  Uiso   1.00
C6     C     0.67832   0.00958   0.85269   0.00000  Uiso   1.00
C7     C     0.64534   0.06828   0.90805   0.00000  Uiso   1.00
C8     C     0.69821   0.09381   0.92498   0.00000  Uiso   1.00
C9     C     0.75813   0.15546   0.97305   0.00000  Uiso   1.00
C10    C     0.65527   0.97246   0.75565   0.00000  Uiso   1.00
C11    C     0.60292   0.99995   0.72942   0.00000  Uiso   1.00
C12    C     0.63638   0.99424   0.66465   0.00000  Uiso   1.00
C13    C     0.66051   0.99824   0.56205   0.00000  Uiso   1.00
C14    C     0.78414   0.91401   0.75701   0.00000  Uiso   1.00
C15    C     0.74863   0.86456   0.78379   0.00000  Uiso   1.00
C16    C     0.79101   0.79503   0.77394   0.00000  Uiso   1.00
C17    C     0.74756   0.75864   0.80256   0.00000  Uiso   1.00
C18    C     0.76116   0.97753   0.81556   0.00000  Uiso   1.00
C19    C     0.81409   0.00298   0.83242   0.00000  Uiso   1.00
C20    C     0.78120   0.06170   0.88778   0.00000  Uiso   1.00
C21    C     0.73812   0.94040   0.71852   0.00000  Uiso   1.00
C22    C     0.77167   0.93465   0.65379   0.00000  Uiso   1.00
C23    C     0.71938   0.96212   0.62746   0.00000  Uiso   1.00
H24    H     0.56712   0.99799   0.85427   0.00000  Uiso   1.00
H25    H     0.55815   0.88515   0.87830   0.00000  Uiso   1.00
H26    H     0.58123   0.09308   0.93676   0.00000  Uiso   1.00
H27    H     0.53882   0.02475   0.75816   0.00000  Uiso   1.00
H28    H     0.58475   0.74592   0.88858   0.00000  Uiso   1.00
H29    H     0.63341   0.18435   0.01185   0.00000  Uiso   1.00
H30    H     0.54396   0.04029   0.63523   0.00000  Uiso   1.00
H31    H     0.84864   0.88906   0.72810   0.00000  Uiso   1.00
H32    H     0.85512   0.77023   0.74520   0.00000  Uiso   1.00
H33    H     0.87820   0.97816   0.80367   0.00000  Uiso   1.00
H34    H     0.83578   0.90984   0.62507   0.00000  Uiso   1.00
H35    H     0.82578   0.65265   0.78056   0.00000  Uiso   1.00
H36    H     0.87444   0.09109   0.90382   0.00000  Uiso   1.00
H37    H     0.78499   0.94702   0.52721   0.00000  Uiso   1.00
O38    O     0.70445   0.62309   0.84811   0.00000  Uiso   1.00
O39    O     0.76829   0.19831   0.00982   0.00000  Uiso   1.00
O40    O     0.65094   0.00929   0.51571   0.00000  Uiso   1.00
N41    N     0.64058   0.74027   0.86080   0.00000  Uiso   1.00
N42    N     0.68608   0.15018   0.97605   0.00000  Uiso   1.00
N43    N     0.60245   0.01550   0.62395   0.00000  Uiso   1.00
N44    N     0.77028   0.69008   0.80267   0.00000  Uiso   1.00
N45    N     0.81577   0.09999   0.91792   0.00000  Uiso   1.00
N46    N     0.73215   0.96531   0.56582   0.00000  Uiso   1.00
C47    C     0.58955   0.37200   0.76396   0.00000  Uiso   1.00
C48    C     0.62307   0.40562   0.71493   0.00000  Uiso   1.00
C49    C     0.60751   0.40616   0.66050   0.00000  Uiso   1.00
C50    C     0.64395   0.43965   0.62169   0.00000  Uiso   1.00
C51    C     0.68840   0.48700   0.54324   0.00000  Uiso   1.00
C52    C     0.66193   0.32028   0.76614   0.00000  Uiso   1.00
C53    C     0.67903   0.24907   0.75479   0.00000  Uiso   1.00
C54    C     0.74818   0.21073   0.75910   0.00000  Uiso   1.00
C55    C     0.85293   0.12560   0.76020   0.00000  Uiso   1.00
C56    C     0.54696   0.43019   0.82990   0.00000  Uiso   1.00
C57    C     0.46739   0.45138   0.87216   0.00000  Uiso   1.00
C58    C     0.43974   0.50557   0.93016   0.00000  Uiso   1.00
C59    C     0.36598   0.59108   0.03025   0.00000  Uiso   1.00
C60    C     0.68194   0.43053   0.79183   0.00000  Uiso   1.00
C61    C     0.67326   0.43741   0.73007   0.00000  Uiso   1.00
C62    C     0.70973   0.47092   0.69133   0.00000  Uiso   1.00
C63    C     0.69422   0.47151   0.63685   0.00000  Uiso   1.00
C64    C     0.71212   0.35208   0.78128   0.00000  Uiso   1.00
C65    C     0.78125   0.31384   0.78561   0.00000  Uiso   1.00
C66    C     0.79845   0.24258   0.77426   0.00000  Uiso   1.00
C67    C     0.59714   0.46199   0.84504   0.00000  Uiso   1.00
C68    C     0.56961   0.51615   0.90298   0.00000  Uiso   1.00
C69    C     0.49002   0.53742   0.94532   0.00000  Uiso   1.00
H70    H     0.55048   0.34724   0.75218   0.00000  Uiso   1.00
H71    H     0.56867   0.38154   0.64880   0.00000  Uiso   1.00
H72    H     0.64018   0.22448   0.74308   0.00000  Uiso   1.00
H73    H     0.42858   0.42677   0.86043   0.00000  Uiso   1.00
H74    H     0.61100   0.43357   0.54085   0.00000  Uiso   1.00
H75    H     0.76176   0.10241   0.73966   0.00000  Uiso   1.00
H76    H     0.31555   0.52896   0.98712   0.00000  Uiso   1.00
H77    H     0.72101   0.45529   0.80361   0.00000  Uiso   1.00
H78    H     0.74856   0.49552   0.70305   0.00000  Uiso   1.00
H79    H     0.82007   0.33846   0.79733   0.00000  Uiso   1.00
H80    H     0.60846   0.54074   0.91468   0.00000  Uiso   1.00
H81    H     0.75700   0.52608   0.58488   0.00000  Uiso   1.00
H82    H     0.90777   0.19491   0.78370   0.00000  Uiso   1.00
H83    H     0.46155   0.62146   0.03115   0.00000  Uiso   1.00
O84    O     0.69906   0.50432   0.49578   0.00000  Uiso   1.00
O85    O     0.89685   0.06985   0.75662   0.00000  Uiso   1.00
O86    O     0.31143   0.62948   0.08128   0.00000  Uiso   1.00
N87    N     0.64156   0.44983   0.56502   0.00000  Uiso   1.00
N88    N     0.78253   0.14021   0.75089   0.00000  Uiso   1.00
N89    N     0.36536   0.53899   0.98225   0.00000  Uiso   1.00
N90    N     0.72013   0.49961   0.58871   0.00000  Uiso   1.00
N91    N     0.86109   0.18999   0.77458   0.00000  Uiso   1.00
N92    N     0.44393   0.58877   0.00594   0.00000  Uiso   1.00
C93    C     0.37397   0.48074   0.14833   0.00000  Uiso   1.00
C94    C     0.31446   0.50064   0.21814   0.00000  Uiso   1.00
C95    C     0.23974   0.55496   0.24862   0.00000  Uiso   1.00
C96    C     0.19428   0.56467   0.31269   0.00000  Uiso   1.00
C97    C     0.09760   0.60214   0.41617   0.00000  Uiso   1.00
C98    C     0.45148   0.48363   0.15200   0.00000  Uiso   1.00
C99    C     0.49197   0.52366   0.12686   0.00000  Uiso   1.00
C100   C     0.56186   0.51904   0.13524   0.00000  Uiso   1.00
C101   C     0.67793   0.53007   0.13600   0.00000  Uiso   1.00
C102   C     0.39169   0.40357   0.11567   0.00000  Uiso   1.00
C103   C     0.38192   0.37627   0.05998   0.00000  Uiso   1.00
C104   C     0.40149   0.30425   0.03776   0.00000  Uiso   1.00
C105   C     0.42473   0.19098   0.98212   0.00000  Uiso   1.00
C106   C     0.42612   0.40137   0.20789   0.00000  Uiso   1.00
C107   C     0.34279   0.45753   0.25049   0.00000  Uiso   1.00
C108   C     0.29744   0.46715   0.31452   0.00000  Uiso   1.00
C109   C     0.22266   0.52148   0.34510   0.00000  Uiso   1.00
C110   C     0.47981   0.44052   0.18435   0.00000  Uiso   1.00
C111   C     0.54966   0.43584   0.19276   0.00000  Uiso   1.00
C112   C     0.59024   0.47585   0.16765   0.00000  Uiso   1.00
C113   C     0.42002   0.36046   0.14802   0.00000  Uiso   1.00
C114   C     0.43961   0.28846   0.12588   0.00000  Uiso   1.00
C115   C     0.42987   0.26106   0.07017   0.00000  Uiso   1.00
H116   H     0.35192   0.51431   0.12314   0.00000  Uiso   1.00
H117   H     0.21784   0.58832   0.22357   0.00000  Uiso   1.00
H118   H     0.47003   0.55701   0.10183   0.00000  Uiso   1.00
H119   H     0.36000   0.40965   0.03496   0.00000  Uiso   1.00
H120   H     0.08170   0.65138   0.34919   0.00000  Uiso   1.00
H121   H     0.61347   0.58534   0.09247   0.00000  Uiso   1.00
H122   H     0.38145   0.27461   0.95145   0.00000  Uiso   1.00
H123   H     0.44817   0.36781   0.23308   0.00000  Uiso   1.00
H124   H     0.31937   0.43378   0.33955   0.00000  Uiso   1.00
H125   H     0.57157   0.40247   0.21780   0.00000  Uiso   1.00
H126   H     0.46153   0.25512   0.15093   0.00000  Uiso   1.00
H127   H     0.16411   0.52595   0.44333   0.00000  Uiso   1.00
H128   H     0.69588   0.45992   0.18659   0.00000  Uiso   1.00
H129   H     0.46386   0.14919   0.04559   0.00000  Uiso   1.00
O130   O     0.03645   0.63473   0.46432   0.00000  Uiso   1.00
O131   O     0.73412   0.54808   0.12749   0.00000  Uiso   1.00
O132   O     0.42971   0.14041   0.94249   0.00000  Uiso   1.00
N133   N     0.11876   0.61280   0.35673   0.00000  Uiso   1.00
N134   N     0.61593   0.55107   0.11672   0.00000  Uiso   1.00
N135   N     0.39903   0.26056   0.98487   0.00000  Uiso   1.00
N136   N     0.16311   0.54531   0.40738   0.00000  Uiso   1.00
N137   N     0.66028   0.48358   0.16737   0.00000  Uiso   1.00
N138   N     0.44337   0.19307   0.03552   0.00000  Uiso   1.00
C139   C     0.02116   0.25527   0.77410   0.00000  Uiso   1.00
C140   C     0.98285   0.28917   0.84773   0.00000  Uiso   1.00
C141   C     0.92846   0.27120   0.89094   0.00000  Uiso   1.00
C142   C     0.90038   0.30844   0.95644   0.00000  Uiso   1.00
C143   C     0.83706   0.35295   0.06751   0.00000  Uiso   1.00
C144   C     0.11145   0.22896   0.75423   0.00000  Uiso   1.00
C145   C     0.16518   0.16037   0.71882   0.00000  Uiso   1.00
C146   C     0.24536   0.14693   0.70560   0.00000  Uiso   1.00
C147   C     0.38170   0.09797   0.67147   0.00000  Uiso   1.00
C148   C     0.00129   0.31489   0.74738   0.00000  Uiso   1.00
C149   C     0.96242   0.31856   0.70620   0.00000  Uiso   1.00
C150   C     0.94987   0.37746   0.68721   0.00000  Uiso   1.00
C151   C     0.91517   0.46193   0.64245   0.00000  Uiso   1.00
C152   C     0.06802   0.35335   0.81358   0.00000  Uiso   1.00
C153   C     0.00831   0.34244   0.86917   0.00000  Uiso   1.00
C154   C     0.98030   0.37972   0.93462   0.00000  Uiso   1.00
C155   C     0.92587   0.36182   0.97792   0.00000  Uiso   1.00
C156   C     0.13691   0.28223   0.77567   0.00000  Uiso   1.00
C157   C     0.21703   0.26889   0.76250   0.00000  Uiso   1.00
C158   C     0.27086   0.20030   0.72708   0.00000  Uiso   1.00
C159   C     0.02675   0.36817   0.76883   0.00000  Uiso   1.00
C160   C     0.01426   0.42707   0.74989   0.00000  Uiso   1.00
C161   C     0.97537   0.43083   0.70869   0.00000  Uiso   1.00
H162   H     0.00135   0.21379   0.75740   0.00000  Uiso   1.00
H163   H     0.90878   0.22997   0.87433   0.00000  Uiso   1.00
H164   H     0.14547   0.11916   0.70223   0.00000  Uiso   1.00
H165   H     0.94273   0.27732   0.68962   0.00000  Uiso   1.00
H166   H     0.81740   0.27138   0.01342   0.00000  Uiso   1.00
H167   H     0.31647   0.03774   0.65052   0.00000  Uiso   1.00
H168   H     0.88896   0.37125   0.62393   0.00000  Uiso   1.00
H169   H     0.08784   0.39483   0.83027   0.00000  Uiso   1.00
H170   H     0.00001   0.42094   0.95120   0.00000  Uiso   1.00
H171   H     0.23670   0.31013   0.77910   0.00000  Uiso   1.00
H172   H     0.03397   0.46829   0.76649   0.00000  Uiso   1.00
H173   H     0.89145   0.42638   0.07581   0.00000  Uiso   1.00
H174   H     0.39052   0.19273   0.71291   0.00000  Uiso   1.00
H175   H     0.96302   0.52625   0.68632   0.00000  Uiso   1.00
O176   O     0.79511   0.36277   0.12285   0.00000  Uiso   1.00
O177   O     0.44987   0.05625   0.64673   0.00000  Uiso   1.00
O178   O     0.88899   0.49381   0.61185   0.00000  Uiso   1.00
N179   N     0.84686   0.30428   0.01151   0.00000  Uiso   1.00
N180   N     0.31346   0.08584   0.67222   0.00000  Uiso   1.00
N181   N     0.91380   0.39764   0.64735   0.00000  Uiso   1.00
N182   N     0.88671   0.38769   0.04508   0.00000  Uiso   1.00
N183   N     0.35331   0.16924   0.70580   0.00000  Uiso   1.00
N184   N     0.95365   0.48104   0.68092   0.00000  Uiso   1.00
C185   C     0.43350   0.35699   0.40510   0.00000  Uiso   1.00
C186   C     0.44914   0.42441   0.40675   0.00000  Uiso   1.00
C187   C     0.39448   0.48791   0.41353   0.00000  Uiso   1.00
C188   C     0.42035   0.54339   0.41392   0.00000  Uiso   1.00
C189   C     0.43279   0.64926   0.41746   0.00000  Uiso   1.00
C190   C     0.45162   0.33560   0.45911   0.00000  Uiso   1.00
C191   C     0.39906   0.32443   0.50990   0.00000  Uiso   1.00
C192   C     0.42703   0.30515   0.55437   0.00000  Uiso   1.00
C193   C     0.44335   0.27310   0.63916   0.00000  Uiso   1.00
C194   C     0.49783   0.30110   0.34167   0.00000  Uiso   1.00
C195   C     0.48412   0.26091   0.29371   0.00000  Uiso   1.00
C196   C     0.55100   0.21256   0.23930   0.00000  Uiso   1.00
C197   C     0.63906   0.12694   0.14175   0.00000  Uiso   1.00
C198   C     0.57664   0.34259   0.39375   0.00000  Uiso   1.00
C199   C     0.52689   0.41658   0.40059   0.00000  Uiso   1.00
C200   C     0.55285   0.47197   0.40097   0.00000  Uiso   1.00
C201   C     0.49824   0.53555   0.40774   0.00000  Uiso   1.00
C202   C     0.52937   0.32778   0.45295   0.00000  Uiso   1.00
C203   C     0.55743   0.30850   0.49734   0.00000  Uiso   1.00
C204   C     0.50492   0.29731   0.54819   0.00000  Uiso   1.00
C205   C     0.57558   0.29327   0.33550   0.00000  Uiso   1.00
C206   C     0.64249   0.24497   0.28115   0.00000  Uiso   1.00
C207   C     0.62889   0.20472   0.23313   0.00000  Uiso   1.00
H208   H     0.37297   0.36308   0.40990   0.00000  Uiso   1.00
H209   H     0.33431   0.49395   0.41830   0.00000  Uiso   1.00
H210   H     0.33890   0.33049   0.51466   0.00000  Uiso   1.00
H211   H     0.42395   0.26698   0.29850   0.00000  Uiso   1.00
H212   H     0.32573   0.63559   0.42492   0.00000  Uiso   1.00
H213   H     0.33541   0.29091   0.62808   0.00000  Uiso   1.00
H214   H     0.51475   0.15697   0.17227   0.00000  Uiso   1.00
H215   H     0.63718   0.33649   0.38895   0.00000  Uiso   1.00
H216   H     0.61302   0.46590   0.39620   0.00000  Uiso   1.00
H217   H     0.61760   0.30244   0.49256   0.00000  Uiso   1.00
H218   H     0.70265   0.23893   0.27640   0.00000  Uiso   1.00
H219   H     0.55194   0.61283   0.40698   0.00000  Uiso   1.00
H220   H     0.56162   0.26814   0.61014   0.00000  Uiso   1.00
H221   H     0.74096   0.13421   0.15433   0.00000  Uiso   1.00
O222   O     0.41817   0.70983   0.42112   0.00000  Uiso   1.00
O223   O     0.43087   0.25760   0.68765   0.00000  Uiso   1.00
O224   O     0.66616   0.08189   0.08964   0.00000  Uiso   1.00
N225   N     0.38229   0.61247   0.41969   0.00000  Uiso   1.00
N226   N     0.39133   0.29022   0.60964   0.00000  Uiso   1.00
N227   N     0.55900   0.16499   0.18350   0.00000  Uiso   1.00
N228   N     0.50401   0.60022   0.41004   0.00000  Uiso   1.00
N229   N     0.51305   0.27797   0.59998   0.00000  Uiso   1.00
N230   N     0.68073   0.15275   0.17385   0.00000  Uiso   1.00
C231   C     0.90443   0.93854   0.19421   0.00000  Uiso   1.00
C232   C     0.91650   0.86105   0.17651   0.00000  Uiso   1.00
C233   C     0.92462   0.81888   0.11784   0.00000  Uiso   1.00
C234   C     0.93519   0.74932   0.11114   0.00000  Uiso   1.00
C235   C     0.95363   0.63298   0.07601   0.00000  Uiso   1.00
C236   C     0.97219   0.94456   0.21343   0.00000  Uiso   1.00
C237   C     0.02711   0.97261   0.18581   0.00000  Uiso   1.00
C238   C     0.08455   0.97336   0.21020   0.00000  Uiso   1.00
C239   C     0.18939   0.98673   0.23243   0.00000  Uiso   1.00
C240   C     0.82756   0.97676   0.25603   0.00000  Uiso   1.00
C241   C     0.76089   0.03191   0.26424   0.00000  Uiso   1.00
C242   C     0.69656   0.05979   0.32451   0.00000  Uiso   1.00
C243   C     0.57686   0.12316   0.41287   0.00000  Uiso   1.00
C244   C     0.90875   0.89000   0.28665   0.00000  Uiso   1.00
C245   C     0.91886   0.83468   0.22672   0.00000  Uiso   1.00
C246   C     0.92941   0.76517   0.22011   0.00000  Uiso   1.00
C247   C     0.93754   0.72290   0.16144   0.00000  Uiso   1.00
C248   C     0.97454   0.91819   0.26364   0.00000  Uiso   1.00
C249   C     0.03190   0.91890   0.28808   0.00000  Uiso   1.00
C250   C     0.08690   0.94695   0.26050   0.00000  Uiso   1.00
C251   C     0.82991   0.95039   0.30624   0.00000  Uiso   1.00
C252   C     0.76568   0.97820   0.36651   0.00000  Uiso   1.00
C253   C     0.69892   0.03337   0.37480   0.00000  Uiso   1.00
H254   H     0.90260   0.95908   0.15512   0.00000  Uiso   1.00
H255   H     0.92281   0.83930   0.07899   0.00000  Uiso   1.00
H256   H     0.02527   0.99302   0.14696   0.00000  Uiso   1.00
H257   H     0.75909   0.05230   0.22538   0.00000  Uiso   1.00
H258   H     0.94628   0.69488   0.01673   0.00000  Uiso   1.00
H259   H     0.16232   0.01902   0.16005   0.00000  Uiso   1.00
H260   H     0.60102   0.14404   0.32541   0.00000  Uiso   1.00
H261   H     0.91059   0.86947   0.32574   0.00000  Uiso   1.00
H262   H     0.93123   0.74478   0.25897   0.00000  Uiso   1.00
H263   H     0.03370   0.89850   0.32694   0.00000  Uiso   1.00
H264   H     0.76752   0.95778   0.40535   0.00000  Uiso   1.00
H265   H     0.95312   0.61815   0.16280   0.00000  Uiso   1.00
H266   H     0.16916   0.94230   0.30613   0.00000  Uiso   1.00
H267   H     0.60786   0.06731   0.47148   0.00000  Uiso   1.00
O268   O     0.96316   0.57610   0.04275   0.00000  Uiso   1.00
O269   O     0.24658   0.00138   0.23080   0.00000  Uiso   1.00
O270   O     0.51017   0.16539   0.44774   0.00000  Uiso   1.00
N271   N     0.94504   0.69394   0.06027   0.00000  Uiso   1.00
N272   N     0.14703   0.99698   0.19427   0.00000  Uiso   1.00
N273   N     0.62227   0.11387   0.34886   0.00000  Uiso   1.00
N274   N     0.94872   0.65265   0.13887   0.00000  Uiso   1.00
N275   N     0.15071   0.95570   0.27287   0.00000  Uiso   1.00
N276   N     0.62595   0.07259   0.42747   0.00000  Uiso   1.00
C277   C     0.11873   0.32280   0.41609   0.00000  Uiso   1.00
C278   C     0.04204   0.38400   0.43222   0.00000  Uiso   1.00
C279   C     0.02932   0.45468   0.45428   0.00000  Uiso   1.00
C280   C     0.95506   0.50260   0.46624   0.00000  Uiso   1.00
C281   C     0.84503   0.60097   0.49273   0.00000  Uiso   1.00
C282   C     0.14522   0.27753   0.34609   0.00000  Uiso   1.00
C283   C     0.21925   0.25869   0.29574   0.00000  Uiso   1.00
C284   C     0.23185   0.21698   0.23520   0.00000  Uiso   1.00
C285   C     0.28202   0.15003   0.12799   0.00000  Uiso   1.00
C286   C     0.09405   0.27905   0.45765   0.00000  Uiso   1.00
C287   C     0.12508   0.26146   0.50109   0.00000  Uiso   1.00
C288   C     0.09462   0.22101   0.53447   0.00000  Uiso   1.00
C289   C     0.06535   0.15641   0.60048   0.00000  Uiso   1.00
C290   C     0.00947   0.28220   0.39812   0.00000  Uiso   1.00
C291   C     0.98270   0.36194   0.42245   0.00000  Uiso   1.00
C292   C     0.90844   0.40977   0.43439   0.00000  Uiso   1.00
C293   C     0.89561   0.48051   0.45647   0.00000  Uiso   1.00
C294   C     0.08588   0.25548   0.33632   0.00000  Uiso   1.00
C295   C     0.09837   0.21378   0.27585   0.00000  Uiso   1.00
C296   C     0.17240   0.19489   0.22542   0.00000  Uiso   1.00
C297   C     0.03471   0.25700   0.44789   0.00000  Uiso   1.00
C298   C     0.00420   0.21656   0.48121   0.00000  Uiso   1.00
C299   C     0.03517   0.19892   0.52469   0.00000  Uiso   1.00
H300   H     0.16493   0.33996   0.42369   0.00000  Uiso   1.00
H301   H     0.07526   0.47172   0.46182   0.00000  Uiso   1.00
H302   H     0.26516   0.27576   0.30331   0.00000  Uiso   1.00
H303   H     0.17100   0.27854   0.50863   0.00000  Uiso   1.00
H304   H     0.94969   0.60808   0.49977   0.00000  Uiso   1.00
H305   H     0.35011   0.19486   0.16554   0.00000  Uiso   1.00
H306   H     0.15157   0.20071   0.59851   0.00000  Uiso   1.00
H307   H     0.96327   0.26503   0.39052   0.00000  Uiso   1.00
H308   H     0.86253   0.39269   0.42683   0.00000  Uiso   1.00
H309   H     0.05244   0.19673   0.26832   0.00000  Uiso   1.00
H310   H     0.95828   0.19950   0.47364   0.00000  Uiso   1.00
H311   H     0.77703   0.54393   0.47137   0.00000  Uiso   1.00
H312   H     0.17746   0.13071   0.13714   0.00000  Uiso   1.00
H313   H     0.97891   0.13657   0.57011   0.00000  Uiso   1.00
O314   O     0.80074   0.66133   0.51003   0.00000  Uiso   1.00
O315   O     0.32609   0.11920   0.07154   0.00000  Uiso   1.00
O316   O     0.06560   0.12688   0.63959   0.00000  Uiso   1.00
N317   N     0.92287   0.57546   0.48811   0.00000  Uiso   1.00
N318   N     0.29724   0.18914   0.17563   0.00000  Uiso   1.00
N319   N     0.11163   0.19460   0.58040   0.00000  Uiso   1.00
N320   N     0.82997   0.54095   0.47283   0.00000  Uiso   1.00
N321   N     0.20434   0.15462   0.16035   0.00000  Uiso   1.00
N322   N     0.01873   0.16008   0.56512   0.00000  Uiso   1.00
C323   C     0.02729   0.97851   0.57130   0.00000  Uiso   1.00
C324   C     0.02148   0.90917   0.57700   0.00000  Uiso   1.00
C325   C     0.01683   0.88768   0.63026   0.00000  Uiso   1.00
C326   C     0.01188   0.82242   0.62599   0.00000  Uiso   1.00
C327   C     0.00286   0.72119   0.64331   0.00000  Uiso   1.00
C328   C     0.95720   0.01392   0.55622   0.00000  Uiso   1.00
C329   C     0.89852   0.08050   0.59200   0.00000  Uiso   1.00
C330   C     0.83946   0.10341   0.57022   0.00000  Uiso   1.00
C331   C     0.73067   0.16483   0.55526   0.00000  Uiso   1.00
C332   C     0.10282   0.95918   0.51057   0.00000  Uiso   1.00
C333   C     0.16657   0.97977   0.50795   0.00000  Uiso   1.00
C334   C     0.23010   0.95661   0.44773   0.00000  Uiso   1.00
C335   C     0.34742   0.93304   0.36188   0.00000  Uiso   1.00
C336   C     0.02675   0.90080   0.46900   0.00000  Uiso   1.00
C337   C     0.02118   0.86696   0.52144   0.00000  Uiso   1.00
C338   C     0.01624   0.80171   0.51708   0.00000  Uiso   1.00
C339   C     0.01159   0.78013   0.57032   0.00000  Uiso   1.00
C340   C     0.95690   0.97171   0.50066   0.00000  Uiso   1.00
C341   C     0.89792   0.99453   0.47882   0.00000  Uiso   1.00
C342   C     0.83916   0.06113   0.51456   0.00000  Uiso   1.00
C343   C     0.10253   0.91697   0.45500   0.00000  Uiso   1.00
C344   C     0.16597   0.89379   0.39477   0.00000  Uiso   1.00
C345   C     0.22981   0.91432   0.39207   0.00000  Uiso   1.00
H346   H     0.02752   0.01137   0.61455   0.00000  Uiso   1.00
H347   H     0.01706   0.92037   0.67325   0.00000  Uiso   1.00
H348   H     0.89876   0.11316   0.63499   0.00000  Uiso   1.00
H349   H     0.16677   0.01243   0.55096   0.00000  Uiso   1.00
H350   H     0.00530   0.80087   0.71384   0.00000  Uiso   1.00
H351   H     0.75589   0.20739   0.63315   0.00000  Uiso   1.00
H352   H     0.32104   0.99499   0.45595   0.00000  Uiso   1.00
H353   H     0.02652   0.86794   0.42574   0.00000  Uiso   1.00
H354   H     0.01601   0.76906   0.47408   0.00000  Uiso   1.00
H355   H     0.89771   0.96185   0.43582   0.00000  Uiso   1.00
H356   H     0.16572   0.86112   0.35179   0.00000  Uiso   1.00
H357   H     0.00445   0.67807   0.55218   0.00000  Uiso   1.00
H358   H     0.75504   0.08459   0.47149   0.00000  Uiso   1.00
H359   H     0.32019   0.87218   0.29429   0.00000  Uiso   1.00
O360   O     0.99795   0.67702   0.66822   0.00000  Uiso   1.00
O361   O     0.67075   0.21036   0.56236   0.00000  Uiso   1.00
O362   O     0.41221   0.93169   0.32988   0.00000  Uiso   1.00
N363   N     0.00656   0.78553   0.66915   0.00000  Uiso   1.00
N364   N     0.77337   0.16560   0.59372   0.00000  Uiso   1.00
N365   N     0.30173   0.96704   0.42805   0.00000  Uiso   1.00
N366   N     0.00610   0.71945   0.58217   0.00000  Uiso   1.00
N367   N     0.77291   0.09952   0.50673   0.00000  Uiso   1.00
N368   N     0.30127   0.90096   0.34106   0.00000  Uiso   1.00
C369   C     0.57664   0.78215   0.17099   0.00000  Uiso   1.00
C370   C     0.63446   0.72492   0.10613   0.00000  Uiso   1.00
C371   C     0.71427   0.68579   0.08949   0.00000  Uiso   1.00
C372   C     0.75710   0.63591   0.02779   0.00000  Uiso   1.00
C373   C     0.85232   0.54860   0.93371   0.00000  Uiso   1.00
C374   C     0.50578   0.76050   0.19685   0.00000  Uiso   1.00
C375   C     0.47740   0.75129   0.25651   0.00000  Uiso   1.00
C376   C     0.41190   0.73138   0.27118   0.00000  Uiso   1.00
C377   C     0.30730   0.69935   0.31797   0.00000  Uiso   1.00
C378   C     0.54453   0.84801   0.15515   0.00000  Uiso   1.00
C379   C     0.54870   0.91239   0.17976   0.00000  Uiso   1.00
C380   C     0.51581   0.96616   0.15933   0.00000  Uiso   1.00
C381   C     0.47138   0.07000   0.14138   0.00000  Uiso   1.00
C382   C     0.51078   0.76316   0.09099   0.00000  Uiso   1.00
C383   C     0.59868   0.71460   0.06268   0.00000  Uiso   1.00
C384   C     0.64140   0.66478   0.00099   0.00000  Uiso   1.00
C385   C     0.72126   0.62558   0.98426   0.00000  Uiso   1.00
C386   C     0.47001   0.75018   0.15341   0.00000  Uiso   1.00
C387   C     0.40453   0.73029   0.16800   0.00000  Uiso   1.00
C388   C     0.37606   0.72105   0.22765   0.00000  Uiso   1.00
C389   C     0.50876   0.83770   0.11170   0.00000  Uiso   1.00
C390   C     0.47584   0.89138   0.09124   0.00000  Uiso   1.00
C391   C     0.47997   0.95583   0.11580   0.00000  Uiso   1.00
H392   H     0.60448   0.79017   0.20482   0.00000  Uiso   1.00
H393   H     0.74193   0.69378   0.12314   0.00000  Uiso   1.00
H394   H     0.50509   0.75928   0.29012   0.00000  Uiso   1.00
H395   H     0.57639   0.92035   0.21338   0.00000  Uiso   1.00
H396   H     0.87853   0.58234   0.01342   0.00000  Uiso   1.00
H397   H     0.37912   0.72048   0.36553   0.00000  Uiso   1.00
H398   H     0.52947   0.06013   0.20371   0.00000  Uiso   1.00
H399   H     0.48292   0.75513   0.05716   0.00000  Uiso   1.00
H400   H     0.61370   0.65681   0.96737   0.00000  Uiso   1.00
H401   H     0.37686   0.72231   0.13436   0.00000  Uiso   1.00
H402   H     0.44816   0.88338   0.05762   0.00000  Uiso   1.00
H403   H     0.77446   0.55233   0.88700   0.00000  Uiso   1.00
H404   H     0.27505   0.69048   0.23912   0.00000  Uiso   1.00
H405   H     0.42540   0.03012   0.07729   0.00000  Uiso   1.00
O406   O     0.91471   0.50327   0.89382   0.00000  Uiso   1.00
O407   O     0.25950   0.68453   0.35578   0.00000  Uiso   1.00
O408   O     0.45676   0.13013   0.14347   0.00000  Uiso   1.00
N409   N     0.83610   0.58878   0.99599   0.00000  Uiso   1.00
N410   N     0.36919   0.71792   0.32519   0.00000  Uiso   1.00
N411   N     0.50973   0.03547   0.17391   0.00000  Uiso   1.00
N412   N     0.78009   0.57263   0.92796   0.00000  Uiso   1.00
N413   N     0.31318   0.70178   0.25716   0.00000  Uiso   1.00
N414   N     0.45373   0.01932   0.10588   0.00000  Uiso   1.00
C415   C     0.38295   0.86517   0.65488   0.00000  Uiso   1.00
C416   C     0.41469   0.87747   0.59045   0.00000  Uiso   1.00
C417   C     0.47595   0.90181   0.57036   0.00000  Uiso   1.00
C418   C     0.49617   0.90955   0.50974   0.00000  Uiso   1.00
C419   C     0.55146   0.93112   0.41567   0.00000  Uiso   1.00
C420   C     0.29330   0.90912   0.68712   0.00000  Uiso   1.00
C421   C     0.25250   0.96006   0.74830   0.00000  Uiso   1.00
C422   C     0.17054   0.99444   0.76905   0.00000  Uiso   1.00
C423   C     0.03736   0.06512   0.82507   0.00000  Uiso   1.00
C424   C     0.39081   0.78869   0.63778   0.00000  Uiso   1.00
C425   C     0.43199   0.73837   0.65748   0.00000  Uiso   1.00
C426   C     0.43212   0.67136   0.63671   0.00000  Uiso   1.00
C427   C     0.45035   0.55504   0.61611   0.00000  Uiso   1.00
C428   C     0.30993   0.83563   0.58296   0.00000  Uiso   1.00
C429   C     0.37502   0.86143   0.55139   0.00000  Uiso   1.00
C430   C     0.39516   0.86913   0.49079   0.00000  Uiso   1.00
C431   C     0.45645   0.89348   0.47061   0.00000  Uiso   1.00
C432   C     0.25364   0.89308   0.64806   0.00000  Uiso   1.00
C433   C     0.17172   0.92739   0.66873   0.00000  Uiso   1.00
C434   C     0.13081   0.97837   0.72992   0.00000  Uiso   1.00
C435   C     0.35116   0.77264   0.59871   0.00000  Uiso   1.00
C436   C     0.35121   0.70570   0.57791   0.00000  Uiso   1.00
C437   C     0.39239   0.65529   0.59758   0.00000  Uiso   1.00
H438   H     0.41382   0.87766   0.68529   0.00000  Uiso   1.00
H439   H     0.50662   0.91422   0.60061   0.00000  Uiso   1.00
H440   H     0.28321   0.97246   0.77852   0.00000  Uiso   1.00
H441   H     0.46268   0.75080   0.68771   0.00000  Uiso   1.00
H442   H     0.59200   0.94771   0.48950   0.00000  Uiso   1.00
H443   H     0.12091   0.07049   0.86465   0.00000  Uiso   1.00
H444   H     0.49936   0.60308   0.67317   0.00000  Uiso   1.00
H445   H     0.27905   0.82315   0.55255   0.00000  Uiso   1.00
H446   H     0.36446   0.85672   0.46057   0.00000  Uiso   1.00
H447   H     0.14105   0.91496   0.63849   0.00000  Uiso   1.00
H448   H     0.32052   0.69330   0.54768   0.00000  Uiso   1.00
H449   H     0.47661   0.90104   0.37585   0.00000  Uiso   1.00
H450   H     0.00553   0.02382   0.75100   0.00000  Uiso   1.00
H451   H     0.38397   0.55641   0.55951   0.00000  Uiso   1.00
O452   O     0.59290   0.94746   0.37457   0.00000  Uiso   1.00
O453   O     0.97486   0.10854   0.86676   0.00000  Uiso   1.00
O454   O     0.47137   0.49531   0.61554   0.00000  Uiso   1.00
N455   N     0.55313   0.93210   0.47537   0.00000  Uiso   1.00
N456   N     0.11270   0.04691   0.82610   0.00000  Uiso   1.00
N457   N     0.46649   0.60992   0.64710   0.00000  Uiso   1.00
N458   N     0.49104   0.90699   0.41421   0.00000  Uiso   1.00
N459   N     0.05061   0.02179   0.76495   0.00000  Uiso   1.00
N460   N     0.40441   0.58481   0.58594   0.00000  Uiso   1.00
C461   C     0.33361   0.49166   0.76698   0.00000  Uiso   1.00
C462   C     0.27736   0.47760   0.82232   0.00000  Uiso   1.00
C463   C     0.29319   0.41559   0.83625   0.00000  Uiso   1.00
C464   C     0.23399   0.41316   0.88894   0.00000  Uiso   1.00
C465   C     0.15764   0.38257   0.96916   0.00000  Uiso   1.00
C466   C     0.28672   0.51288   0.72745   0.00000  Uiso   1.00
C467   C     0.31043   0.48054   0.66160   0.00000  Uiso   1.00
C468   C     0.25912   0.50783   0.63442   0.00000  Uiso   1.00
C469   C     0.19733   0.53205   0.56734   0.00000  Uiso   1.00
C470   C     0.34541   0.55710   0.79834   0.00000  Uiso   1.00
C471   C     0.41847   0.56194   0.79209   0.00000  Uiso   1.00
C472   C     0.41657   0.62645   0.82459   0.00000  Uiso   1.00
C473   C     0.44591   0.71931   0.86757   0.00000  Uiso   1.00
C474   C     0.20033   0.59762   0.83580   0.00000  Uiso   1.00
C475   C     0.20496   0.53516   0.85969   0.00000  Uiso   1.00
C476   C     0.14573   0.53282   0.91238   0.00000  Uiso   1.00
C477   C     0.16147   0.47082   0.92638   0.00000  Uiso   1.00
C478   C     0.21433   0.57044   0.76482   0.00000  Uiso   1.00
C479   C     0.16297   0.59778   0.73773   0.00000  Uiso   1.00
C480   C     0.18659   0.56549   0.67187   0.00000  Uiso   1.00
C481   C     0.27302   0.61465   0.83572   0.00000  Uiso   1.00
C482   C     0.27100   0.67917   0.86822   0.00000  Uiso   1.00
C483   C     0.34404   0.68411   0.86203   0.00000  Uiso   1.00
H484   H     0.38997   0.44685   0.73788   0.00000  Uiso   1.00
H485   H     0.34922   0.37105   0.80731   0.00000  Uiso   1.00
H486   H     0.36646   0.43601   0.63269   0.00000  Uiso   1.00
H487   H     0.47448   0.51739   0.76316   0.00000  Uiso   1.00
H488   H     0.27210   0.31240   0.90075   0.00000  Uiso   1.00
H489   H     0.30847   0.44937   0.53255   0.00000  Uiso   1.00
H490   H     0.53625   0.62097   0.80767   0.00000  Uiso   1.00
H491   H     0.14396   0.64243   0.86489   0.00000  Uiso   1.00
H492   H     0.08971   0.57737   0.94129   0.00000  Uiso   1.00
H493   H     0.10695   0.64232   0.76667   0.00000  Uiso   1.00
H494   H     0.21497   0.72370   0.89714   0.00000  Uiso   1.00
H495   H     0.06147   0.47985   0.00949   0.00000  Uiso   1.00
H496   H     0.09785   0.61682   0.64129   0.00000  Uiso   1.00
H497   H     0.32562   0.78843   0.91642   0.00000  Uiso   1.00
O498   O     0.13553   0.34979   0.00307   0.00000  Uiso   1.00
O499   O     0.18325   0.52950   0.52001   0.00000  Uiso   1.00
O500   O     0.48209   0.75463   0.88096   0.00000  Uiso   1.00
N501   N     0.22998   0.36074   0.91586   0.00000  Uiso   1.00
N502   N     0.26398   0.48879   0.57162   0.00000  Uiso   1.00
N503   N     0.47694   0.64923   0.82882   0.00000  Uiso   1.00
N504   N     0.11664   0.45085   0.97438   0.00000  Uiso   1.00
N505   N     0.15064   0.57890   0.63014   0.00000  Uiso   1.00
N506   N     0.36360   0.73934   0.88734   0.00000  Uiso   1.00
C507   C     0.08926   0.06883   0.06281   0.00000  Uiso   1.00
C508   C     0.01401   0.12637   0.11781   0.00000  Uiso   1.00
C509   C     0.99874   0.14502   0.18320   0.00000  Uiso   1.00
C510   C     0.92638   0.19903   0.22591   0.00000  Uiso   1.00
C511   C     0.81788   0.28316   0.31465   0.00000  Uiso   1.00
C512   C     0.06058   0.01898   0.02711   0.00000  Uiso   1.00
C513   C     0.08448   0.94733   0.01624   0.00000  Uiso   1.00
C514   C     0.05133   0.91093   0.98260   0.00000  Uiso   1.00
C515   C     0.01519   0.82833   0.93049   0.00000  Uiso   1.00
C516   C     0.12374   0.10414   0.01580   0.00000  Uiso   1.00
C517   C     0.20075   0.10409   0.99541   0.00000  Uiso   1.00
C518   C     0.22078   0.13938   0.95223   0.00000  Uiso   1.00
C519   C     0.28269   0.18901   0.88257   0.00000  Uiso   1.00
C520   C     0.98791   0.13159   0.02238   0.00000  Uiso   1.00
C521   C     0.95896   0.16046   0.09585   0.00000  Uiso   1.00
C522   C     0.88660   0.21445   0.13847   0.00000  Uiso   1.00
C523   C     0.87123   0.23318   0.20392   0.00000  Uiso   1.00
C524   C     0.00553   0.05306   0.00515   0.00000  Uiso   1.00
C525   C     0.97234   0.01676   0.97152   0.00000  Uiso   1.00
C526   C     0.99618   0.94508   0.96060   0.00000  Uiso   1.00
C527   C     0.06869   0.13823   0.99385   0.00000  Uiso   1.00
C528   C     0.08861   0.17352   0.95069   0.00000  Uiso   1.00
C529   C     0.16563   0.17353   0.93024   0.00000  Uiso   1.00
H530   H     0.13212   0.04229   0.07990   0.00000  Uiso   1.00
H531   H     0.04135   0.11862   0.20017   0.00000  Uiso   1.00
H532   H     0.12709   0.92096   0.03323   0.00000  Uiso   1.00
H533   H     0.24333   0.07770   0.01241   0.00000  Uiso   1.00
H534   H     0.91643   0.21827   0.32383   0.00000  Uiso   1.00
H535   H     0.09722   0.80149   0.97181   0.00000  Uiso   1.00
H536   H     0.34235   0.13200   0.92790   0.00000  Uiso   1.00
H537   H     0.94505   0.15813   0.00529   0.00000  Uiso   1.00
H538   H     0.84401   0.24082   0.12147   0.00000  Uiso   1.00
H539   H     0.92975   0.04316   0.95453   0.00000  Uiso   1.00
H540   H     0.04599   0.19990   0.93371   0.00000  Uiso   1.00
H541   H     0.75626   0.31745   0.25995   0.00000  Uiso   1.00
H542   H     0.93706   0.90066   0.90793   0.00000  Uiso   1.00
H543   H     0.18218   0.23118   0.86403   0.00000  Uiso   1.00
O544   O     0.77324   0.32015   0.36967   0.00000  Uiso   1.00
O545   O     0.01046   0.77335   0.90783   0.00000  Uiso   1.00
O546   O     0.33205   0.20697   0.85022   0.00000  Uiso   1.00
N547   N     0.89260   0.23027   0.29285   0.00000  Uiso   1.00
N548   N     0.06163   0.84061   0.96375   0.00000  Uiso   1.00
N549   N     0.29081   0.14959   0.92268   0.00000  Uiso   1.00
N550   N     0.80642   0.28364   0.25848   0.00000  Uiso   1.00
N551   N     0.97544   0.89398   0.92938   0.00000  Uiso   1.00
N552   N     0.20462   0.20296   0.88831   0.00000  Uiso   1.00
