data_job_00919
_audit_creation_date              2018-12-19
_audit_creation_method            'Materials Studio'
_symmetry_space_group_name_H-M    'P1'
_symmetry_Int_Tables_number       1
_symmetry_cell_setting            triclinic
loop_
_symmetry_equiv_pos_as_xyz
  x,y,z
_cell_length_a                    15.1012
_cell_length_b                    12.4628
_cell_length_c                    18.8711
_cell_angle_alpha                 90.0000
_cell_angle_beta                  109.3800
_cell_angle_gamma                 90.0000
loop_
_atom_site_label
_atom_site_type_symbol
_atom_site_fract_x
_atom_site_fract_y
_atom_site_fract_z
_atom_site_U_iso_or_equiv
_atom_site_adp_type
_atom_site_occupancy
C1     C     0.11663   0.39693   0.91002   0.00000  Uiso   1.00
C2     C     0.16249   0.49984   0.94890   0.00000  Uiso   1.00
C3     C     0.13371   0.55925   0.99954   0.00000  Uiso   1.00
C4     C     0.18493   0.65098   0.02890   0.00000  Uiso   1.00
C5     C     0.24436   0.80606   0.09237   0.00000  Uiso   1.00
C6     C     0.09076   0.41774   0.82595   0.00000  Uiso   1.00
C7     C     0.00168   0.40811   0.77322   0.00000  Uiso   1.00
C8     C     0.99252   0.43072   0.69907   0.00000  Uiso   1.00
C9     C     0.94061   0.45827   0.57166   0.00000  Uiso   1.00
C10    C     0.19405   0.31246   0.92923   0.00000  Uiso   1.00
C11    C     0.19180   0.21429   0.96331   0.00000  Uiso   1.00
C12    C     0.26960   0.14825   0.97610   0.00000  Uiso   1.00
C13    C     0.37805   0.01233   0.00903   0.00000  Uiso   1.00
C14    C     0.25878   0.45418   0.87212   0.00000  Uiso   1.00
C15    C     0.23970   0.53093   0.92831   0.00000  Uiso   1.00
C16    C     0.29098   0.62259   0.95760   0.00000  Uiso   1.00
C17    C     0.26228   0.68213   0.00827   0.00000  Uiso   1.00
C18    C     0.16797   0.44884   0.80536   0.00000  Uiso   1.00
C19    C     0.15894   0.47145   0.73128   0.00000  Uiso   1.00
C20    C     0.06987   0.46187   0.67845   0.00000  Uiso   1.00
C21    C     0.27126   0.34356   0.90864   0.00000  Uiso   1.00
C22    C     0.34907   0.27764   0.92137   0.00000  Uiso   1.00
C23    C     0.34694   0.17940   0.95547   0.00000  Uiso   1.00
H24    H     0.05652   0.37272   0.92605   0.00000  Uiso   1.00
H25    H     0.07395   0.53516   0.01545   0.00000  Uiso   1.00
H26    H     0.94195   0.38404   0.78917   0.00000  Uiso   1.00
H27    H     0.13204   0.19026   0.97923   0.00000  Uiso   1.00
H28    H     0.12730   0.72899   0.10548   0.00000  Uiso   1.00
H29    H     0.84897   0.41030   0.62834   0.00000  Uiso   1.00
H30    H     0.24982   0.00167   0.02912   0.00000  Uiso   1.00
H31    H     0.31889   0.47840   0.85608   0.00000  Uiso   1.00
H32    H     0.35072   0.64664   0.94166   0.00000  Uiso   1.00
H33    H     0.21871   0.49551   0.71537   0.00000  Uiso   1.00
H34    H     0.40881   0.30173   0.90543   0.00000  Uiso   1.00
H35    H     0.35193   0.81947   0.04558   0.00000  Uiso   1.00
H36    H     0.07360   0.50077   0.56843   0.00000  Uiso   1.00
H37    H     0.47445   0.09215   0.96922   0.00000  Uiso   1.00
O38    O     0.25580   0.88302   0.13306   0.00000  Uiso   1.00
O39    O     0.89064   0.46488   0.50707   0.00000  Uiso   1.00
O40    O     0.41655   0.92878   0.03289   0.00000  Uiso   1.00
N41    N     0.17581   0.72718   0.07965   0.00000  Uiso   1.00
N42    N     0.91558   0.42924   0.63355   0.00000  Uiso   1.00
N43    N     0.29034   0.04720   0.00823   0.00000  Uiso   1.00
N44    N     0.29668   0.77587   0.04742   0.00000  Uiso   1.00
N45    N     0.03645   0.47793   0.60132   0.00000  Uiso   1.00
N46    N     0.41121   0.09588   0.97600   0.00000  Uiso   1.00
C47    C     0.88337   0.89693   0.58998   0.00000  Uiso   1.00
C48    C     0.83751   0.99984   0.55110   0.00000  Uiso   1.00
C49    C     0.86629   0.05925   0.50046   0.00000  Uiso   1.00
C50    C     0.81507   0.15098   0.47110   0.00000  Uiso   1.00
C51    C     0.75564   0.30606   0.40763   0.00000  Uiso   1.00
C52    C     0.90924   0.91774   0.67405   0.00000  Uiso   1.00
C53    C     0.99832   0.90811   0.72678   0.00000  Uiso   1.00
C54    C     0.00748   0.93072   0.80093   0.00000  Uiso   1.00
C55    C     0.05939   0.95827   0.92834   0.00000  Uiso   1.00
C56    C     0.80595   0.81246   0.57077   0.00000  Uiso   1.00
C57    C     0.80820   0.71429   0.53669   0.00000  Uiso   1.00
C58    C     0.73040   0.64825   0.52390   0.00000  Uiso   1.00
C59    C     0.62195   0.51233   0.49097   0.00000  Uiso   1.00
C60    C     0.74122   0.95418   0.62788   0.00000  Uiso   1.00
C61    C     0.76030   0.03093   0.57169   0.00000  Uiso   1.00
C62    C     0.70902   0.12259   0.54240   0.00000  Uiso   1.00
C63    C     0.73772   0.18213   0.49173   0.00000  Uiso   1.00
C64    C     0.83203   0.94884   0.69464   0.00000  Uiso   1.00
C65    C     0.84106   0.97145   0.76872   0.00000  Uiso   1.00
C66    C     0.93013   0.96187   0.82155   0.00000  Uiso   1.00
C67    C     0.72874   0.84356   0.59136   0.00000  Uiso   1.00
C68    C     0.65093   0.77764   0.57863   0.00000  Uiso   1.00
C69    C     0.65306   0.67940   0.54453   0.00000  Uiso   1.00
H70    H     0.94348   0.87272   0.57395   0.00000  Uiso   1.00
H71    H     0.92605   0.03516   0.48455   0.00000  Uiso   1.00
H72    H     0.05805   0.88404   0.71083   0.00000  Uiso   1.00
H73    H     0.86796   0.69026   0.52077   0.00000  Uiso   1.00
H74    H     0.87270   0.22899   0.39452   0.00000  Uiso   1.00
H75    H     0.15103   0.91030   0.87166   0.00000  Uiso   1.00
H76    H     0.75018   0.50167   0.47088   0.00000  Uiso   1.00
H77    H     0.68111   0.97840   0.64392   0.00000  Uiso   1.00
H78    H     0.64928   0.14664   0.55834   0.00000  Uiso   1.00
H79    H     0.78129   0.99551   0.78463   0.00000  Uiso   1.00
H80    H     0.59119   0.80173   0.59457   0.00000  Uiso   1.00
H81    H     0.64807   0.31947   0.45442   0.00000  Uiso   1.00
H82    H     0.92640   0.00077   0.93157   0.00000  Uiso   1.00
H83    H     0.52555   0.59215   0.53078   0.00000  Uiso   1.00
O84    O     0.74420   0.38302   0.36694   0.00000  Uiso   1.00
O85    O     0.10936   0.96488   0.99293   0.00000  Uiso   1.00
O86    O     0.58345   0.42878   0.46711   0.00000  Uiso   1.00
N87    N     0.82419   0.22718   0.42035   0.00000  Uiso   1.00
N88    N     0.08442   0.92924   0.86645   0.00000  Uiso   1.00
N89    N     0.70966   0.54720   0.49177   0.00000  Uiso   1.00
N90    N     0.70332   0.27587   0.45258   0.00000  Uiso   1.00
N91    N     0.96355   0.97793   0.89868   0.00000  Uiso   1.00
N92    N     0.58879   0.59588   0.52400   0.00000  Uiso   1.00
C93    C     0.88337   0.60307   0.08998   0.00000  Uiso   1.00
C94    C     0.83751   0.50016   0.05110   0.00000  Uiso   1.00
C95    C     0.86629   0.44075   0.00046   0.00000  Uiso   1.00
C96    C     0.81507   0.34902   0.97110   0.00000  Uiso   1.00
C97    C     0.75564   0.19394   0.90763   0.00000  Uiso   1.00
C98    C     0.90924   0.58226   0.17405   0.00000  Uiso   1.00
C99    C     0.99832   0.59189   0.22678   0.00000  Uiso   1.00
C100   C     0.00748   0.56928   0.30093   0.00000  Uiso   1.00
C101   C     0.05939   0.54173   0.42834   0.00000  Uiso   1.00
C102   C     0.80595   0.68754   0.07077   0.00000  Uiso   1.00
C103   C     0.80820   0.78571   0.03669   0.00000  Uiso   1.00
C104   C     0.73040   0.85175   0.02390   0.00000  Uiso   1.00
C105   C     0.62195   0.98767   0.99097   0.00000  Uiso   1.00
C106   C     0.74122   0.54582   0.12788   0.00000  Uiso   1.00
C107   C     0.76030   0.46907   0.07169   0.00000  Uiso   1.00
C108   C     0.70902   0.37741   0.04240   0.00000  Uiso   1.00
C109   C     0.73772   0.31787   0.99173   0.00000  Uiso   1.00
C110   C     0.83203   0.55116   0.19464   0.00000  Uiso   1.00
C111   C     0.84106   0.52855   0.26872   0.00000  Uiso   1.00
C112   C     0.93013   0.53813   0.32155   0.00000  Uiso   1.00
C113   C     0.72874   0.65644   0.09136   0.00000  Uiso   1.00
C114   C     0.65093   0.72236   0.07863   0.00000  Uiso   1.00
C115   C     0.65306   0.82060   0.04453   0.00000  Uiso   1.00
H116   H     0.94348   0.62728   0.07395   0.00000  Uiso   1.00
H117   H     0.92605   0.46484   0.98455   0.00000  Uiso   1.00
H118   H     0.05805   0.61596   0.21083   0.00000  Uiso   1.00
H119   H     0.86796   0.80974   0.02077   0.00000  Uiso   1.00
H120   H     0.87270   0.27101   0.89452   0.00000  Uiso   1.00
H121   H     0.15103   0.58970   0.37166   0.00000  Uiso   1.00
H122   H     0.75018   0.99833   0.97088   0.00000  Uiso   1.00
H123   H     0.68111   0.52160   0.14392   0.00000  Uiso   1.00
H124   H     0.64928   0.35336   0.05834   0.00000  Uiso   1.00
H125   H     0.78129   0.50449   0.28463   0.00000  Uiso   1.00
H126   H     0.59119   0.69827   0.09457   0.00000  Uiso   1.00
H127   H     0.64807   0.18053   0.95442   0.00000  Uiso   1.00
H128   H     0.92640   0.49923   0.43157   0.00000  Uiso   1.00
H129   H     0.52555   0.90785   0.03078   0.00000  Uiso   1.00
O130   O     0.74420   0.11698   0.86694   0.00000  Uiso   1.00
O131   O     0.10936   0.53512   0.49293   0.00000  Uiso   1.00
O132   O     0.58345   0.07122   0.96711   0.00000  Uiso   1.00
N133   N     0.82419   0.27282   0.92035   0.00000  Uiso   1.00
N134   N     0.08442   0.57076   0.36645   0.00000  Uiso   1.00
N135   N     0.70966   0.95280   0.99177   0.00000  Uiso   1.00
N136   N     0.70332   0.22413   0.95258   0.00000  Uiso   1.00
N137   N     0.96355   0.52207   0.39868   0.00000  Uiso   1.00
N138   N     0.58879   0.90412   0.02400   0.00000  Uiso   1.00
C139   C     0.11663   0.10307   0.41002   0.00000  Uiso   1.00
C140   C     0.16249   0.00016   0.44890   0.00000  Uiso   1.00
C141   C     0.13371   0.94075   0.49954   0.00000  Uiso   1.00
C142   C     0.18493   0.84902   0.52890   0.00000  Uiso   1.00
C143   C     0.24436   0.69394   0.59237   0.00000  Uiso   1.00
C144   C     0.09076   0.08226   0.32595   0.00000  Uiso   1.00
C145   C     0.00168   0.09189   0.27322   0.00000  Uiso   1.00
C146   C     0.99252   0.06928   0.19907   0.00000  Uiso   1.00
C147   C     0.94061   0.04173   0.07166   0.00000  Uiso   1.00
C148   C     0.19405   0.18754   0.42923   0.00000  Uiso   1.00
C149   C     0.19180   0.28571   0.46331   0.00000  Uiso   1.00
C150   C     0.26960   0.35175   0.47610   0.00000  Uiso   1.00
C151   C     0.37805   0.48767   0.50903   0.00000  Uiso   1.00
C152   C     0.25878   0.04582   0.37212   0.00000  Uiso   1.00
C153   C     0.23970   0.96907   0.42831   0.00000  Uiso   1.00
C154   C     0.29098   0.87741   0.45760   0.00000  Uiso   1.00
C155   C     0.26228   0.81787   0.50827   0.00000  Uiso   1.00
C156   C     0.16797   0.05116   0.30536   0.00000  Uiso   1.00
C157   C     0.15894   0.02855   0.23128   0.00000  Uiso   1.00
C158   C     0.06987   0.03813   0.17845   0.00000  Uiso   1.00
C159   C     0.27126   0.15644   0.40864   0.00000  Uiso   1.00
C160   C     0.34907   0.22236   0.42137   0.00000  Uiso   1.00
C161   C     0.34694   0.32060   0.45547   0.00000  Uiso   1.00
H162   H     0.05652   0.12728   0.42605   0.00000  Uiso   1.00
H163   H     0.07395   0.96484   0.51545   0.00000  Uiso   1.00
H164   H     0.94195   0.11596   0.28917   0.00000  Uiso   1.00
H165   H     0.13204   0.30974   0.47923   0.00000  Uiso   1.00
H166   H     0.12730   0.77101   0.60548   0.00000  Uiso   1.00
H167   H     0.84897   0.08970   0.12834   0.00000  Uiso   1.00
H168   H     0.24982   0.49833   0.52912   0.00000  Uiso   1.00
H169   H     0.31889   0.02160   0.35608   0.00000  Uiso   1.00
H170   H     0.35072   0.85336   0.44166   0.00000  Uiso   1.00
H171   H     0.21871   0.00449   0.21537   0.00000  Uiso   1.00
H172   H     0.40881   0.19827   0.40543   0.00000  Uiso   1.00
H173   H     0.35193   0.68053   0.54558   0.00000  Uiso   1.00
H174   H     0.07360   0.99923   0.06843   0.00000  Uiso   1.00
H175   H     0.47445   0.40785   0.46922   0.00000  Uiso   1.00
O176   O     0.25580   0.61698   0.63306   0.00000  Uiso   1.00
O177   O     0.89064   0.03512   0.00707   0.00000  Uiso   1.00
O178   O     0.41655   0.57122   0.53289   0.00000  Uiso   1.00
N179   N     0.17581   0.77282   0.57965   0.00000  Uiso   1.00
N180   N     0.91558   0.07076   0.13355   0.00000  Uiso   1.00
N181   N     0.29034   0.45280   0.50823   0.00000  Uiso   1.00
N182   N     0.29668   0.72413   0.54742   0.00000  Uiso   1.00
N183   N     0.03645   0.02207   0.10132   0.00000  Uiso   1.00
N184   N     0.41121   0.40412   0.47600   0.00000  Uiso   1.00
