data_job_04530
_audit_creation_date              2018-12-19
_audit_creation_method            'Materials Studio'
_symmetry_space_group_name_H-M    'P1'
_symmetry_Int_Tables_number       1
_symmetry_cell_setting            triclinic
loop_
_symmetry_equiv_pos_as_xyz
  x,y,z
_cell_length_a                    14.2674
_cell_length_b                    17.3363
_cell_length_c                    18.4567
_cell_angle_alpha                 90.0000
_cell_angle_beta                  90.0000
_cell_angle_gamma                 90.0000
loop_
_atom_site_label
_atom_site_type_symbol
_atom_site_fract_x
_atom_site_fract_y
_atom_site_fract_z
_atom_site_U_iso_or_equiv
_atom_site_adp_type
_atom_site_occupancy
C1     C     0.27517   0.71706   0.55275   0.00000  Uiso   1.00
C2     C     0.28440   0.76923   0.61888   0.00000  Uiso   1.00
C3     C     0.21145   0.79282   0.66341   0.00000  Uiso   1.00
C4     C     0.23435   0.84055   0.72116   0.00000  Uiso   1.00
C5     C     0.23460   0.91805   0.82190   0.00000  Uiso   1.00
C6     C     0.31679   0.76205   0.48946   0.00000  Uiso   1.00
C7     C     0.27107   0.77959   0.42516   0.00000  Uiso   1.00
C8     C     0.32125   0.82127   0.37395   0.00000  Uiso   1.00
C9     C     0.37180   0.88757   0.27374   0.00000  Uiso   1.00
C10    C     0.34109   0.64926   0.56591   0.00000  Uiso   1.00
C11    C     0.31581   0.57195   0.56589   0.00000  Uiso   1.00
C12    C     0.38644   0.51867   0.57903   0.00000  Uiso   1.00
C13    C     0.47472   0.40985   0.59753   0.00000  Uiso   1.00
C14    C     0.44556   0.75989   0.57613   0.00000  Uiso   1.00
C15    C     0.37695   0.79249   0.63158   0.00000  Uiso   1.00
C16    C     0.39997   0.84020   0.68928   0.00000  Uiso   1.00
C17    C     0.32707   0.86385   0.73389   0.00000  Uiso   1.00
C18    C     0.40934   0.78531   0.50215   0.00000  Uiso   1.00
C19    C     0.45959   0.82697   0.45103   0.00000  Uiso   1.00
C20    C     0.41396   0.84457   0.38667   0.00000  Uiso   1.00
C21    C     0.43364   0.67252   0.57862   0.00000  Uiso   1.00
C22    C     0.50433   0.61934   0.59176   0.00000  Uiso   1.00
C23    C     0.47916   0.54198   0.59175   0.00000  Uiso   1.00
H24    H     0.20312   0.69895   0.54285   0.00000  Uiso   1.00
H25    H     0.13983   0.77481   0.65356   0.00000  Uiso   1.00
H26    H     0.19945   0.76157   0.41535   0.00000  Uiso   1.00
H27    H     0.24418   0.55398   0.55606   0.00000  Uiso   1.00
H28    H     0.11048   0.86919   0.78188   0.00000  Uiso   1.00
H29    H     0.23620   0.84126   0.27959   0.00000  Uiso   1.00
H30    H     0.33052   0.40350   0.57629   0.00000  Uiso   1.00
H31    H     0.51762   0.77800   0.58601   0.00000  Uiso   1.00
H32    H     0.47160   0.85819   0.69909   0.00000  Uiso   1.00
H33    H     0.53121   0.84496   0.46087   0.00000  Uiso   1.00
H34    H     0.57594   0.63736   0.60158   0.00000  Uiso   1.00
H35    H     0.37975   0.93687   0.81884   0.00000  Uiso   1.00
H36    H     0.50548   0.90894   0.31653   0.00000  Uiso   1.00
H37    H     0.59979   0.47118   0.61325   0.00000  Uiso   1.00
O38    O     0.20916   0.95438   0.87396   0.00000  Uiso   1.00
O39    O     0.37411   0.91772   0.21495   0.00000  Uiso   1.00
O40    O     0.49785   0.34340   0.60423   0.00000  Uiso   1.00
N41    N     0.18018   0.87410   0.77507   0.00000  Uiso   1.00
N42    N     0.29771   0.84800   0.30545   0.00000  Uiso   1.00
N43    N     0.38590   0.43873   0.58284   0.00000  Uiso   1.00
N44    N     0.32507   0.91052   0.79496   0.00000  Uiso   1.00
N45    N     0.44260   0.88442   0.32534   0.00000  Uiso   1.00
N46    N     0.53079   0.47515   0.60272   0.00000  Uiso   1.00
C47    C     0.22483   0.78294   0.05275   0.00000  Uiso   1.00
C48    C     0.21560   0.73077   0.11888   0.00000  Uiso   1.00
C49    C     0.28855   0.70718   0.16341   0.00000  Uiso   1.00
C50    C     0.26565   0.65945   0.22116   0.00000  Uiso   1.00
C51    C     0.26540   0.58195   0.32190   0.00000  Uiso   1.00
C52    C     0.18321   0.73795   0.98946   0.00000  Uiso   1.00
C53    C     0.22893   0.72041   0.92516   0.00000  Uiso   1.00
C54    C     0.17875   0.67873   0.87395   0.00000  Uiso   1.00
C55    C     0.12820   0.61243   0.77374   0.00000  Uiso   1.00
C56    C     0.15891   0.85074   0.06591   0.00000  Uiso   1.00
C57    C     0.18419   0.92805   0.06589   0.00000  Uiso   1.00
C58    C     0.11356   0.98133   0.07903   0.00000  Uiso   1.00
C59    C     0.02528   0.09015   0.09753   0.00000  Uiso   1.00
C60    C     0.05444   0.74011   0.07613   0.00000  Uiso   1.00
C61    C     0.12305   0.70751   0.13158   0.00000  Uiso   1.00
C62    C     0.10003   0.65980   0.18928   0.00000  Uiso   1.00
C63    C     0.17293   0.63615   0.23389   0.00000  Uiso   1.00
C64    C     0.09066   0.71469   0.00215   0.00000  Uiso   1.00
C65    C     0.04041   0.67303   0.95103   0.00000  Uiso   1.00
C66    C     0.08604   0.65543   0.88667   0.00000  Uiso   1.00
C67    C     0.06636   0.82748   0.07862   0.00000  Uiso   1.00
C68    C     0.99567   0.88066   0.09176   0.00000  Uiso   1.00
C69    C     0.02084   0.95802   0.09175   0.00000  Uiso   1.00
H70    H     0.29688   0.80105   0.04285   0.00000  Uiso   1.00
H71    H     0.36017   0.72519   0.15356   0.00000  Uiso   1.00
H72    H     0.30055   0.73843   0.91535   0.00000  Uiso   1.00
H73    H     0.25582   0.94602   0.05606   0.00000  Uiso   1.00
H74    H     0.38952   0.63081   0.28188   0.00000  Uiso   1.00
H75    H     0.26380   0.65874   0.77959   0.00000  Uiso   1.00
H76    H     0.16948   0.09650   0.07629   0.00000  Uiso   1.00
H77    H     0.98238   0.72200   0.08601   0.00000  Uiso   1.00
H78    H     0.02840   0.64181   0.19909   0.00000  Uiso   1.00
H79    H     0.96879   0.65504   0.96087   0.00000  Uiso   1.00
H80    H     0.92406   0.86264   0.10158   0.00000  Uiso   1.00
H81    H     0.12025   0.56313   0.31884   0.00000  Uiso   1.00
H82    H     0.99452   0.59106   0.81653   0.00000  Uiso   1.00
H83    H     0.90021   0.02882   0.11325   0.00000  Uiso   1.00
O84    O     0.29084   0.54562   0.37396   0.00000  Uiso   1.00
O85    O     0.12589   0.58228   0.71495   0.00000  Uiso   1.00
O86    O     0.00215   0.15660   0.10423   0.00000  Uiso   1.00
N87    N     0.31982   0.62590   0.27507   0.00000  Uiso   1.00
N88    N     0.20229   0.65200   0.80545   0.00000  Uiso   1.00
N89    N     0.11410   0.06127   0.08284   0.00000  Uiso   1.00
N90    N     0.17493   0.58948   0.29496   0.00000  Uiso   1.00
N91    N     0.05740   0.61558   0.82534   0.00000  Uiso   1.00
N92    N     0.96921   0.02485   0.10272   0.00000  Uiso   1.00
C93    C     0.72483   0.71706   0.94725   0.00000  Uiso   1.00
C94    C     0.71560   0.76923   0.88112   0.00000  Uiso   1.00
C95    C     0.78855   0.79282   0.83659   0.00000  Uiso   1.00
C96    C     0.76565   0.84055   0.77884   0.00000  Uiso   1.00
C97    C     0.76540   0.91805   0.67810   0.00000  Uiso   1.00
C98    C     0.68321   0.76205   0.01054   0.00000  Uiso   1.00
C99    C     0.72893   0.77959   0.07484   0.00000  Uiso   1.00
C100   C     0.67875   0.82127   0.12605   0.00000  Uiso   1.00
C101   C     0.62820   0.88757   0.22626   0.00000  Uiso   1.00
C102   C     0.65891   0.64926   0.93409   0.00000  Uiso   1.00
C103   C     0.68419   0.57195   0.93411   0.00000  Uiso   1.00
C104   C     0.61356   0.51867   0.92097   0.00000  Uiso   1.00
C105   C     0.52528   0.40985   0.90247   0.00000  Uiso   1.00
C106   C     0.55444   0.75989   0.92387   0.00000  Uiso   1.00
C107   C     0.62305   0.79249   0.86842   0.00000  Uiso   1.00
C108   C     0.60003   0.84020   0.81072   0.00000  Uiso   1.00
C109   C     0.67293   0.86385   0.76611   0.00000  Uiso   1.00
C110   C     0.59066   0.78531   0.99785   0.00000  Uiso   1.00
C111   C     0.54041   0.82697   0.04897   0.00000  Uiso   1.00
C112   C     0.58604   0.84457   0.11333   0.00000  Uiso   1.00
C113   C     0.56636   0.67252   0.92138   0.00000  Uiso   1.00
C114   C     0.49567   0.61934   0.90824   0.00000  Uiso   1.00
C115   C     0.52084   0.54198   0.90825   0.00000  Uiso   1.00
H116   H     0.79688   0.69895   0.95715   0.00000  Uiso   1.00
H117   H     0.86017   0.77481   0.84644   0.00000  Uiso   1.00
H118   H     0.80055   0.76157   0.08465   0.00000  Uiso   1.00
H119   H     0.75582   0.55398   0.94394   0.00000  Uiso   1.00
H120   H     0.88952   0.86919   0.71812   0.00000  Uiso   1.00
H121   H     0.76380   0.84126   0.22041   0.00000  Uiso   1.00
H122   H     0.66948   0.40350   0.92371   0.00000  Uiso   1.00
H123   H     0.48238   0.77800   0.91399   0.00000  Uiso   1.00
H124   H     0.52840   0.85819   0.80091   0.00000  Uiso   1.00
H125   H     0.46879   0.84496   0.03913   0.00000  Uiso   1.00
H126   H     0.42406   0.63736   0.89842   0.00000  Uiso   1.00
H127   H     0.62025   0.93687   0.68116   0.00000  Uiso   1.00
H128   H     0.49452   0.90894   0.18347   0.00000  Uiso   1.00
H129   H     0.40021   0.47118   0.88675   0.00000  Uiso   1.00
O130   O     0.79084   0.95438   0.62604   0.00000  Uiso   1.00
O131   O     0.62589   0.91772   0.28505   0.00000  Uiso   1.00
O132   O     0.50215   0.34340   0.89577   0.00000  Uiso   1.00
N133   N     0.81982   0.87410   0.72493   0.00000  Uiso   1.00
N134   N     0.70229   0.84800   0.19455   0.00000  Uiso   1.00
N135   N     0.61410   0.43873   0.91716   0.00000  Uiso   1.00
N136   N     0.67493   0.91052   0.70504   0.00000  Uiso   1.00
N137   N     0.55740   0.88442   0.17466   0.00000  Uiso   1.00
N138   N     0.46921   0.47515   0.89728   0.00000  Uiso   1.00
C139   C     0.77517   0.78294   0.44725   0.00000  Uiso   1.00
C140   C     0.78440   0.73077   0.38112   0.00000  Uiso   1.00
C141   C     0.71145   0.70718   0.33659   0.00000  Uiso   1.00
C142   C     0.73435   0.65945   0.27884   0.00000  Uiso   1.00
C143   C     0.73460   0.58195   0.17810   0.00000  Uiso   1.00
C144   C     0.81679   0.73795   0.51054   0.00000  Uiso   1.00
C145   C     0.77107   0.72041   0.57484   0.00000  Uiso   1.00
C146   C     0.82125   0.67873   0.62605   0.00000  Uiso   1.00
C147   C     0.87180   0.61243   0.72626   0.00000  Uiso   1.00
C148   C     0.84109   0.85074   0.43409   0.00000  Uiso   1.00
C149   C     0.81581   0.92805   0.43411   0.00000  Uiso   1.00
C150   C     0.88644   0.98133   0.42097   0.00000  Uiso   1.00
C151   C     0.97472   0.09015   0.40247   0.00000  Uiso   1.00
C152   C     0.94556   0.74011   0.42387   0.00000  Uiso   1.00
C153   C     0.87695   0.70751   0.36842   0.00000  Uiso   1.00
C154   C     0.89997   0.65980   0.31072   0.00000  Uiso   1.00
C155   C     0.82707   0.63615   0.26611   0.00000  Uiso   1.00
C156   C     0.90934   0.71469   0.49785   0.00000  Uiso   1.00
C157   C     0.95959   0.67303   0.54897   0.00000  Uiso   1.00
C158   C     0.91396   0.65543   0.61333   0.00000  Uiso   1.00
C159   C     0.93364   0.82748   0.42138   0.00000  Uiso   1.00
C160   C     0.00433   0.88066   0.40824   0.00000  Uiso   1.00
C161   C     0.97916   0.95802   0.40825   0.00000  Uiso   1.00
H162   H     0.70312   0.80105   0.45715   0.00000  Uiso   1.00
H163   H     0.63983   0.72519   0.34644   0.00000  Uiso   1.00
H164   H     0.69945   0.73843   0.58465   0.00000  Uiso   1.00
H165   H     0.74418   0.94602   0.44394   0.00000  Uiso   1.00
H166   H     0.61048   0.63081   0.21812   0.00000  Uiso   1.00
H167   H     0.73620   0.65874   0.72041   0.00000  Uiso   1.00
H168   H     0.83052   0.09650   0.42371   0.00000  Uiso   1.00
H169   H     0.01762   0.72200   0.41399   0.00000  Uiso   1.00
H170   H     0.97160   0.64181   0.30091   0.00000  Uiso   1.00
H171   H     0.03121   0.65504   0.53913   0.00000  Uiso   1.00
H172   H     0.07594   0.86264   0.39842   0.00000  Uiso   1.00
H173   H     0.87975   0.56313   0.18116   0.00000  Uiso   1.00
H174   H     0.00548   0.59106   0.68347   0.00000  Uiso   1.00
H175   H     0.09979   0.02882   0.38675   0.00000  Uiso   1.00
O176   O     0.70916   0.54562   0.12604   0.00000  Uiso   1.00
O177   O     0.87411   0.58228   0.78505   0.00000  Uiso   1.00
O178   O     0.99785   0.15660   0.39577   0.00000  Uiso   1.00
N179   N     0.68018   0.62590   0.22493   0.00000  Uiso   1.00
N180   N     0.79771   0.65200   0.69455   0.00000  Uiso   1.00
N181   N     0.88590   0.06127   0.41716   0.00000  Uiso   1.00
N182   N     0.82507   0.58948   0.20504   0.00000  Uiso   1.00
N183   N     0.94260   0.61558   0.67466   0.00000  Uiso   1.00
N184   N     0.03079   0.02485   0.39728   0.00000  Uiso   1.00
C185   C     0.72483   0.28294   0.44725   0.00000  Uiso   1.00
C186   C     0.71560   0.23077   0.38112   0.00000  Uiso   1.00
C187   C     0.78855   0.20718   0.33659   0.00000  Uiso   1.00
C188   C     0.76565   0.15945   0.27884   0.00000  Uiso   1.00
C189   C     0.76540   0.08195   0.17810   0.00000  Uiso   1.00
C190   C     0.68321   0.23795   0.51054   0.00000  Uiso   1.00
C191   C     0.72893   0.22041   0.57484   0.00000  Uiso   1.00
C192   C     0.67875   0.17873   0.62605   0.00000  Uiso   1.00
C193   C     0.62820   0.11243   0.72626   0.00000  Uiso   1.00
C194   C     0.65891   0.35074   0.43409   0.00000  Uiso   1.00
C195   C     0.68419   0.42805   0.43411   0.00000  Uiso   1.00
C196   C     0.61356   0.48133   0.42097   0.00000  Uiso   1.00
C197   C     0.52528   0.59015   0.40247   0.00000  Uiso   1.00
C198   C     0.55444   0.24011   0.42387   0.00000  Uiso   1.00
C199   C     0.62305   0.20751   0.36842   0.00000  Uiso   1.00
C200   C     0.60003   0.15980   0.31072   0.00000  Uiso   1.00
C201   C     0.67293   0.13615   0.26611   0.00000  Uiso   1.00
C202   C     0.59066   0.21469   0.49785   0.00000  Uiso   1.00
C203   C     0.54041   0.17303   0.54897   0.00000  Uiso   1.00
C204   C     0.58604   0.15543   0.61333   0.00000  Uiso   1.00
C205   C     0.56636   0.32748   0.42138   0.00000  Uiso   1.00
C206   C     0.49567   0.38066   0.40824   0.00000  Uiso   1.00
C207   C     0.52084   0.45802   0.40825   0.00000  Uiso   1.00
H208   H     0.79688   0.30105   0.45715   0.00000  Uiso   1.00
H209   H     0.86017   0.22519   0.34644   0.00000  Uiso   1.00
H210   H     0.80055   0.23843   0.58465   0.00000  Uiso   1.00
H211   H     0.75582   0.44602   0.44394   0.00000  Uiso   1.00
H212   H     0.88952   0.13081   0.21812   0.00000  Uiso   1.00
H213   H     0.76380   0.15874   0.72041   0.00000  Uiso   1.00
H214   H     0.66948   0.59650   0.42371   0.00000  Uiso   1.00
H215   H     0.48238   0.22200   0.41399   0.00000  Uiso   1.00
H216   H     0.52840   0.14181   0.30091   0.00000  Uiso   1.00
H217   H     0.46879   0.15504   0.53913   0.00000  Uiso   1.00
H218   H     0.42406   0.36264   0.39842   0.00000  Uiso   1.00
H219   H     0.62025   0.06313   0.18116   0.00000  Uiso   1.00
H220   H     0.49452   0.09106   0.68347   0.00000  Uiso   1.00
H221   H     0.40021   0.52882   0.38675   0.00000  Uiso   1.00
O222   O     0.79084   0.04562   0.12604   0.00000  Uiso   1.00
O223   O     0.62589   0.08228   0.78505   0.00000  Uiso   1.00
O224   O     0.50215   0.65660   0.39577   0.00000  Uiso   1.00
N225   N     0.81982   0.12590   0.22493   0.00000  Uiso   1.00
N226   N     0.70229   0.15200   0.69455   0.00000  Uiso   1.00
N227   N     0.61410   0.56127   0.41716   0.00000  Uiso   1.00
N228   N     0.67493   0.08948   0.20504   0.00000  Uiso   1.00
N229   N     0.55740   0.11558   0.67466   0.00000  Uiso   1.00
N230   N     0.46921   0.52485   0.39728   0.00000  Uiso   1.00
C231   C     0.77517   0.21706   0.94725   0.00000  Uiso   1.00
C232   C     0.78440   0.26923   0.88112   0.00000  Uiso   1.00
C233   C     0.71145   0.29282   0.83659   0.00000  Uiso   1.00
C234   C     0.73435   0.34055   0.77884   0.00000  Uiso   1.00
C235   C     0.73460   0.41805   0.67810   0.00000  Uiso   1.00
C236   C     0.81679   0.26205   0.01054   0.00000  Uiso   1.00
C237   C     0.77107   0.27959   0.07484   0.00000  Uiso   1.00
C238   C     0.82125   0.32127   0.12605   0.00000  Uiso   1.00
C239   C     0.87180   0.38757   0.22626   0.00000  Uiso   1.00
C240   C     0.84109   0.14926   0.93409   0.00000  Uiso   1.00
C241   C     0.81581   0.07195   0.93411   0.00000  Uiso   1.00
C242   C     0.88644   0.01867   0.92097   0.00000  Uiso   1.00
C243   C     0.97472   0.90985   0.90247   0.00000  Uiso   1.00
C244   C     0.94556   0.25989   0.92387   0.00000  Uiso   1.00
C245   C     0.87695   0.29249   0.86842   0.00000  Uiso   1.00
C246   C     0.89997   0.34020   0.81072   0.00000  Uiso   1.00
C247   C     0.82707   0.36385   0.76611   0.00000  Uiso   1.00
C248   C     0.90934   0.28531   0.99785   0.00000  Uiso   1.00
C249   C     0.95959   0.32697   0.04897   0.00000  Uiso   1.00
C250   C     0.91396   0.34457   0.11333   0.00000  Uiso   1.00
C251   C     0.93364   0.17252   0.92138   0.00000  Uiso   1.00
C252   C     0.00433   0.11934   0.90824   0.00000  Uiso   1.00
C253   C     0.97916   0.04198   0.90825   0.00000  Uiso   1.00
H254   H     0.70312   0.19895   0.95715   0.00000  Uiso   1.00
H255   H     0.63983   0.27481   0.84644   0.00000  Uiso   1.00
H256   H     0.69945   0.26157   0.08465   0.00000  Uiso   1.00
H257   H     0.74418   0.05398   0.94394   0.00000  Uiso   1.00
H258   H     0.61048   0.36919   0.71812   0.00000  Uiso   1.00
H259   H     0.73620   0.34126   0.22041   0.00000  Uiso   1.00
H260   H     0.83052   0.90350   0.92371   0.00000  Uiso   1.00
H261   H     0.01762   0.27800   0.91399   0.00000  Uiso   1.00
H262   H     0.97160   0.35819   0.80091   0.00000  Uiso   1.00
H263   H     0.03121   0.34496   0.03913   0.00000  Uiso   1.00
H264   H     0.07594   0.13736   0.89842   0.00000  Uiso   1.00
H265   H     0.87975   0.43687   0.68116   0.00000  Uiso   1.00
H266   H     0.00548   0.40894   0.18347   0.00000  Uiso   1.00
H267   H     0.09979   0.97118   0.88675   0.00000  Uiso   1.00
O268   O     0.70916   0.45438   0.62604   0.00000  Uiso   1.00
O269   O     0.87411   0.41772   0.28505   0.00000  Uiso   1.00
O270   O     0.99785   0.84340   0.89577   0.00000  Uiso   1.00
N271   N     0.68018   0.37410   0.72493   0.00000  Uiso   1.00
N272   N     0.79771   0.34800   0.19455   0.00000  Uiso   1.00
N273   N     0.88590   0.93873   0.91716   0.00000  Uiso   1.00
N274   N     0.82507   0.41052   0.70504   0.00000  Uiso   1.00
N275   N     0.94260   0.38442   0.17466   0.00000  Uiso   1.00
N276   N     0.03079   0.97515   0.89728   0.00000  Uiso   1.00
C277   C     0.27517   0.28294   0.05275   0.00000  Uiso   1.00
C278   C     0.28440   0.23077   0.11888   0.00000  Uiso   1.00
C279   C     0.21145   0.20718   0.16341   0.00000  Uiso   1.00
C280   C     0.23435   0.15945   0.22116   0.00000  Uiso   1.00
C281   C     0.23460   0.08195   0.32190   0.00000  Uiso   1.00
C282   C     0.31679   0.23795   0.98946   0.00000  Uiso   1.00
C283   C     0.27107   0.22041   0.92516   0.00000  Uiso   1.00
C284   C     0.32125   0.17873   0.87395   0.00000  Uiso   1.00
C285   C     0.37180   0.11243   0.77374   0.00000  Uiso   1.00
C286   C     0.34109   0.35074   0.06591   0.00000  Uiso   1.00
C287   C     0.31581   0.42805   0.06589   0.00000  Uiso   1.00
C288   C     0.38644   0.48133   0.07903   0.00000  Uiso   1.00
C289   C     0.47472   0.59015   0.09753   0.00000  Uiso   1.00
C290   C     0.44556   0.24011   0.07613   0.00000  Uiso   1.00
C291   C     0.37695   0.20751   0.13158   0.00000  Uiso   1.00
C292   C     0.39997   0.15980   0.18928   0.00000  Uiso   1.00
C293   C     0.32707   0.13615   0.23389   0.00000  Uiso   1.00
C294   C     0.40934   0.21469   0.00215   0.00000  Uiso   1.00
C295   C     0.45959   0.17303   0.95103   0.00000  Uiso   1.00
C296   C     0.41396   0.15543   0.88667   0.00000  Uiso   1.00
C297   C     0.43364   0.32748   0.07862   0.00000  Uiso   1.00
C298   C     0.50433   0.38066   0.09176   0.00000  Uiso   1.00
C299   C     0.47916   0.45802   0.09175   0.00000  Uiso   1.00
H300   H     0.20312   0.30105   0.04285   0.00000  Uiso   1.00
H301   H     0.13983   0.22519   0.15356   0.00000  Uiso   1.00
H302   H     0.19945   0.23843   0.91535   0.00000  Uiso   1.00
H303   H     0.24418   0.44602   0.05606   0.00000  Uiso   1.00
H304   H     0.11048   0.13081   0.28188   0.00000  Uiso   1.00
H305   H     0.23620   0.15874   0.77959   0.00000  Uiso   1.00
H306   H     0.33052   0.59650   0.07629   0.00000  Uiso   1.00
H307   H     0.51762   0.22200   0.08601   0.00000  Uiso   1.00
H308   H     0.47160   0.14181   0.19909   0.00000  Uiso   1.00
H309   H     0.53121   0.15504   0.96087   0.00000  Uiso   1.00
H310   H     0.57594   0.36264   0.10158   0.00000  Uiso   1.00
H311   H     0.37975   0.06313   0.31884   0.00000  Uiso   1.00
H312   H     0.50548   0.09106   0.81653   0.00000  Uiso   1.00
H313   H     0.59979   0.52882   0.11325   0.00000  Uiso   1.00
O314   O     0.20916   0.04562   0.37396   0.00000  Uiso   1.00
O315   O     0.37411   0.08228   0.71495   0.00000  Uiso   1.00
O316   O     0.49785   0.65660   0.10423   0.00000  Uiso   1.00
N317   N     0.18018   0.12590   0.27507   0.00000  Uiso   1.00
N318   N     0.29771   0.15200   0.80545   0.00000  Uiso   1.00
N319   N     0.38590   0.56127   0.08284   0.00000  Uiso   1.00
N320   N     0.32507   0.08948   0.29496   0.00000  Uiso   1.00
N321   N     0.44260   0.11558   0.82534   0.00000  Uiso   1.00
N322   N     0.53079   0.52485   0.10272   0.00000  Uiso   1.00
C323   C     0.22483   0.21706   0.55275   0.00000  Uiso   1.00
C324   C     0.21560   0.26923   0.61888   0.00000  Uiso   1.00
C325   C     0.28855   0.29282   0.66341   0.00000  Uiso   1.00
C326   C     0.26565   0.34055   0.72116   0.00000  Uiso   1.00
C327   C     0.26540   0.41805   0.82190   0.00000  Uiso   1.00
C328   C     0.18321   0.26205   0.48946   0.00000  Uiso   1.00
C329   C     0.22893   0.27959   0.42516   0.00000  Uiso   1.00
C330   C     0.17875   0.32127   0.37395   0.00000  Uiso   1.00
C331   C     0.12820   0.38757   0.27374   0.00000  Uiso   1.00
C332   C     0.15891   0.14926   0.56591   0.00000  Uiso   1.00
C333   C     0.18419   0.07195   0.56589   0.00000  Uiso   1.00
C334   C     0.11356   0.01867   0.57903   0.00000  Uiso   1.00
C335   C     0.02528   0.90985   0.59753   0.00000  Uiso   1.00
C336   C     0.05444   0.25989   0.57613   0.00000  Uiso   1.00
C337   C     0.12305   0.29249   0.63158   0.00000  Uiso   1.00
C338   C     0.10003   0.34020   0.68928   0.00000  Uiso   1.00
C339   C     0.17293   0.36385   0.73389   0.00000  Uiso   1.00
C340   C     0.09066   0.28531   0.50215   0.00000  Uiso   1.00
C341   C     0.04041   0.32697   0.45103   0.00000  Uiso   1.00
C342   C     0.08604   0.34457   0.38667   0.00000  Uiso   1.00
C343   C     0.06636   0.17252   0.57862   0.00000  Uiso   1.00
C344   C     0.99567   0.11934   0.59176   0.00000  Uiso   1.00
C345   C     0.02084   0.04198   0.59175   0.00000  Uiso   1.00
H346   H     0.29688   0.19895   0.54285   0.00000  Uiso   1.00
H347   H     0.36017   0.27481   0.65356   0.00000  Uiso   1.00
H348   H     0.30055   0.26157   0.41535   0.00000  Uiso   1.00
H349   H     0.25582   0.05398   0.55606   0.00000  Uiso   1.00
H350   H     0.38952   0.36919   0.78188   0.00000  Uiso   1.00
H351   H     0.26380   0.34126   0.27959   0.00000  Uiso   1.00
H352   H     0.16948   0.90350   0.57629   0.00000  Uiso   1.00
H353   H     0.98238   0.27800   0.58601   0.00000  Uiso   1.00
H354   H     0.02840   0.35819   0.69909   0.00000  Uiso   1.00
H355   H     0.96879   0.34496   0.46087   0.00000  Uiso   1.00
H356   H     0.92406   0.13736   0.60158   0.00000  Uiso   1.00
H357   H     0.12025   0.43687   0.81884   0.00000  Uiso   1.00
H358   H     0.99452   0.40894   0.31653   0.00000  Uiso   1.00
H359   H     0.90021   0.97118   0.61325   0.00000  Uiso   1.00
O360   O     0.29084   0.45438   0.87396   0.00000  Uiso   1.00
O361   O     0.12589   0.41772   0.21495   0.00000  Uiso   1.00
O362   O     0.00215   0.84340   0.60423   0.00000  Uiso   1.00
N363   N     0.31982   0.37410   0.77507   0.00000  Uiso   1.00
N364   N     0.20229   0.34800   0.30545   0.00000  Uiso   1.00
N365   N     0.11410   0.93873   0.58284   0.00000  Uiso   1.00
N366   N     0.17493   0.41052   0.79496   0.00000  Uiso   1.00
N367   N     0.05740   0.38442   0.32534   0.00000  Uiso   1.00
N368   N     0.96921   0.97515   0.60272   0.00000  Uiso   1.00
