data_job_06660
_audit_creation_date              2018-12-19
_audit_creation_method            'Materials Studio'
_symmetry_space_group_name_H-M    'P1'
_symmetry_Int_Tables_number       1
_symmetry_cell_setting            triclinic
loop_
_symmetry_equiv_pos_as_xyz
  x,y,z
_cell_length_a                    19.7829
_cell_length_b                    23.1713
_cell_length_c                    23.4282
_cell_angle_alpha                 62.3578
_cell_angle_beta                  112.2007
_cell_angle_gamma                 92.1449
loop_
_atom_site_label
_atom_site_type_symbol
_atom_site_fract_x
_atom_site_fract_y
_atom_site_fract_z
_atom_site_U_iso_or_equiv
_atom_site_adp_type
_atom_site_occupancy
C1     C     0.08370   0.04143   0.38794   0.00000  Uiso   1.00
C2     C     0.11961   0.97268   0.41120   0.00000  Uiso   1.00
C3     C     0.16024   0.95830   0.38102   0.00000  Uiso   1.00
C4     C     0.18850   0.89229   0.40992   0.00000  Uiso   1.00
C5     C     0.24605   0.79312   0.43734   0.00000  Uiso   1.00
C6     C     0.00174   0.03847   0.37144   0.00000  Uiso   1.00
C7     C     0.94328   0.07941   0.30783   0.00000  Uiso   1.00
C8     C     0.87233   0.06878   0.30327   0.00000  Uiso   1.00
C9     C     0.74689   0.07178   0.26898   0.00000  Uiso   1.00
C10    C     0.11461   0.05031   0.45313   0.00000  Uiso   1.00
C11    C     0.15103   0.10121   0.45819   0.00000  Uiso   1.00
C12    C     0.17508   0.10056   0.52240   0.00000  Uiso   1.00
C13    C     0.22489   0.12194   0.61494   0.00000  Uiso   1.00
C14    C     0.06162   0.94977   0.49294   0.00000  Uiso   1.00
C15    C     0.10761   0.92290   0.46823   0.00000  Uiso   1.00
C16    C     0.13582   0.85689   0.49719   0.00000  Uiso   1.00
C17    C     0.17650   0.84241   0.46706   0.00000  Uiso   1.00
C18    C     0.98975   0.98869   0.42847   0.00000  Uiso   1.00
C19    C     0.91886   0.97800   0.42401   0.00000  Uiso   1.00
C20    C     0.86031   0.01891   0.36040   0.00000  Uiso   1.00
C21    C     0.10262   0.00052   0.51016   0.00000  Uiso   1.00
C22    C     0.12661   0.99980   0.57437   0.00000  Uiso   1.00
C23    C     0.16307   0.05069   0.57953   0.00000  Uiso   1.00
H24    H     0.09302   0.08019   0.34353   0.00000  Uiso   1.00
H25    H     0.16950   0.99684   0.33687   0.00000  Uiso   1.00
H26    H     0.95258   0.11794   0.26371   0.00000  Uiso   1.00
H27    H     0.16030   0.13973   0.41405   0.00000  Uiso   1.00
H28    H     0.24898   0.88248   0.35463   0.00000  Uiso   1.00
H29    H     0.79159   0.13783   0.20035   0.00000  Uiso   1.00
H30    H     0.22960   0.18379   0.51737   0.00000  Uiso   1.00
H31    H     0.05229   0.91101   0.53735   0.00000  Uiso   1.00
H32    H     0.12653   0.81838   0.54133   0.00000  Uiso   1.00
H33    H     0.90961   0.93947   0.46815   0.00000  Uiso   1.00
H34    H     0.11732   0.96126   0.61849   0.00000  Uiso   1.00
H35    H     0.21411   0.73763   0.52057   0.00000  Uiso   1.00
H36    H     0.75670   0.99298   0.36629   0.00000  Uiso   1.00
H37    H     0.19472   0.03894   0.68331   0.00000  Uiso   1.00
O38    O     0.28110   0.75217   0.43670   0.00000  Uiso   1.00
O39    O     0.68101   0.08718   0.23431   0.00000  Uiso   1.00
O40    O     0.25568   0.14748   0.65023   0.00000  Uiso   1.00
N41    N     0.23060   0.86111   0.39315   0.00000  Uiso   1.00
N42    N     0.80296   0.09983   0.24890   0.00000  Uiso   1.00
N43    N     0.21245   0.14281   0.54528   0.00000  Uiso   1.00
N44    N     0.21183   0.78316   0.48244   0.00000  Uiso   1.00
N45    N     0.78419   0.02189   0.33819   0.00000  Uiso   1.00
N46    N     0.19368   0.06487   0.63458   0.00000  Uiso   1.00
C47    C     0.64484   0.81886   0.97164   0.00000  Uiso   1.00
C48    C     0.66754   0.81407   0.91840   0.00000  Uiso   1.00
C49    C     0.71535   0.85044   0.89059   0.00000  Uiso   1.00
C50    C     0.72907   0.83885   0.84257   0.00000  Uiso   1.00
C51    C     0.76930   0.83849   0.76283   0.00000  Uiso   1.00
C52    C     0.56048   0.83492   0.93781   0.00000  Uiso   1.00
C53    C     0.51827   0.88882   0.92634   0.00000  Uiso   1.00
C54    C     0.44186   0.89477   0.89468   0.00000  Uiso   1.00
C55    C     0.31586   0.92675   0.84513   0.00000  Uiso   1.00
C56    C     0.66493   0.74915   0.03416   0.00000  Uiso   1.00
C57    C     0.71053   0.73093   0.10370   0.00000  Uiso   1.00
C58    C     0.72205   0.66466   0.15317   0.00000  Uiso   1.00
C59    C     0.75824   0.56347   0.25321   0.00000  Uiso   1.00
C60    C     0.58419   0.73359   0.93583   0.00000  Uiso   1.00
C61    C     0.63459   0.76776   0.89894   0.00000  Uiso   1.00
C62    C     0.64824   0.75610   0.85096   0.00000  Uiso   1.00
C63    C     0.69607   0.79245   0.82309   0.00000  Uiso   1.00
C64    C     0.52753   0.78861   0.91836   0.00000  Uiso   1.00
C65    C     0.45116   0.79448   0.88671   0.00000  Uiso   1.00
C66    C     0.40885   0.84837   0.87519   0.00000  Uiso   1.00
C67    C     0.63199   0.70283   0.01471   0.00000  Uiso   1.00
C68    C     0.64343   0.63659   0.06408   0.00000  Uiso   1.00
C69    C     0.68904   0.61827   0.13368   0.00000  Uiso   1.00
H70    H     0.67049   0.85491   0.98678   0.00000  Uiso   1.00
H71    H     0.74083   0.88628   0.90565   0.00000  Uiso   1.00
H72    H     0.54378   0.92465   0.94140   0.00000  Uiso   1.00
H73    H     0.73602   0.76678   0.11874   0.00000  Uiso   1.00
H74    H     0.80428   0.90066   0.80710   0.00000  Uiso   1.00
H75    H     0.38878   0.98154   0.88251   0.00000  Uiso   1.00
H76    H     0.79415   0.64864   0.25646   0.00000  Uiso   1.00
H77    H     0.55853   0.69753   0.92068   0.00000  Uiso   1.00
H78    H     0.62274   0.72026   0.83592   0.00000  Uiso   1.00
H79    H     0.42568   0.75863   0.87167   0.00000  Uiso   1.00
H80    H     0.61792   0.60076   0.04900   0.00000  Uiso   1.00
H81    H     0.70842   0.76591   0.75050   0.00000  Uiso   1.00
H82    H     0.29292   0.84679   0.82591   0.00000  Uiso   1.00
H83    H     0.69830   0.51389   0.19986   0.00000  Uiso   1.00
O84    O     0.80059   0.85109   0.72422   0.00000  Uiso   1.00
O85    O     0.25547   0.95720   0.82316   0.00000  Uiso   1.00
O86    O     0.78731   0.52045   0.31377   0.00000  Uiso   1.00
N87    N     0.77292   0.86581   0.80542   0.00000  Uiso   1.00
N88    N     0.38445   0.94144   0.87592   0.00000  Uiso   1.00
N89    N     0.76342   0.63021   0.22553   0.00000  Uiso   1.00
N90    N     0.72134   0.79330   0.77497   0.00000  Uiso   1.00
N91    N     0.33287   0.86893   0.84546   0.00000  Uiso   1.00
N92    N     0.71185   0.55770   0.19507   0.00000  Uiso   1.00
C93    C     0.86245   0.48489   0.86443   0.00000  Uiso   1.00
C94    C     0.87209   0.54363   0.87798   0.00000  Uiso   1.00
C95    C     0.93822   0.56629   0.89850   0.00000  Uiso   1.00
C96    C     0.93547   0.62074   0.90822   0.00000  Uiso   1.00
C97    C     0.96058   0.70726   0.93089   0.00000  Uiso   1.00
C98    C     0.82755   0.43828   0.91275   0.00000  Uiso   1.00
C99    C     0.85622   0.37237   0.96249   0.00000  Uiso   1.00
C100   C     0.81596   0.33813   0.00147   0.00000  Uiso   1.00
C101   C     0.77188   0.26108   0.07809   0.00000  Uiso   1.00
C102   C     0.80376   0.51141   0.78937   0.00000  Uiso   1.00
C103   C     0.81243   0.50698   0.73538   0.00000  Uiso   1.00
C104   C     0.75214   0.53430   0.67048   0.00000  Uiso   1.00
C105   C     0.67113   0.57081   0.55554   0.00000  Uiso   1.00
C106   C     0.73997   0.54128   0.84520   0.00000  Uiso   1.00
C107   C     0.80557   0.57425   0.86754   0.00000  Uiso   1.00
C108   C     0.80271   0.62869   0.87723   0.00000  Uiso   1.00
C109   C     0.86883   0.65143   0.89775   0.00000  Uiso   1.00
C110   C     0.76102   0.46891   0.90231   0.00000  Uiso   1.00
C111   C     0.72071   0.43476   0.94123   0.00000  Uiso   1.00
C112   C     0.74931   0.36881   0.99101   0.00000  Uiso   1.00
C113   C     0.73724   0.54204   0.77893   0.00000  Uiso   1.00
C114   C     0.67692   0.56937   0.71411   0.00000  Uiso   1.00
C115   C     0.68549   0.56499   0.66003   0.00000  Uiso   1.00
H116   H     0.91424   0.46104   0.87256   0.00000  Uiso   1.00
H117   H     0.98970   0.54257   0.90658   0.00000  Uiso   1.00
H118   H     0.90770   0.34867   0.97056   0.00000  Uiso   1.00
H119   H     0.86392   0.48327   0.74348   0.00000  Uiso   1.00
H120   H     0.04402   0.64646   0.93972   0.00000  Uiso   1.00
H121   H     0.87111   0.23761   0.07460   0.00000  Uiso   1.00
H122   H     0.77879   0.52143   0.59576   0.00000  Uiso   1.00
H123   H     0.68817   0.56513   0.83707   0.00000  Uiso   1.00
H124   H     0.75122   0.65238   0.86915   0.00000  Uiso   1.00
H125   H     0.66923   0.45848   0.93313   0.00000  Uiso   1.00
H126   H     0.62545   0.59307   0.70605   0.00000  Uiso   1.00
H127   H     0.85047   0.73558   0.90934   0.00000  Uiso   1.00
H128   H     0.67756   0.32672   0.04423   0.00000  Uiso   1.00
H129   H     0.58524   0.61055   0.56538   0.00000  Uiso   1.00
O130   O     0.99281   0.74652   0.94629   0.00000  Uiso   1.00
O131   O     0.76595   0.21012   0.12325   0.00000  Uiso   1.00
O132   O     0.64483   0.58249   0.49502   0.00000  Uiso   1.00
N133   N     0.98981   0.65547   0.92816   0.00000  Uiso   1.00
N134   N     0.82816   0.27322   0.05427   0.00000  Uiso   1.00
N135   N     0.74184   0.53855   0.60660   0.00000  Uiso   1.00
N136   N     0.88566   0.70342   0.91181   0.00000  Uiso   1.00
N137   N     0.72401   0.32117   0.03792   0.00000  Uiso   1.00
N138   N     0.63769   0.58650   0.59025   0.00000  Uiso   1.00
C139   C     0.69217   0.20673   0.43862   0.00000  Uiso   1.00
C140   C     0.66368   0.27806   0.41420   0.00000  Uiso   1.00
C141   C     0.70100   0.33097   0.39445   0.00000  Uiso   1.00
C142   C     0.66552   0.39235   0.37373   0.00000  Uiso   1.00
C143   C     0.63196   0.50188   0.33591   0.00000  Uiso   1.00
C144   C     0.63353   0.18689   0.38946   0.00000  Uiso   1.00
C145   C     0.64550   0.16312   0.34892   0.00000  Uiso   1.00
C146   C     0.58464   0.14775   0.30738   0.00000  Uiso   1.00
C147   C     0.50428   0.11568   0.23120   0.00000  Uiso   1.00
C148   C     0.69064   0.16547   0.51104   0.00000  Uiso   1.00
C149   C     0.75063   0.12369   0.57274   0.00000  Uiso   1.00
C150   C     0.73785   0.09027   0.63356   0.00000  Uiso   1.00
C151   C     0.74617   0.02495   0.74615   0.00000  Uiso   1.00
C152   C     0.56281   0.22166   0.43693   0.00000  Uiso   1.00
C153   C     0.59342   0.28617   0.41328   0.00000  Uiso   1.00
C154   C     0.55788   0.34749   0.39258   0.00000  Uiso   1.00
C155   C     0.59513   0.40047   0.37281   0.00000  Uiso   1.00
C156   C     0.56327   0.19500   0.38854   0.00000  Uiso   1.00
C157   C     0.50238   0.17964   0.34705   0.00000  Uiso   1.00
C158   C     0.51425   0.15587   0.30646   0.00000  Uiso   1.00
C159   C     0.62038   0.17358   0.51013   0.00000  Uiso   1.00
C160   C     0.60751   0.14021   0.57087   0.00000  Uiso   1.00
C161   C     0.66746   0.09839   0.63264   0.00000  Uiso   1.00
H162   H     0.74687   0.20041   0.43933   0.00000  Uiso   1.00
H163   H     0.75537   0.32467   0.39516   0.00000  Uiso   1.00
H164   H     0.69988   0.15685   0.34964   0.00000  Uiso   1.00
H165   H     0.80499   0.11742   0.57342   0.00000  Uiso   1.00
H166   H     0.73380   0.46601   0.34576   0.00000  Uiso   1.00
H167   H     0.61680   0.11213   0.24981   0.00000  Uiso   1.00
H168   H     0.83845   0.02899   0.72169   0.00000  Uiso   1.00
H169   H     0.50810   0.22797   0.43622   0.00000  Uiso   1.00
H170   H     0.50350   0.35375   0.39188   0.00000  Uiso   1.00
H171   H     0.44802   0.18592   0.34636   0.00000  Uiso   1.00
H172   H     0.55313   0.14650   0.57014   0.00000  Uiso   1.00
H173   H     0.52937   0.48961   0.34309   0.00000  Uiso   1.00
H174   H     0.41238   0.13573   0.24714   0.00000  Uiso   1.00
H175   H     0.63403   0.05259   0.71902   0.00000  Uiso   1.00
O176   O     0.63285   0.56006   0.31529   0.00000  Uiso   1.00
O177   O     0.47937   0.09577   0.18942   0.00000  Uiso   1.00
O178   O     0.77017   0.98669   0.80851   0.00000  Uiso   1.00
N179   N     0.68632   0.45431   0.35123   0.00000  Uiso   1.00
N180   N     0.57694   0.12346   0.26151   0.00000  Uiso   1.00
N181   N     0.78416   0.04571   0.70268   0.00000  Uiso   1.00
N182   N     0.57632   0.46700   0.34980   0.00000  Uiso   1.00
N183   N     0.46694   0.13615   0.26008   0.00000  Uiso   1.00
N184   N     0.67416   0.05841   0.70125   0.00000  Uiso   1.00
C185   C     0.21183   0.33853   0.84692   0.00000  Uiso   1.00
C186   C     0.23458   0.29055   0.82715   0.00000  Uiso   1.00
C187   C     0.30205   0.24857   0.86284   0.00000  Uiso   1.00
C188   C     0.31214   0.20848   0.83641   0.00000  Uiso   1.00
C189   C     0.35589   0.13368   0.81486   0.00000  Uiso   1.00
C190   C     0.14028   0.32082   0.85619   0.00000  Uiso   1.00
C191   C     0.12845   0.30430   0.91630   0.00000  Uiso   1.00
C192   C     0.05915   0.28970   0.91430   0.00000  Uiso   1.00
C193   C     0.95647   0.26194   0.93782   0.00000  Uiso   1.00
C194   C     0.19069   0.40657   0.78175   0.00000  Uiso   1.00
C195   C     0.22123   0.46216   0.77925   0.00000  Uiso   1.00
C196   C     0.19436   0.51976   0.71458   0.00000  Uiso   1.00
C197   C     0.16995   0.62514   0.62251   0.00000  Uiso   1.00
C198   C     0.10978   0.34199   0.73650   0.00000  Uiso   1.00
C199   C     0.17915   0.29243   0.76718   0.00000  Uiso   1.00
C200   C     0.18914   0.25240   0.74067   0.00000  Uiso   1.00
C201   C     0.25661   0.21037   0.77632   0.00000  Uiso   1.00
C202   C     0.08485   0.32270   0.79622   0.00000  Uiso   1.00
C203   C     0.01554   0.30813   0.79413   0.00000  Uiso   1.00
C204   C     0.00362   0.29158   0.85421   0.00000  Uiso   1.00
C205   C     0.13526   0.40845   0.72177   0.00000  Uiso   1.00
C206   C     0.10833   0.46598   0.65708   0.00000  Uiso   1.00
C207   C     0.13883   0.52164   0.65449   0.00000  Uiso   1.00
H208   H     0.25498   0.33706   0.89362   0.00000  Uiso   1.00
H209   H     0.34493   0.24713   0.90926   0.00000  Uiso   1.00
H210   H     0.17136   0.30286   0.96270   0.00000  Uiso   1.00
H211   H     0.26413   0.46068   0.82568   0.00000  Uiso   1.00
H212   H     0.42020   0.14823   0.90017   0.00000  Uiso   1.00
H213   H     0.05420   0.26575   0.01284   0.00000  Uiso   1.00
H214   H     0.24983   0.59857   0.72391   0.00000  Uiso   1.00
H215   H     0.06662   0.34345   0.68980   0.00000  Uiso   1.00
H216   H     0.14624   0.25387   0.69426   0.00000  Uiso   1.00
H217   H     0.97266   0.30959   0.74770   0.00000  Uiso   1.00
H218   H     0.06543   0.46742   0.61068   0.00000  Uiso   1.00
H219   H     0.25893   0.15369   0.72567   0.00000  Uiso   1.00
H220   H     0.89293   0.27122   0.83834   0.00000  Uiso   1.00
H221   H     0.08856   0.60404   0.54941   0.00000  Uiso   1.00
O222   O     0.39533   0.09190   0.81955   0.00000  Uiso   1.00
O223   O     0.91515   0.24610   0.96736   0.00000  Uiso   1.00
O224   O     0.17181   0.68274   0.58829   0.00000  Uiso   1.00
N225   N     0.37132   0.16182   0.85848   0.00000  Uiso   1.00
N226   N     0.02914   0.27169   0.96383   0.00000  Uiso   1.00
N227   N     0.21202   0.58285   0.69370   0.00000  Uiso   1.00
N228   N     0.28455   0.16476   0.76459   0.00000  Uiso   1.00
N229   N     0.94237   0.27463   0.86993   0.00000  Uiso   1.00
N230   N     0.12524   0.58579   0.59980   0.00000  Uiso   1.00
C231   C     0.34486   0.48958   0.36784   0.00000  Uiso   1.00
C232   C     0.38780   0.42259   0.43036   0.00000  Uiso   1.00
C233   C     0.46410   0.40697   0.46804   0.00000  Uiso   1.00
C234   C     0.49272   0.34295   0.52348   0.00000  Uiso   1.00
C235   C     0.56641   0.24604   0.61799   0.00000  Uiso   1.00
C236   C     0.28869   0.51076   0.38750   0.00000  Uiso   1.00
C237   C     0.28165   0.56929   0.38914   0.00000  Uiso   1.00
C238   C     0.22683   0.57949   0.40849   0.00000  Uiso   1.00
C239   C     0.14661   0.61949   0.43641   0.00000  Uiso   1.00
C240   C     0.29993   0.47650   0.30720   0.00000  Uiso   1.00
C241   C     0.30232   0.50623   0.24130   0.00000  Uiso   1.00
C242   C     0.25695   0.48759   0.19303   0.00000  Uiso   1.00
C243   C     0.19419   0.47439   0.09627   0.00000  Uiso   1.00
C244   C     0.26002   0.40365   0.39928   0.00000  Uiso   1.00
C245   C     0.34172   0.37592   0.44744   0.00000  Uiso   1.00
C246   C     0.37023   0.31190   0.50283   0.00000  Uiso   1.00
C247   C     0.44656   0.29619   0.54059   0.00000  Uiso   1.00
C248   C     0.24261   0.46409   0.40458   0.00000  Uiso   1.00
C249   C     0.18778   0.47421   0.42393   0.00000  Uiso   1.00
C250   C     0.18066   0.53273   0.42560   0.00000  Uiso   1.00
C251   C     0.25385   0.42982   0.32428   0.00000  Uiso   1.00
C252   C     0.20846   0.41115   0.27610   0.00000  Uiso   1.00
C253   C     0.21079   0.44083   0.21014   0.00000  Uiso   1.00
H254   H     0.38073   0.52592   0.35454   0.00000  Uiso   1.00
H255   H     0.49974   0.44311   0.45481   0.00000  Uiso   1.00
H256   H     0.31731   0.60540   0.37591   0.00000  Uiso   1.00
H257   H     0.33799   0.54234   0.22810   0.00000  Uiso   1.00
H258   H     0.61136   0.33072   0.57353   0.00000  Uiso   1.00
H259   H     0.22669   0.67293   0.40715   0.00000  Uiso   1.00
H260   H     0.27029   0.53996   0.09546   0.00000  Uiso   1.00
H261   H     0.22414   0.36731   0.41258   0.00000  Uiso   1.00
H262   H     0.33456   0.27579   0.51604   0.00000  Uiso   1.00
H263   H     0.15213   0.43808   0.43714   0.00000  Uiso   1.00
H264   H     0.17281   0.37502   0.28933   0.00000  Uiso   1.00
H265   H     0.47729   0.19492   0.62323   0.00000  Uiso   1.00
H266   H     0.09262   0.53713   0.45684   0.00000  Uiso   1.00
H267   H     0.13622   0.40416   0.14516   0.00000  Uiso   1.00
O268   O     0.61979   0.20549   0.66541   0.00000  Uiso   1.00
O269   O     0.11511   0.65445   0.44710   0.00000  Uiso   1.00
O270   O     0.17231   0.48000   0.03818   0.00000  Uiso   1.00
N271   N     0.56465   0.31132   0.57102   0.00000  Uiso   1.00
N272   N     0.20502   0.63126   0.41547   0.00000  Uiso   1.00
N273   N     0.24577   0.50696   0.12406   0.00000  Uiso   1.00
N274   N     0.49251   0.23824   0.59776   0.00000  Uiso   1.00
N275   N     0.13288   0.55818   0.44221   0.00000  Uiso   1.00
N276   N     0.17362   0.43388   0.15080   0.00000  Uiso   1.00
C277   C     0.95878   0.04950   0.90209   0.00000  Uiso   1.00
C278   C     0.92222   0.11045   0.82958   0.00000  Uiso   1.00
C279   C     0.84656   0.13224   0.79044   0.00000  Uiso   1.00
C280   C     0.82421   0.18909   0.72531   0.00000  Uiso   1.00
C281   C     0.75961   0.27862   0.61655   0.00000  Uiso   1.00
C282   C     0.01079   0.07383   0.95038   0.00000  Uiso   1.00
C283   C     0.00961   0.06482   0.01282   0.00000  Uiso   1.00
C284   C     0.06182   0.09083   0.04938   0.00000  Uiso   1.00
C285   C     0.13477   0.12345   0.12819   0.00000  Uiso   1.00
C286   C     0.00831   0.00684   0.89474   0.00000  Uiso   1.00
C287   C     0.00506   0.94150   0.91040   0.00000  Uiso   1.00
C288   C     0.05520   0.91110   0.90013   0.00000  Uiso   1.00
C289   C     0.12430   0.83972   0.89254   0.00000  Uiso   1.00
C290   C     0.05362   0.11170   0.85601   0.00000  Uiso   1.00
C291   C     0.97374   0.14424   0.80455   0.00000  Uiso   1.00
C292   C     0.95149   0.20106   0.73946   0.00000  Uiso   1.00
C293   C     0.87581   0.22293   0.70024   0.00000  Uiso   1.00
C294   C     0.06231   0.10761   0.92536   0.00000  Uiso   1.00
C295   C     0.11454   0.13364   0.96184   0.00000  Uiso   1.00
C296   C     0.11343   0.12467   0.02431   0.00000  Uiso   1.00
C297   C     0.05983   0.04062   0.86971   0.00000  Uiso   1.00
C298   C     0.10999   0.01032   0.85942   0.00000  Uiso   1.00
C299   C     0.10681   0.94495   0.87506   0.00000  Uiso   1.00
H300   H     0.91867   0.02319   0.92158   0.00000  Uiso   1.00
H301   H     0.80671   0.10609   0.80983   0.00000  Uiso   1.00
H302   H     0.96974   0.03867   0.03218   0.00000  Uiso   1.00
H303   H     0.96519   0.91537   0.92977   0.00000  Uiso   1.00
H304   H     0.70530   0.21290   0.67492   0.00000  Uiso   1.00
H305   H     0.04907   0.07073   0.14375   0.00000  Uiso   1.00
H306   H     0.03947   0.81072   0.92781   0.00000  Uiso   1.00
H307   H     0.09373   0.13800   0.83653   0.00000  Uiso   1.00
H308   H     0.99137   0.22720   0.72011   0.00000  Uiso   1.00
H309   H     0.15440   0.15977   0.94246   0.00000  Uiso   1.00
H310   H     0.14985   0.03648   0.84005   0.00000  Uiso   1.00
H311   H     0.85518   0.31120   0.60210   0.00000  Uiso   1.00
H312   H     0.19895   0.16902   0.07093   0.00000  Uiso   1.00
H313   H     0.18935   0.90902   0.85499   0.00000  Uiso   1.00
O314   O     0.70974   0.31867   0.56347   0.00000  Uiso   1.00
O315   O     0.16076   0.13212   0.17857   0.00000  Uiso   1.00
O316   O     0.14817   0.79101   0.89526   0.00000  Uiso   1.00
N317   N     0.75462   0.22379   0.67375   0.00000  Uiso   1.00
N318   N     0.07601   0.09087   0.11208   0.00000  Uiso   1.00
N319   N     0.06706   0.84778   0.91021   0.00000  Uiso   1.00
N320   N     0.83527   0.27668   0.63456   0.00000  Uiso   1.00
N321   N     0.15666   0.14376   0.07289   0.00000  Uiso   1.00
N322   N     0.14771   0.90068   0.87102   0.00000  Uiso   1.00
C323   C     0.40340   0.35747   0.09614   0.00000  Uiso   1.00
C324   C     0.36864   0.33192   0.14962   0.00000  Uiso   1.00
C325   C     0.31712   0.28948   0.15272   0.00000  Uiso   1.00
C326   C     0.29205   0.27189   0.20560   0.00000  Uiso   1.00
C327   C     0.23422   0.22853   0.28136   0.00000  Uiso   1.00
C328   C     0.48694   0.33814   0.13912   0.00000  Uiso   1.00
C329   C     0.53489   0.30093   0.13339   0.00000  Uiso   1.00
C330   C     0.60940   0.28857   0.17742   0.00000  Uiso   1.00
C331   C     0.73524   0.25491   0.23684   0.00000  Uiso   1.00
C332   C     0.38689   0.43267   0.06027   0.00000  Uiso   1.00
C333   C     0.35072   0.47495   0.98822   0.00000  Uiso   1.00
C334   C     0.34102   0.54219   0.96587   0.00000  Uiso   1.00
C335   C     0.31151   0.65530   0.90285   0.00000  Uiso   1.00
C336   C     0.45049   0.40171   0.18454   0.00000  Uiso   1.00
C337   C     0.39422   0.35595   0.19764   0.00000  Uiso   1.00
C338   C     0.36922   0.33842   0.25053   0.00000  Uiso   1.00
C339   C     0.31767   0.29596   0.25370   0.00000  Uiso   1.00
C340   C     0.51252   0.36216   0.18714   0.00000  Uiso   1.00
C341   C     0.58699   0.34986   0.23119   0.00000  Uiso   1.00
C342   C     0.63503   0.31264   0.22553   0.00000  Uiso   1.00
C343   C     0.41246   0.45670   0.10828   0.00000  Uiso   1.00
C344   C     0.40282   0.52388   0.08603   0.00000  Uiso   1.00
C345   C     0.36664   0.56626   0.01397   0.00000  Uiso   1.00
H346   H     0.38349   0.33877   0.05876   0.00000  Uiso   1.00
H347   H     0.29735   0.27089   0.11556   0.00000  Uiso   1.00
H348   H     0.51508   0.28235   0.09622   0.00000  Uiso   1.00
H349   H     0.33094   0.45634   0.95108   0.00000  Uiso   1.00
H350   H     0.21314   0.20621   0.19972   0.00000  Uiso   1.00
H351   H     0.67224   0.23039   0.15893   0.00000  Uiso   1.00
H352   H     0.28395   0.59728   0.85287   0.00000  Uiso   1.00
H353   H     0.47041   0.42041   0.22193   0.00000  Uiso   1.00
H354   H     0.38903   0.35702   0.28768   0.00000  Uiso   1.00
H355   H     0.60676   0.36847   0.26834   0.00000  Uiso   1.00
H356   H     0.42262   0.54246   0.12320   0.00000  Uiso   1.00
H357   H     0.28755   0.27611   0.33942   0.00000  Uiso   1.00
H358   H     0.74666   0.30029   0.29862   0.00000  Uiso   1.00
H359   H     0.35837   0.66718   0.99257   0.00000  Uiso   1.00
O360   O     0.19526   0.19797   0.30989   0.00000  Uiso   1.00
O361   O     0.79759   0.22969   0.25636   0.00000  Uiso   1.00
O362   O     0.28816   0.71105   0.85483   0.00000  Uiso   1.00
N363   N     0.24181   0.23138   0.22357   0.00000  Uiso   1.00
N364   N     0.67104   0.25397   0.18543   0.00000  Uiso   1.00
N365   N     0.30804   0.59698   0.89930   0.00000  Uiso   1.00
N366   N     0.28185   0.26899   0.29874   0.00000  Uiso   1.00
N367   N     0.71108   0.29158   0.26060   0.00000  Uiso   1.00
N368   N     0.34808   0.63459   0.97447   0.00000  Uiso   1.00
C369   C     0.33846   0.49413   0.64081   0.00000  Uiso   1.00
C370   C     0.30476   0.44105   0.62330   0.00000  Uiso   1.00
C371   C     0.23043   0.43499   0.60249   0.00000  Uiso   1.00
C372   C     0.21068   0.38308   0.58888   0.00000  Uiso   1.00
C373   C     0.15032   0.30741   0.56060   0.00000  Uiso   1.00
C374   C     0.37832   0.52816   0.59248   0.00000  Uiso   1.00
C375   C     0.36585   0.59535   0.54576   0.00000  Uiso   1.00
C376   C     0.40803   0.61677   0.50621   0.00000  Uiso   1.00
C377   C     0.46192   0.67635   0.43012   0.00000  Uiso   1.00
C378   C     0.39884   0.45738   0.71544   0.00000  Uiso   1.00
C379   C     0.40364   0.46506   0.77210   0.00000  Uiso   1.00
C380   C     0.46311   0.42690   0.83607   0.00000  Uiso   1.00
C381   C     0.54885   0.37658   0.95089   0.00000  Uiso   1.00
C382   C     0.43556   0.41271   0.65365   0.00000  Uiso   1.00
C383   C     0.35750   0.39683   0.63027   0.00000  Uiso   1.00
C384   C     0.33786   0.34491   0.61669   0.00000  Uiso   1.00
C385   C     0.26351   0.33878   0.59587   0.00000  Uiso   1.00
C386   C     0.43106   0.48394   0.59945   0.00000  Uiso   1.00
C387   C     0.47328   0.50527   0.55997   0.00000  Uiso   1.00
C388   C     0.46087   0.57247   0.51320   0.00000  Uiso   1.00
C389   C     0.45158   0.41315   0.72241   0.00000  Uiso   1.00
C390   C     0.51106   0.37498   0.78631   0.00000  Uiso   1.00
C391   C     0.51594   0.38260   0.84306   0.00000  Uiso   1.00
H392   H     0.29741   0.52856   0.63538   0.00000  Uiso   1.00
H393   H     0.18963   0.46923   0.59709   0.00000  Uiso   1.00
H394   H     0.32504   0.62956   0.54038   0.00000  Uiso   1.00
H395   H     0.36281   0.49929   0.76668   0.00000  Uiso   1.00
H396   H     0.09340   0.38397   0.55770   0.00000  Uiso   1.00
H397   H     0.37893   0.72204   0.43814   0.00000  Uiso   1.00
H398   H     0.45859   0.44734   0.91534   0.00000  Uiso   1.00
H399   H     0.47662   0.37828   0.65908   0.00000  Uiso   1.00
H400   H     0.37868   0.31070   0.62209   0.00000  Uiso   1.00
H401   H     0.51409   0.47103   0.56538   0.00000  Uiso   1.00
H402   H     0.55186   0.34076   0.79168   0.00000  Uiso   1.00
H403   H     0.24684   0.25529   0.57799   0.00000  Uiso   1.00
H404   H     0.53237   0.59337   0.45843   0.00000  Uiso   1.00
H405   H     0.61203   0.31867   0.93563   0.00000  Uiso   1.00
O406   O     0.10246   0.27790   0.54306   0.00000  Uiso   1.00
O407   O     0.47706   0.72144   0.38622   0.00000  Uiso   1.00
O408   O     0.58157   0.36104   0.01229   0.00000  Uiso   1.00
N409   N     0.14296   0.36295   0.56756   0.00000  Uiso   1.00
N410   N     0.40990   0.67902   0.45577   0.00000  Uiso   1.00
N411   N     0.48438   0.42222   0.90191   0.00000  Uiso   1.00
N412   N     0.22552   0.29371   0.57848   0.00000  Uiso   1.00
N413   N     0.49246   0.60979   0.46669   0.00000  Uiso   1.00
N414   N     0.56695   0.35298   0.91283   0.00000  Uiso   1.00
C415   C     0.35799   0.94855   0.62663   0.00000  Uiso   1.00
C416   C     0.36898   0.87339   0.66059   0.00000  Uiso   1.00
C417   C     0.31766   0.83412   0.67808   0.00000  Uiso   1.00
C418   C     0.33826   0.76635   0.70876   0.00000  Uiso   1.00
C419   C     0.34477   0.65381   0.75960   0.00000  Uiso   1.00
C420   C     0.42188   0.96450   0.67592   0.00000  Uiso   1.00
C421   C     0.41503   0.00185   0.70628   0.00000  Uiso   1.00
C422   C     0.48017   0.01079   0.74985   0.00000  Uiso   1.00
C423   C     0.56880   0.03975   0.82444   0.00000  Uiso   1.00
C424   C     0.37075   0.97314   0.55941   0.00000  Uiso   1.00
C425   C     0.32091   0.01777   0.49182   0.00000  Uiso   1.00
C426   C     0.34301   0.03400   0.43730   0.00000  Uiso   1.00
C427   C     0.35225   0.07638   0.33099   0.00000  Uiso   1.00
C428   C     0.48585   0.89803   0.65001   0.00000  Uiso   1.00
C429   C     0.43843   0.84595   0.67329   0.00000  Uiso   1.00
C430   C     0.45912   0.77823   0.70395   0.00000  Uiso   1.00
C431   C     0.40783   0.73886   0.72148   0.00000  Uiso   1.00
C432   C     0.49132   0.93707   0.68862   0.00000  Uiso   1.00
C433   C     0.55649   0.94596   0.73215   0.00000  Uiso   1.00
C434   C     0.54974   0.98331   0.76258   0.00000  Uiso   1.00
C435   C     0.44019   0.94571   0.57211   0.00000  Uiso   1.00
C436   C     0.46237   0.96188   0.51769   0.00000  Uiso   1.00
C437   C     0.41258   0.00652   0.45002   0.00000  Uiso   1.00
H438   H     0.30393   0.96992   0.61675   0.00000  Uiso   1.00
H439   H     0.26392   0.85537   0.66825   0.00000  Uiso   1.00
H440   H     0.36128   0.02308   0.69644   0.00000  Uiso   1.00
H441   H     0.26718   0.03900   0.48201   0.00000  Uiso   1.00
H442   H     0.25021   0.71628   0.73098   0.00000  Uiso   1.00
H443   H     0.45549   0.06992   0.79040   0.00000  Uiso   1.00
H444   H     0.25706   0.10348   0.33822   0.00000  Uiso   1.00
H445   H     0.53992   0.87667   0.65990   0.00000  Uiso   1.00
H446   H     0.51286   0.75701   0.71377   0.00000  Uiso   1.00
H447   H     0.61022   0.92472   0.74196   0.00000  Uiso   1.00
H448   H     0.51612   0.94063   0.52753   0.00000  Uiso   1.00
H449   H     0.45225   0.63644   0.76793   0.00000  Uiso   1.00
H450   H     0.65754   0.99009   0.82734   0.00000  Uiso   1.00
H451   H     0.45911   0.02365   0.37518   0.00000  Uiso   1.00
O452   O     0.32918   0.59932   0.78414   0.00000  Uiso   1.00
O453   O     0.59851   0.06330   0.86208   0.00000  Uiso   1.00
O454   O     0.33817   0.10733   0.26884   0.00000  Uiso   1.00
N455   N     0.30146   0.71391   0.73227   0.00000  Uiso   1.00
N456   N     0.49339   0.04454   0.78783   0.00000  Uiso   1.00
N457   N     0.30788   0.07593   0.36509   0.00000  Uiso   1.00
N458   N     0.41019   0.67095   0.75215   0.00000  Uiso   1.00
N459   N     0.60211   0.00158   0.80771   0.00000  Uiso   1.00
N460   N     0.41660   0.03297   0.38497   0.00000  Uiso   1.00
C461   C     0.76497   0.70782   0.44018   0.00000  Uiso   1.00
C462   C     0.76082   0.71223   0.50176   0.00000  Uiso   1.00
C463   C     0.69658   0.72891   0.50554   0.00000  Uiso   1.00
C464   C     0.70448   0.73021   0.56637   0.00000  Uiso   1.00
C465   C     0.68744   0.73935   0.65360   0.00000  Uiso   1.00
C466   C     0.81733   0.75431   0.41709   0.00000  Uiso   1.00
C467   C     0.80061   0.80636   0.34967   0.00000  Uiso   1.00
C468   C     0.85608   0.84307   0.33923   0.00000  Uiso   1.00
C469   C     0.92680   0.91750   0.29499   0.00000  Uiso   1.00
C470   C     0.80465   0.63818   0.47113   0.00000  Uiso   1.00
C471   C     0.77728   0.59259   0.44914   0.00000  Uiso   1.00
C472   C     0.82209   0.53152   0.48419   0.00000  Uiso   1.00
C473   C     0.87312   0.42565   0.52385   0.00000  Uiso   1.00
C474   C     0.89324   0.68046   0.54151   0.00000  Uiso   1.00
C475   C     0.83049   0.69737   0.55679   0.00000  Uiso   1.00
C476   C     0.83849   0.69864   0.61764   0.00000  Uiso   1.00
C477   C     0.77427   0.71532   0.62151   0.00000  Uiso   1.00
C478   C     0.88700   0.73945   0.47212   0.00000  Uiso   1.00
C479   C     0.94252   0.77608   0.46177   0.00000  Uiso   1.00
C480   C     0.92588   0.82818   0.39436   0.00000  Uiso   1.00
C481   C     0.87432   0.62331   0.52617   0.00000  Uiso   1.00
C482   C     0.91919   0.56231   0.56125   0.00000  Uiso   1.00
C483   C     0.89188   0.51663   0.53932   0.00000  Uiso   1.00
H484   H     0.71073   0.71940   0.39733   0.00000  Uiso   1.00
H485   H     0.64267   0.74042   0.46293   0.00000  Uiso   1.00
H486   H     0.74669   0.81785   0.30709   0.00000  Uiso   1.00
H487   H     0.72336   0.60411   0.40655   0.00000  Uiso   1.00
H488   H     0.59795   0.75720   0.55992   0.00000  Uiso   1.00
H489   H     0.81728   0.92044   0.23132   0.00000  Uiso   1.00
H490   H     0.76809   0.46973   0.44104   0.00000  Uiso   1.00
H491   H     0.94748   0.66889   0.58435   0.00000  Uiso   1.00
H492   H     0.89241   0.68713   0.66022   0.00000  Uiso   1.00
H493   H     0.99643   0.76456   0.50437   0.00000  Uiso   1.00
H494   H     0.97310   0.55082   0.60383   0.00000  Uiso   1.00
H495   H     0.80064   0.71395   0.72005   0.00000  Uiso   1.00
H496   H     0.01998   0.87720   0.39144   0.00000  Uiso   1.00
H497   H     0.97078   0.42648   0.60116   0.00000  Uiso   1.00
O498   O     0.65880   0.74851   0.68651   0.00000  Uiso   1.00
O499   O     0.94656   0.96267   0.25538   0.00000  Uiso   1.00
O500   O     0.88201   0.37135   0.53054   0.00000  Uiso   1.00
N501   N     0.65321   0.74450   0.58720   0.00000  Uiso   1.00
N502   N     0.85827   0.89713   0.27998   0.00000  Uiso   1.00
N503   N     0.81228   0.47576   0.47604   0.00000  Uiso   1.00
N504   N     0.76228   0.72123   0.67336   0.00000  Uiso   1.00
N505   N     0.96733   0.87386   0.36614   0.00000  Uiso   1.00
N506   N     0.92135   0.45249   0.56220   0.00000  Uiso   1.00
C507   C     0.86223   0.38802   0.18447   0.00000  Uiso   1.00
C508   C     0.79429   0.43716   0.12205   0.00000  Uiso   1.00
C509   C     0.72216   0.42476   0.10278   0.00000  Uiso   1.00
C510   C     0.66778   0.47619   0.04400   0.00000  Uiso   1.00
C511   C     0.55968   0.54312   0.95285   0.00000  Uiso   1.00
C512   C     0.91646   0.38366   0.15399   0.00000  Uiso   1.00
C513   C     0.94705   0.32626   0.16158   0.00000  Uiso   1.00
C514   C     0.99553   0.33266   0.12970   0.00000  Uiso   1.00
C515   C     0.07715   0.31650   0.08819   0.00000  Uiso   1.00
C516   C     0.89766   0.42096   0.22931   0.00000  Uiso   1.00
C517   C     0.91245   0.39493   0.30023   0.00000  Uiso   1.00
C518   C     0.94511   0.43273   0.33176   0.00000  Uiso   1.00
C519   C     0.99753   0.47451   0.40719   0.00000  Uiso   1.00
C520   C     0.89394   0.50144   0.11436   0.00000  Uiso   1.00
C521   C     0.81152   0.49876   0.08397   0.00000  Uiso   1.00
C522   C     0.75724   0.55024   0.02521   0.00000  Uiso   1.00
C523   C     0.68503   0.53791   0.00585   0.00000  Uiso   1.00
C524   C     0.93369   0.44525   0.11591   0.00000  Uiso   1.00
C525   C     0.98214   0.45174   0.08402   0.00000  Uiso   1.00
C526   C     0.01279   0.39437   0.09155   0.00000  Uiso   1.00
C527   C     0.91488   0.48257   0.19123   0.00000  Uiso   1.00
C528   C     0.94753   0.52041   0.22266   0.00000  Uiso   1.00
C529   C     0.96237   0.49445   0.29362   0.00000  Uiso   1.00
H530   H     0.84882   0.34006   0.21411   0.00000  Uiso   1.00
H531   H     0.70885   0.37707   0.13225   0.00000  Uiso   1.00
H532   H     0.93372   0.27859   0.19106   0.00000  Uiso   1.00
H533   H     0.89911   0.34726   0.32968   0.00000  Uiso   1.00
H534   H     0.56126   0.44527   0.02469   0.00000  Uiso   1.00
H535   H     0.03543   0.23762   0.14870   0.00000  Uiso   1.00
H536   H     0.96247   0.38241   0.44102   0.00000  Uiso   1.00
H537   H     0.90735   0.54940   0.08471   0.00000  Uiso   1.00
H538   H     0.77059   0.59790   0.99575   0.00000  Uiso   1.00
H539   H     0.99546   0.49942   0.05455   0.00000  Uiso   1.00
H540   H     0.96085   0.56808   0.19318   0.00000  Uiso   1.00
H541   H     0.61137   0.62450   0.91390   0.00000  Uiso   1.00
H542   H     0.08555   0.41684   0.03791   0.00000  Uiso   1.00
H543   H     0.01258   0.56164   0.33023   0.00000  Uiso   1.00
O544   O     0.49530   0.56301   0.91310   0.00000  Uiso   1.00
O545   O     0.11740   0.29057   0.07580   0.00000  Uiso   1.00
O546   O     0.02167   0.48053   0.45932   0.00000  Uiso   1.00
N547   N     0.59182   0.48080   0.01083   0.00000  Uiso   1.00
N548   N     0.03514   0.28666   0.12676   0.00000  Uiso   1.00
N549   N     0.96694   0.42201   0.40006   0.00000  Uiso   1.00
N550   N     0.61879   0.57724   0.95122   0.00000  Uiso   1.00
N551   N     0.06210   0.38310   0.06715   0.00000  Uiso   1.00
N552   N     0.99390   0.51846   0.34045   0.00000  Uiso   1.00
