data_job_04992
_audit_creation_date              2018-12-19
_audit_creation_method            'Materials Studio'
_symmetry_space_group_name_H-M    'P1'
_symmetry_Int_Tables_number       1
_symmetry_cell_setting            triclinic
loop_
_symmetry_equiv_pos_as_xyz
  x,y,z
_cell_length_a                    13.3141
_cell_length_b                    7.1189
_cell_length_c                    12.4830
_cell_angle_alpha                 90.0000
_cell_angle_beta                  84.0936
_cell_angle_gamma                 90.0000
loop_
_atom_site_label
_atom_site_type_symbol
_atom_site_fract_x
_atom_site_fract_y
_atom_site_fract_z
_atom_site_U_iso_or_equiv
_atom_site_adp_type
_atom_site_occupancy
C1     C     0.23452   0.35072   0.24688   0.00000  Uiso   1.00
C2     C     0.28235   0.39498   0.34985   0.00000  Uiso   1.00
C3     C     0.33187   0.26742   0.41004   0.00000  Uiso   1.00
C4     C     0.37038   0.33556   0.50168   0.00000  Uiso   1.00
C5     C     0.44622   0.37552   0.65699   0.00000  Uiso   1.00
C6     C     0.12436   0.41120   0.26764   0.00000  Uiso   1.00
C7     C     0.04105   0.29727   0.25870   0.00000  Uiso   1.00
C8     C     0.94656   0.37908   0.28113   0.00000  Uiso   1.00
C9     C     0.77713   0.44425   0.30873   0.00000  Uiso   1.00
C10    C     0.28335   0.48437   0.16135   0.00000  Uiso   1.00
C11    C     0.33371   0.43198   0.06301   0.00000  Uiso   1.00
C12    C     0.37306   0.57540   0.99593   0.00000  Uiso   1.00
C13    C     0.45049   0.75419   0.85849   0.00000  Uiso   1.00
C14    C     0.21484   0.69859   0.30260   0.00000  Uiso   1.00
C15    C     0.27166   0.58393   0.38012   0.00000  Uiso   1.00
C16    C     0.31010   0.65229   0.47169   0.00000  Uiso   1.00
C17    C     0.35968   0.52485   0.53200   0.00000  Uiso   1.00
C18    C     0.11367   0.60014   0.29791   0.00000  Uiso   1.00
C19    C     0.01928   0.68214   0.32035   0.00000  Uiso   1.00
C20    C     0.93585   0.56836   0.31145   0.00000  Uiso   1.00
C21    C     0.27267   0.67332   0.19161   0.00000  Uiso   1.00
C22    C     0.31194   0.81685   0.12467   0.00000  Uiso   1.00
C23    C     0.36235   0.76469   0.02625   0.00000  Uiso   1.00
H24    H     0.24283   0.20362   0.22332   0.00000  Uiso   1.00
H25    H     0.34012   0.12120   0.38660   0.00000  Uiso   1.00
H26    H     0.04934   0.15106   0.23526   0.00000  Uiso   1.00
H27    H     0.34196   0.28575   0.03962   0.00000  Uiso   1.00
H28    H     0.44323   0.11313   0.58099   0.00000  Uiso   1.00
H29    H     0.83012   0.17611   0.26186   0.00000  Uiso   1.00
H30    H     0.44715   0.46013   0.84929   0.00000  Uiso   1.00
H31    H     0.20652   0.84570   0.32617   0.00000  Uiso   1.00
H32    H     0.30182   0.79852   0.49509   0.00000  Uiso   1.00
H33    H     0.01104   0.82837   0.34376   0.00000  Uiso   1.00
H34    H     0.30366   0.96306   0.14811   0.00000  Uiso   1.00
H35    H     0.41214   0.66286   0.66905   0.00000  Uiso   1.00
H36    H     0.79903   0.72583   0.34992   0.00000  Uiso   1.00
H37    H     0.41607   0.00986   0.93735   0.00000  Uiso   1.00
O38    O     0.49100   0.34536   0.73430   0.00000  Uiso   1.00
O39    O     0.68663   0.42798   0.31560   0.00000  Uiso   1.00
O40    O     0.49617   0.80061   0.77433   0.00000  Uiso   1.00
N41    N     0.42285   0.24900   0.57852   0.00000  Uiso   1.00
N42    N     0.84963   0.30786   0.28017   0.00000  Uiso   1.00
N43    N     0.42648   0.57340   0.89444   0.00000  Uiso   1.00
N44    N     0.40613   0.54480   0.62590   0.00000  Uiso   1.00
N45    N     0.83290   0.60367   0.32756   0.00000  Uiso   1.00
N46    N     0.40976   0.86921   0.94183   0.00000  Uiso   1.00
C47    C     0.76548   0.85072   0.75312   0.00000  Uiso   1.00
C48    C     0.71765   0.89498   0.65015   0.00000  Uiso   1.00
C49    C     0.66813   0.76742   0.58996   0.00000  Uiso   1.00
C50    C     0.62962   0.83556   0.49832   0.00000  Uiso   1.00
C51    C     0.55378   0.87552   0.34301   0.00000  Uiso   1.00
C52    C     0.87564   0.91120   0.73236   0.00000  Uiso   1.00
C53    C     0.95895   0.79727   0.74130   0.00000  Uiso   1.00
C54    C     0.05344   0.87908   0.71887   0.00000  Uiso   1.00
C55    C     0.22287   0.94425   0.69127   0.00000  Uiso   1.00
C56    C     0.71665   0.98437   0.83865   0.00000  Uiso   1.00
C57    C     0.66629   0.93198   0.93699   0.00000  Uiso   1.00
C58    C     0.62694   0.07540   0.00407   0.00000  Uiso   1.00
C59    C     0.54951   0.25419   0.14151   0.00000  Uiso   1.00
C60    C     0.78516   0.19859   0.69740   0.00000  Uiso   1.00
C61    C     0.72834   0.08393   0.61988   0.00000  Uiso   1.00
C62    C     0.68990   0.15229   0.52831   0.00000  Uiso   1.00
C63    C     0.64032   0.02485   0.46800   0.00000  Uiso   1.00
C64    C     0.88633   0.10014   0.70209   0.00000  Uiso   1.00
C65    C     0.98072   0.18214   0.67965   0.00000  Uiso   1.00
C66    C     0.06415   0.06836   0.68855   0.00000  Uiso   1.00
C67    C     0.72733   0.17332   0.80839   0.00000  Uiso   1.00
C68    C     0.68806   0.31685   0.87533   0.00000  Uiso   1.00
C69    C     0.63765   0.26469   0.97375   0.00000  Uiso   1.00
H70    H     0.75717   0.70362   0.77668   0.00000  Uiso   1.00
H71    H     0.65988   0.62120   0.61340   0.00000  Uiso   1.00
H72    H     0.95066   0.65106   0.76474   0.00000  Uiso   1.00
H73    H     0.65804   0.78575   0.96038   0.00000  Uiso   1.00
H74    H     0.55677   0.61313   0.41901   0.00000  Uiso   1.00
H75    H     0.16988   0.67611   0.73814   0.00000  Uiso   1.00
H76    H     0.55285   0.96013   0.15071   0.00000  Uiso   1.00
H77    H     0.79348   0.34570   0.67383   0.00000  Uiso   1.00
H78    H     0.69818   0.29852   0.50491   0.00000  Uiso   1.00
H79    H     0.98896   0.32837   0.65624   0.00000  Uiso   1.00
H80    H     0.69634   0.46306   0.85189   0.00000  Uiso   1.00
H81    H     0.58786   0.16286   0.33095   0.00000  Uiso   1.00
H82    H     0.20097   0.22583   0.65008   0.00000  Uiso   1.00
H83    H     0.58393   0.50986   0.06265   0.00000  Uiso   1.00
O84    O     0.50900   0.84536   0.26570   0.00000  Uiso   1.00
O85    O     0.31337   0.92798   0.68440   0.00000  Uiso   1.00
O86    O     0.50383   0.30061   0.22567   0.00000  Uiso   1.00
N87    N     0.57715   0.74900   0.42148   0.00000  Uiso   1.00
N88    N     0.15037   0.80786   0.71983   0.00000  Uiso   1.00
N89    N     0.57352   0.07340   0.10556   0.00000  Uiso   1.00
N90    N     0.59387   0.04480   0.37410   0.00000  Uiso   1.00
N91    N     0.16710   0.10367   0.67244   0.00000  Uiso   1.00
N92    N     0.59024   0.36921   0.05817   0.00000  Uiso   1.00
