data_job_00417
_audit_creation_date              2018-12-19
_audit_creation_method            'Materials Studio'
_symmetry_space_group_name_H-M    'P1'
_symmetry_Int_Tables_number       1
_symmetry_cell_setting            triclinic
loop_
_symmetry_equiv_pos_as_xyz
  x,y,z
_cell_length_a                    11.7782
_cell_length_b                    11.7782
_cell_length_c                    16.9757
_cell_angle_alpha                 90.0000
_cell_angle_beta                  90.0000
_cell_angle_gamma                 90.0000
loop_
_atom_site_label
_atom_site_type_symbol
_atom_site_fract_x
_atom_site_fract_y
_atom_site_fract_z
_atom_site_U_iso_or_equiv
_atom_site_adp_type
_atom_site_occupancy
C1     C     0.76046   0.85549   0.02899   0.00000  Uiso   1.00
C2     C     0.63935   0.83782   0.99968   0.00000  Uiso   1.00
C3     C     0.57055   0.92044   0.96623   0.00000  Uiso   1.00
C4     C     0.46240   0.88730   0.94322   0.00000  Uiso   1.00
C5     C     0.28010   0.87688   0.89621   0.00000  Uiso   1.00
C6     C     0.76084   0.81833   0.11504   0.00000  Uiso   1.00
C7     C     0.79421   0.88455   0.17858   0.00000  Uiso   1.00
C8     C     0.78834   0.83499   0.25268   0.00000  Uiso   1.00
C9     C     0.79474   0.79429   0.38476   0.00000  Uiso   1.00
C10    C     0.83338   0.76931   0.98502   0.00000  Uiso   1.00
C11    C     0.92776   0.79431   0.93925   0.00000  Uiso   1.00
C12    C     0.98298   0.70348   0.90389   0.00000  Uiso   1.00
C13    C     0.10200   0.58666   0.83409   0.00000  Uiso   1.00
C14    C     0.69073   0.64973   0.04761   0.00000  Uiso   1.00
C15    C     0.60148   0.72606   0.00980   0.00000  Uiso   1.00
C16    C     0.49341   0.69279   0.98683   0.00000  Uiso   1.00
C17    C     0.42446   0.77534   0.95335   0.00000  Uiso   1.00
C18    C     0.72297   0.70658   0.12516   0.00000  Uiso   1.00
C19    C     0.71706   0.65690   0.19918   0.00000  Uiso   1.00
C20    C     0.75040   0.72303   0.26281   0.00000  Uiso   1.00
C21    C     0.79551   0.65755   0.99513   0.00000  Uiso   1.00
C22    C     0.85060   0.56666   0.95985   0.00000  Uiso   1.00
C23    C     0.94504   0.59152   0.91403   0.00000  Uiso   1.00
H24    H     0.78994   0.94250   0.02112   0.00000  Uiso   1.00
H25    H     0.59989   0.00692   0.95842   0.00000  Uiso   1.00
H26    H     0.82353   0.97103   0.17073   0.00000  Uiso   1.00
H27    H     0.95704   0.88080   0.93144   0.00000  Uiso   1.00
H28    H     0.37247   0.02906   0.89339   0.00000  Uiso   1.00
H29    H     0.84404   0.95338   0.34106   0.00000  Uiso   1.00
H30    H     0.12560   0.76312   0.83646   0.00000  Uiso   1.00
H31    H     0.66124   0.56272   0.05549   0.00000  Uiso   1.00
H32    H     0.46412   0.60630   0.99466   0.00000  Uiso   1.00
H33    H     0.68775   0.57041   0.20698   0.00000  Uiso   1.00
H34    H     0.82127   0.48019   0.96768   0.00000  Uiso   1.00
H35    H     0.26227   0.70391   0.92281   0.00000  Uiso   1.00
H36    H     0.73385   0.62823   0.37048   0.00000  Uiso   1.00
H37    H     0.01540   0.43796   0.86588   0.00000  Uiso   1.00
O38    O     0.19001   0.90202   0.86749   0.00000  Uiso   1.00
O39    O     0.80872   0.80272   0.45482   0.00000  Uiso   1.00
O40    O     0.17810   0.55310   0.79279   0.00000  Uiso   1.00
N41    N     0.37359   0.94655   0.90864   0.00000  Uiso   1.00
N42    N     0.81447   0.87580   0.32719   0.00000  Uiso   1.00
N43    N     0.07772   0.69792   0.85545   0.00000  Uiso   1.00
N44    N     0.31429   0.77159   0.92447   0.00000  Uiso   1.00
N45    N     0.75517   0.70084   0.34302   0.00000  Uiso   1.00
N46    N     0.01842   0.52296   0.87128   0.00000  Uiso   1.00
C47    C     0.23954   0.14451   0.52899   0.00000  Uiso   1.00
C48    C     0.36065   0.16218   0.49968   0.00000  Uiso   1.00
C49    C     0.42945   0.07956   0.46623   0.00000  Uiso   1.00
C50    C     0.53760   0.11270   0.44322   0.00000  Uiso   1.00
C51    C     0.71990   0.12312   0.39621   0.00000  Uiso   1.00
C52    C     0.23916   0.18167   0.61504   0.00000  Uiso   1.00
C53    C     0.20579   0.11545   0.67858   0.00000  Uiso   1.00
C54    C     0.21166   0.16501   0.75268   0.00000  Uiso   1.00
C55    C     0.20526   0.20571   0.88476   0.00000  Uiso   1.00
C56    C     0.16662   0.23069   0.48502   0.00000  Uiso   1.00
C57    C     0.07224   0.20569   0.43925   0.00000  Uiso   1.00
C58    C     0.01702   0.29652   0.40389   0.00000  Uiso   1.00
C59    C     0.89800   0.41334   0.33409   0.00000  Uiso   1.00
C60    C     0.30927   0.35027   0.54761   0.00000  Uiso   1.00
C61    C     0.39852   0.27394   0.50980   0.00000  Uiso   1.00
C62    C     0.50659   0.30721   0.48683   0.00000  Uiso   1.00
C63    C     0.57554   0.22466   0.45335   0.00000  Uiso   1.00
C64    C     0.27703   0.29342   0.62516   0.00000  Uiso   1.00
C65    C     0.28294   0.34310   0.69918   0.00000  Uiso   1.00
C66    C     0.24960   0.27697   0.76281   0.00000  Uiso   1.00
C67    C     0.20449   0.34245   0.49513   0.00000  Uiso   1.00
C68    C     0.14940   0.43334   0.45985   0.00000  Uiso   1.00
C69    C     0.05496   0.40848   0.41403   0.00000  Uiso   1.00
H70    H     0.21006   0.05750   0.52112   0.00000  Uiso   1.00
H71    H     0.40011   0.99308   0.45842   0.00000  Uiso   1.00
H72    H     0.17647   0.02897   0.67073   0.00000  Uiso   1.00
H73    H     0.04296   0.11920   0.43144   0.00000  Uiso   1.00
H74    H     0.62753   0.97094   0.39339   0.00000  Uiso   1.00
H75    H     0.15596   0.04662   0.84106   0.00000  Uiso   1.00
H76    H     0.87440   0.23688   0.33646   0.00000  Uiso   1.00
H77    H     0.33876   0.43728   0.55549   0.00000  Uiso   1.00
H78    H     0.53588   0.39370   0.49466   0.00000  Uiso   1.00
H79    H     0.31225   0.42959   0.70698   0.00000  Uiso   1.00
H80    H     0.17873   0.51981   0.46768   0.00000  Uiso   1.00
H81    H     0.73773   0.29609   0.42281   0.00000  Uiso   1.00
H82    H     0.26615   0.37177   0.87048   0.00000  Uiso   1.00
H83    H     0.98460   0.56204   0.36588   0.00000  Uiso   1.00
O84    O     0.80999   0.09798   0.36749   0.00000  Uiso   1.00
O85    O     0.19128   0.19728   0.95482   0.00000  Uiso   1.00
O86    O     0.82190   0.44690   0.29279   0.00000  Uiso   1.00
N87    N     0.62641   0.05345   0.40864   0.00000  Uiso   1.00
N88    N     0.18553   0.12420   0.82719   0.00000  Uiso   1.00
N89    N     0.92228   0.30208   0.35545   0.00000  Uiso   1.00
N90    N     0.68571   0.22841   0.42447   0.00000  Uiso   1.00
N91    N     0.24483   0.29916   0.84302   0.00000  Uiso   1.00
N92    N     0.98158   0.47704   0.37128   0.00000  Uiso   1.00
C93    C     0.14451   0.76046   0.27899   0.00000  Uiso   1.00
C94    C     0.16218   0.63935   0.24968   0.00000  Uiso   1.00
C95    C     0.07956   0.57055   0.21623   0.00000  Uiso   1.00
C96    C     0.11270   0.46240   0.19322   0.00000  Uiso   1.00
C97    C     0.12312   0.28010   0.14621   0.00000  Uiso   1.00
C98    C     0.18167   0.76084   0.36504   0.00000  Uiso   1.00
C99    C     0.11545   0.79421   0.42858   0.00000  Uiso   1.00
C100   C     0.16501   0.78834   0.50268   0.00000  Uiso   1.00
C101   C     0.20571   0.79474   0.63476   0.00000  Uiso   1.00
C102   C     0.23069   0.83338   0.23502   0.00000  Uiso   1.00
C103   C     0.20569   0.92776   0.18925   0.00000  Uiso   1.00
C104   C     0.29652   0.98298   0.15389   0.00000  Uiso   1.00
C105   C     0.41334   0.10200   0.08409   0.00000  Uiso   1.00
C106   C     0.35027   0.69073   0.29761   0.00000  Uiso   1.00
C107   C     0.27394   0.60148   0.25980   0.00000  Uiso   1.00
C108   C     0.30721   0.49341   0.23683   0.00000  Uiso   1.00
C109   C     0.22466   0.42446   0.20335   0.00000  Uiso   1.00
C110   C     0.29342   0.72297   0.37516   0.00000  Uiso   1.00
C111   C     0.34310   0.71706   0.44918   0.00000  Uiso   1.00
C112   C     0.27697   0.75040   0.51281   0.00000  Uiso   1.00
C113   C     0.34245   0.79551   0.24513   0.00000  Uiso   1.00
C114   C     0.43334   0.85060   0.20985   0.00000  Uiso   1.00
C115   C     0.40848   0.94504   0.16403   0.00000  Uiso   1.00
H116   H     0.05750   0.78994   0.27112   0.00000  Uiso   1.00
H117   H     0.99308   0.59989   0.20842   0.00000  Uiso   1.00
H118   H     0.02897   0.82353   0.42073   0.00000  Uiso   1.00
H119   H     0.11920   0.95704   0.18144   0.00000  Uiso   1.00
H120   H     0.97094   0.37247   0.14339   0.00000  Uiso   1.00
H121   H     0.04662   0.84404   0.59106   0.00000  Uiso   1.00
H122   H     0.23688   0.12560   0.08646   0.00000  Uiso   1.00
H123   H     0.43728   0.66124   0.30549   0.00000  Uiso   1.00
H124   H     0.39370   0.46412   0.24466   0.00000  Uiso   1.00
H125   H     0.42959   0.68775   0.45698   0.00000  Uiso   1.00
H126   H     0.51981   0.82127   0.21768   0.00000  Uiso   1.00
H127   H     0.29609   0.26227   0.17281   0.00000  Uiso   1.00
H128   H     0.37177   0.73385   0.62048   0.00000  Uiso   1.00
H129   H     0.56204   0.01540   0.11588   0.00000  Uiso   1.00
O130   O     0.09798   0.19001   0.11749   0.00000  Uiso   1.00
O131   O     0.19728   0.80872   0.70482   0.00000  Uiso   1.00
O132   O     0.44690   0.17810   0.04279   0.00000  Uiso   1.00
N133   N     0.05345   0.37359   0.15864   0.00000  Uiso   1.00
N134   N     0.12420   0.81447   0.57719   0.00000  Uiso   1.00
N135   N     0.30208   0.07772   0.10545   0.00000  Uiso   1.00
N136   N     0.22841   0.31429   0.17447   0.00000  Uiso   1.00
N137   N     0.29916   0.75517   0.59302   0.00000  Uiso   1.00
N138   N     0.47704   0.01842   0.12128   0.00000  Uiso   1.00
C139   C     0.85549   0.23954   0.77899   0.00000  Uiso   1.00
C140   C     0.83782   0.36065   0.74968   0.00000  Uiso   1.00
C141   C     0.92044   0.42945   0.71623   0.00000  Uiso   1.00
C142   C     0.88730   0.53760   0.69322   0.00000  Uiso   1.00
C143   C     0.87688   0.71990   0.64621   0.00000  Uiso   1.00
C144   C     0.81833   0.23916   0.86504   0.00000  Uiso   1.00
C145   C     0.88455   0.20579   0.92858   0.00000  Uiso   1.00
C146   C     0.83499   0.21166   0.00268   0.00000  Uiso   1.00
C147   C     0.79429   0.20526   0.13476   0.00000  Uiso   1.00
C148   C     0.76931   0.16662   0.73502   0.00000  Uiso   1.00
C149   C     0.79431   0.07224   0.68925   0.00000  Uiso   1.00
C150   C     0.70348   0.01702   0.65389   0.00000  Uiso   1.00
C151   C     0.58666   0.89800   0.58409   0.00000  Uiso   1.00
C152   C     0.64973   0.30927   0.79761   0.00000  Uiso   1.00
C153   C     0.72606   0.39852   0.75980   0.00000  Uiso   1.00
C154   C     0.69279   0.50659   0.73683   0.00000  Uiso   1.00
C155   C     0.77534   0.57554   0.70335   0.00000  Uiso   1.00
C156   C     0.70658   0.27703   0.87516   0.00000  Uiso   1.00
C157   C     0.65690   0.28294   0.94918   0.00000  Uiso   1.00
C158   C     0.72303   0.24960   0.01281   0.00000  Uiso   1.00
C159   C     0.65755   0.20449   0.74513   0.00000  Uiso   1.00
C160   C     0.56666   0.14940   0.70985   0.00000  Uiso   1.00
C161   C     0.59152   0.05496   0.66403   0.00000  Uiso   1.00
H162   H     0.94250   0.21006   0.77112   0.00000  Uiso   1.00
H163   H     0.00692   0.40011   0.70842   0.00000  Uiso   1.00
H164   H     0.97103   0.17647   0.92073   0.00000  Uiso   1.00
H165   H     0.88080   0.04296   0.68144   0.00000  Uiso   1.00
H166   H     0.02906   0.62753   0.64339   0.00000  Uiso   1.00
H167   H     0.95338   0.15596   0.09106   0.00000  Uiso   1.00
H168   H     0.76312   0.87440   0.58646   0.00000  Uiso   1.00
H169   H     0.56272   0.33876   0.80549   0.00000  Uiso   1.00
H170   H     0.60630   0.53588   0.74466   0.00000  Uiso   1.00
H171   H     0.57041   0.31225   0.95698   0.00000  Uiso   1.00
H172   H     0.48019   0.17873   0.71768   0.00000  Uiso   1.00
H173   H     0.70391   0.73773   0.67281   0.00000  Uiso   1.00
H174   H     0.62823   0.26615   0.12048   0.00000  Uiso   1.00
H175   H     0.43796   0.98460   0.61588   0.00000  Uiso   1.00
O176   O     0.90202   0.80999   0.61749   0.00000  Uiso   1.00
O177   O     0.80272   0.19128   0.20482   0.00000  Uiso   1.00
O178   O     0.55310   0.82190   0.54279   0.00000  Uiso   1.00
N179   N     0.94655   0.62641   0.65864   0.00000  Uiso   1.00
N180   N     0.87580   0.18553   0.07719   0.00000  Uiso   1.00
N181   N     0.69792   0.92228   0.60545   0.00000  Uiso   1.00
N182   N     0.77159   0.68571   0.67447   0.00000  Uiso   1.00
N183   N     0.70084   0.24483   0.09302   0.00000  Uiso   1.00
N184   N     0.52296   0.98158   0.62128   0.00000  Uiso   1.00
