data_job_03994
_audit_creation_date              2018-12-19
_audit_creation_method            'Materials Studio'
_symmetry_space_group_name_H-M    'P1'
_symmetry_Int_Tables_number       1
_symmetry_cell_setting            triclinic
loop_
_symmetry_equiv_pos_as_xyz
  x,y,z
_cell_length_a                    21.9355
_cell_length_b                    10.1520
_cell_length_c                    46.3643
_cell_angle_alpha                 90.0000
_cell_angle_beta                  124.4575
_cell_angle_gamma                 90.0000
loop_
_atom_site_label
_atom_site_type_symbol
_atom_site_fract_x
_atom_site_fract_y
_atom_site_fract_z
_atom_site_U_iso_or_equiv
_atom_site_adp_type
_atom_site_occupancy
C1     C     0.93428   0.45412   0.18449   0.00000  Uiso   1.00
C2     C     0.87565   0.43944   0.19221   0.00000  Uiso   1.00
C3     C     0.88286   0.36602   0.21924   0.00000  Uiso   1.00
C4     C     0.82291   0.36508   0.22189   0.00000  Uiso   1.00
C5     C     0.74172   0.33158   0.23745   0.00000  Uiso   1.00
C6     C     0.89779   0.40956   0.14672   0.00000  Uiso   1.00
C7     C     0.92362   0.31104   0.13550   0.00000  Uiso   1.00
C8     C     0.88231   0.28497   0.09985   0.00000  Uiso   1.00
C9     C     0.83553   0.20516   0.04479   0.00000  Uiso   1.00
C10    C     0.94764   0.60169   0.18483   0.00000  Uiso   1.00
C11    C     0.01539   0.66471   0.20563   0.00000  Uiso   1.00
C12    C     0.01604   0.80040   0.20206   0.00000  Uiso   1.00
C13    C     0.04665   0.01888   0.20616   0.00000  Uiso   1.00
C14    C     0.81499   0.58303   0.14115   0.00000  Uiso   1.00
C15    C     0.81086   0.50945   0.16867   0.00000  Uiso   1.00
C16    C     0.75088   0.50864   0.17128   0.00000  Uiso   1.00
C17    C     0.75800   0.43523   0.19830   0.00000  Uiso   1.00
C18    C     0.83300   0.47957   0.12318   0.00000  Uiso   1.00
C19    C     0.79164   0.45366   0.08755   0.00000  Uiso   1.00
C20    C     0.81740   0.35511   0.07627   0.00000  Uiso   1.00
C21    C     0.88284   0.67171   0.16129   0.00000  Uiso   1.00
C22    C     0.88340   0.80732   0.15768   0.00000  Uiso   1.00
C23    C     0.95113   0.87054   0.17848   0.00000  Uiso   1.00
H24    H     0.98472   0.39961   0.20282   0.00000  Uiso   1.00
H25    H     0.93301   0.31184   0.23745   0.00000  Uiso   1.00
H26    H     0.97377   0.25689   0.15372   0.00000  Uiso   1.00
H27    H     0.06551   0.61050   0.22385   0.00000  Uiso   1.00
H28    H     0.84709   0.24537   0.26545   0.00000  Uiso   1.00
H29    H     0.93305   0.12952   0.08891   0.00000  Uiso   1.00
H30    H     0.12651   0.87518   0.23679   0.00000  Uiso   1.00
H31    H     0.76454   0.63754   0.12282   0.00000  Uiso   1.00
H32    H     0.70074   0.56282   0.15306   0.00000  Uiso   1.00
H33    H     0.74150   0.50786   0.06933   0.00000  Uiso   1.00
H34    H     0.83325   0.86147   0.13946   0.00000  Uiso   1.00
H35    H     0.65857   0.44907   0.19696   0.00000  Uiso   1.00
H36    H     0.74454   0.33322   0.02042   0.00000  Uiso   1.00
H37    H     0.93799   0.07888   0.16829   0.00000  Uiso   1.00
O38    O     0.71483   0.29374   0.25253   0.00000  Uiso   1.00
O39    O     0.82762   0.14177   0.02092   0.00000  Uiso   1.00
O40    O     0.08143   0.12006   0.21493   0.00000  Uiso   1.00
N41    N     0.81149   0.30358   0.24519   0.00000  Uiso   1.00
N42    N     0.89185   0.19526   0.08013   0.00000  Uiso   1.00
N43    N     0.07272   0.89238   0.21838   0.00000  Uiso   1.00
N44    N     0.71005   0.41320   0.20833   0.00000  Uiso   1.00
N45    N     0.79041   0.30487   0.04328   0.00000  Uiso   1.00
N46    N     0.97128   0.00199   0.18152   0.00000  Uiso   1.00
C47    C     0.43428   0.95412   0.18449   0.00000  Uiso   1.00
C48    C     0.37565   0.93944   0.19221   0.00000  Uiso   1.00
C49    C     0.38286   0.86602   0.21924   0.00000  Uiso   1.00
C50    C     0.32291   0.86508   0.22189   0.00000  Uiso   1.00
C51    C     0.24172   0.83158   0.23745   0.00000  Uiso   1.00
C52    C     0.39779   0.90956   0.14672   0.00000  Uiso   1.00
C53    C     0.42362   0.81104   0.13550   0.00000  Uiso   1.00
C54    C     0.38231   0.78497   0.09985   0.00000  Uiso   1.00
C55    C     0.33553   0.70516   0.04479   0.00000  Uiso   1.00
C56    C     0.44764   0.10169   0.18483   0.00000  Uiso   1.00
C57    C     0.51539   0.16471   0.20563   0.00000  Uiso   1.00
C58    C     0.51604   0.30040   0.20206   0.00000  Uiso   1.00
C59    C     0.54665   0.51888   0.20616   0.00000  Uiso   1.00
C60    C     0.31499   0.08303   0.14115   0.00000  Uiso   1.00
C61    C     0.31086   0.00945   0.16867   0.00000  Uiso   1.00
C62    C     0.25088   0.00864   0.17128   0.00000  Uiso   1.00
C63    C     0.25800   0.93523   0.19830   0.00000  Uiso   1.00
C64    C     0.33300   0.97957   0.12318   0.00000  Uiso   1.00
C65    C     0.29164   0.95366   0.08755   0.00000  Uiso   1.00
C66    C     0.31740   0.85511   0.07627   0.00000  Uiso   1.00
C67    C     0.38284   0.17171   0.16129   0.00000  Uiso   1.00
C68    C     0.38340   0.30732   0.15768   0.00000  Uiso   1.00
C69    C     0.45113   0.37054   0.17848   0.00000  Uiso   1.00
H70    H     0.48472   0.89961   0.20282   0.00000  Uiso   1.00
H71    H     0.43301   0.81184   0.23745   0.00000  Uiso   1.00
H72    H     0.47377   0.75689   0.15372   0.00000  Uiso   1.00
H73    H     0.56551   0.11050   0.22385   0.00000  Uiso   1.00
H74    H     0.34709   0.74537   0.26545   0.00000  Uiso   1.00
H75    H     0.43305   0.62952   0.08891   0.00000  Uiso   1.00
H76    H     0.62651   0.37518   0.23679   0.00000  Uiso   1.00
H77    H     0.26454   0.13754   0.12282   0.00000  Uiso   1.00
H78    H     0.20074   0.06282   0.15306   0.00000  Uiso   1.00
H79    H     0.24150   0.00786   0.06933   0.00000  Uiso   1.00
H80    H     0.33325   0.36147   0.13946   0.00000  Uiso   1.00
H81    H     0.15857   0.94907   0.19696   0.00000  Uiso   1.00
H82    H     0.24454   0.83322   0.02042   0.00000  Uiso   1.00
H83    H     0.43799   0.57888   0.16829   0.00000  Uiso   1.00
O84    O     0.21483   0.79374   0.25253   0.00000  Uiso   1.00
O85    O     0.32762   0.64177   0.02092   0.00000  Uiso   1.00
O86    O     0.58143   0.62006   0.21493   0.00000  Uiso   1.00
N87    N     0.31149   0.80358   0.24519   0.00000  Uiso   1.00
N88    N     0.39185   0.69526   0.08013   0.00000  Uiso   1.00
N89    N     0.57272   0.39238   0.21838   0.00000  Uiso   1.00
N90    N     0.21005   0.91320   0.20833   0.00000  Uiso   1.00
N91    N     0.29041   0.80487   0.04328   0.00000  Uiso   1.00
N92    N     0.47128   0.50199   0.18152   0.00000  Uiso   1.00
C93    C     0.06572   0.45412   0.31551   0.00000  Uiso   1.00
C94    C     0.12435   0.43944   0.30779   0.00000  Uiso   1.00
C95    C     0.11714   0.36602   0.28076   0.00000  Uiso   1.00
C96    C     0.17709   0.36508   0.27811   0.00000  Uiso   1.00
C97    C     0.25828   0.33158   0.26255   0.00000  Uiso   1.00
C98    C     0.10221   0.40956   0.35328   0.00000  Uiso   1.00
C99    C     0.07638   0.31104   0.36450   0.00000  Uiso   1.00
C100   C     0.11769   0.28497   0.40015   0.00000  Uiso   1.00
C101   C     0.16447   0.20516   0.45521   0.00000  Uiso   1.00
C102   C     0.05236   0.60169   0.31517   0.00000  Uiso   1.00
C103   C     0.98461   0.66471   0.29437   0.00000  Uiso   1.00
C104   C     0.98396   0.80040   0.29794   0.00000  Uiso   1.00
C105   C     0.95335   0.01888   0.29384   0.00000  Uiso   1.00
C106   C     0.18501   0.58303   0.35885   0.00000  Uiso   1.00
C107   C     0.18914   0.50945   0.33133   0.00000  Uiso   1.00
C108   C     0.24912   0.50864   0.32872   0.00000  Uiso   1.00
C109   C     0.24200   0.43523   0.30170   0.00000  Uiso   1.00
C110   C     0.16700   0.47957   0.37682   0.00000  Uiso   1.00
C111   C     0.20836   0.45366   0.41245   0.00000  Uiso   1.00
C112   C     0.18260   0.35511   0.42373   0.00000  Uiso   1.00
C113   C     0.11716   0.67171   0.33871   0.00000  Uiso   1.00
C114   C     0.11660   0.80732   0.34232   0.00000  Uiso   1.00
C115   C     0.04887   0.87054   0.32152   0.00000  Uiso   1.00
H116   H     0.01528   0.39961   0.29718   0.00000  Uiso   1.00
H117   H     0.06699   0.31184   0.26255   0.00000  Uiso   1.00
H118   H     0.02623   0.25689   0.34628   0.00000  Uiso   1.00
H119   H     0.93449   0.61050   0.27615   0.00000  Uiso   1.00
H120   H     0.15291   0.24537   0.23455   0.00000  Uiso   1.00
H121   H     0.06695   0.12952   0.41109   0.00000  Uiso   1.00
H122   H     0.87349   0.87518   0.26321   0.00000  Uiso   1.00
H123   H     0.23546   0.63754   0.37718   0.00000  Uiso   1.00
H124   H     0.29926   0.56282   0.34694   0.00000  Uiso   1.00
H125   H     0.25850   0.50786   0.43067   0.00000  Uiso   1.00
H126   H     0.16675   0.86147   0.36054   0.00000  Uiso   1.00
H127   H     0.34143   0.44907   0.30304   0.00000  Uiso   1.00
H128   H     0.25546   0.33322   0.47958   0.00000  Uiso   1.00
H129   H     0.06201   0.07888   0.33171   0.00000  Uiso   1.00
O130   O     0.28517   0.29374   0.24747   0.00000  Uiso   1.00
O131   O     0.17238   0.14177   0.47908   0.00000  Uiso   1.00
O132   O     0.91857   0.12006   0.28507   0.00000  Uiso   1.00
N133   N     0.18851   0.30358   0.25481   0.00000  Uiso   1.00
N134   N     0.10815   0.19526   0.41987   0.00000  Uiso   1.00
N135   N     0.92728   0.89238   0.28162   0.00000  Uiso   1.00
N136   N     0.28995   0.41320   0.29167   0.00000  Uiso   1.00
N137   N     0.20959   0.30487   0.45672   0.00000  Uiso   1.00
N138   N     0.02872   0.00199   0.31848   0.00000  Uiso   1.00
C139   C     0.56572   0.95412   0.31551   0.00000  Uiso   1.00
C140   C     0.62435   0.93944   0.30779   0.00000  Uiso   1.00
C141   C     0.61714   0.86602   0.28076   0.00000  Uiso   1.00
C142   C     0.67709   0.86508   0.27811   0.00000  Uiso   1.00
C143   C     0.75828   0.83158   0.26255   0.00000  Uiso   1.00
C144   C     0.60221   0.90956   0.35328   0.00000  Uiso   1.00
C145   C     0.57638   0.81104   0.36450   0.00000  Uiso   1.00
C146   C     0.61769   0.78497   0.40015   0.00000  Uiso   1.00
C147   C     0.66447   0.70516   0.45521   0.00000  Uiso   1.00
C148   C     0.55236   0.10169   0.31517   0.00000  Uiso   1.00
C149   C     0.48461   0.16471   0.29437   0.00000  Uiso   1.00
C150   C     0.48396   0.30040   0.29794   0.00000  Uiso   1.00
C151   C     0.45335   0.51888   0.29384   0.00000  Uiso   1.00
C152   C     0.68501   0.08303   0.35885   0.00000  Uiso   1.00
C153   C     0.68914   0.00945   0.33133   0.00000  Uiso   1.00
C154   C     0.74912   0.00864   0.32872   0.00000  Uiso   1.00
C155   C     0.74200   0.93523   0.30170   0.00000  Uiso   1.00
C156   C     0.66700   0.97957   0.37682   0.00000  Uiso   1.00
C157   C     0.70836   0.95366   0.41245   0.00000  Uiso   1.00
C158   C     0.68260   0.85511   0.42373   0.00000  Uiso   1.00
C159   C     0.61716   0.17171   0.33871   0.00000  Uiso   1.00
C160   C     0.61660   0.30732   0.34232   0.00000  Uiso   1.00
C161   C     0.54887   0.37054   0.32152   0.00000  Uiso   1.00
H162   H     0.51528   0.89961   0.29718   0.00000  Uiso   1.00
H163   H     0.56699   0.81184   0.26255   0.00000  Uiso   1.00
H164   H     0.52623   0.75689   0.34628   0.00000  Uiso   1.00
H165   H     0.43449   0.11050   0.27615   0.00000  Uiso   1.00
H166   H     0.65291   0.74537   0.23455   0.00000  Uiso   1.00
H167   H     0.56695   0.62952   0.41109   0.00000  Uiso   1.00
H168   H     0.37349   0.37518   0.26321   0.00000  Uiso   1.00
H169   H     0.73546   0.13754   0.37718   0.00000  Uiso   1.00
H170   H     0.79926   0.06282   0.34694   0.00000  Uiso   1.00
H171   H     0.75850   0.00786   0.43067   0.00000  Uiso   1.00
H172   H     0.66675   0.36147   0.36054   0.00000  Uiso   1.00
H173   H     0.84143   0.94907   0.30304   0.00000  Uiso   1.00
H174   H     0.75546   0.83322   0.47958   0.00000  Uiso   1.00
H175   H     0.56201   0.57888   0.33171   0.00000  Uiso   1.00
O176   O     0.78517   0.79374   0.24747   0.00000  Uiso   1.00
O177   O     0.67238   0.64177   0.47908   0.00000  Uiso   1.00
O178   O     0.41857   0.62006   0.28507   0.00000  Uiso   1.00
N179   N     0.68851   0.80358   0.25481   0.00000  Uiso   1.00
N180   N     0.60815   0.69526   0.41987   0.00000  Uiso   1.00
N181   N     0.42728   0.39238   0.28162   0.00000  Uiso   1.00
N182   N     0.78995   0.91320   0.29167   0.00000  Uiso   1.00
N183   N     0.70959   0.80487   0.45672   0.00000  Uiso   1.00
N184   N     0.52872   0.50199   0.31848   0.00000  Uiso   1.00
C185   C     0.06572   0.54588   0.81551   0.00000  Uiso   1.00
C186   C     0.12435   0.56056   0.80779   0.00000  Uiso   1.00
C187   C     0.11714   0.63398   0.78076   0.00000  Uiso   1.00
C188   C     0.17709   0.63492   0.77811   0.00000  Uiso   1.00
C189   C     0.25828   0.66842   0.76255   0.00000  Uiso   1.00
C190   C     0.10221   0.59044   0.85328   0.00000  Uiso   1.00
C191   C     0.07638   0.68896   0.86450   0.00000  Uiso   1.00
C192   C     0.11769   0.71503   0.90015   0.00000  Uiso   1.00
C193   C     0.16447   0.79484   0.95521   0.00000  Uiso   1.00
C194   C     0.05236   0.39831   0.81517   0.00000  Uiso   1.00
C195   C     0.98461   0.33529   0.79437   0.00000  Uiso   1.00
C196   C     0.98396   0.19960   0.79794   0.00000  Uiso   1.00
C197   C     0.95335   0.98112   0.79384   0.00000  Uiso   1.00
C198   C     0.18501   0.41697   0.85885   0.00000  Uiso   1.00
C199   C     0.18914   0.49055   0.83133   0.00000  Uiso   1.00
C200   C     0.24912   0.49136   0.82872   0.00000  Uiso   1.00
C201   C     0.24200   0.56477   0.80170   0.00000  Uiso   1.00
C202   C     0.16700   0.52043   0.87682   0.00000  Uiso   1.00
C203   C     0.20836   0.54634   0.91245   0.00000  Uiso   1.00
C204   C     0.18260   0.64489   0.92373   0.00000  Uiso   1.00
C205   C     0.11716   0.32829   0.83871   0.00000  Uiso   1.00
C206   C     0.11660   0.19268   0.84232   0.00000  Uiso   1.00
C207   C     0.04887   0.12946   0.82152   0.00000  Uiso   1.00
H208   H     0.01528   0.60039   0.79718   0.00000  Uiso   1.00
H209   H     0.06699   0.68816   0.76255   0.00000  Uiso   1.00
H210   H     0.02623   0.74311   0.84628   0.00000  Uiso   1.00
H211   H     0.93449   0.38950   0.77615   0.00000  Uiso   1.00
H212   H     0.15291   0.75463   0.73455   0.00000  Uiso   1.00
H213   H     0.06695   0.87048   0.91109   0.00000  Uiso   1.00
H214   H     0.87349   0.12482   0.76321   0.00000  Uiso   1.00
H215   H     0.23546   0.36246   0.87718   0.00000  Uiso   1.00
H216   H     0.29926   0.43718   0.84694   0.00000  Uiso   1.00
H217   H     0.25850   0.49214   0.93067   0.00000  Uiso   1.00
H218   H     0.16675   0.13853   0.86054   0.00000  Uiso   1.00
H219   H     0.34143   0.55093   0.80304   0.00000  Uiso   1.00
H220   H     0.25546   0.66678   0.97958   0.00000  Uiso   1.00
H221   H     0.06201   0.92112   0.83171   0.00000  Uiso   1.00
O222   O     0.28517   0.70626   0.74747   0.00000  Uiso   1.00
O223   O     0.17238   0.85823   0.97908   0.00000  Uiso   1.00
O224   O     0.91857   0.87994   0.78507   0.00000  Uiso   1.00
N225   N     0.18851   0.69642   0.75481   0.00000  Uiso   1.00
N226   N     0.10815   0.80474   0.91987   0.00000  Uiso   1.00
N227   N     0.92728   0.10762   0.78162   0.00000  Uiso   1.00
N228   N     0.28995   0.58680   0.79167   0.00000  Uiso   1.00
N229   N     0.20959   0.69513   0.95672   0.00000  Uiso   1.00
N230   N     0.02872   0.99801   0.81848   0.00000  Uiso   1.00
C231   C     0.56572   0.04588   0.81551   0.00000  Uiso   1.00
C232   C     0.62435   0.06056   0.80779   0.00000  Uiso   1.00
C233   C     0.61714   0.13398   0.78076   0.00000  Uiso   1.00
C234   C     0.67709   0.13492   0.77811   0.00000  Uiso   1.00
C235   C     0.75828   0.16842   0.76255   0.00000  Uiso   1.00
C236   C     0.60221   0.09044   0.85328   0.00000  Uiso   1.00
C237   C     0.57638   0.18896   0.86450   0.00000  Uiso   1.00
C238   C     0.61769   0.21503   0.90015   0.00000  Uiso   1.00
C239   C     0.66447   0.29484   0.95521   0.00000  Uiso   1.00
C240   C     0.55236   0.89831   0.81517   0.00000  Uiso   1.00
C241   C     0.48461   0.83529   0.79437   0.00000  Uiso   1.00
C242   C     0.48396   0.69960   0.79794   0.00000  Uiso   1.00
C243   C     0.45335   0.48112   0.79384   0.00000  Uiso   1.00
C244   C     0.68501   0.91697   0.85885   0.00000  Uiso   1.00
C245   C     0.68914   0.99055   0.83133   0.00000  Uiso   1.00
C246   C     0.74912   0.99136   0.82872   0.00000  Uiso   1.00
C247   C     0.74200   0.06477   0.80170   0.00000  Uiso   1.00
C248   C     0.66700   0.02043   0.87682   0.00000  Uiso   1.00
C249   C     0.70836   0.04634   0.91245   0.00000  Uiso   1.00
C250   C     0.68260   0.14489   0.92373   0.00000  Uiso   1.00
C251   C     0.61716   0.82829   0.83871   0.00000  Uiso   1.00
C252   C     0.61660   0.69268   0.84232   0.00000  Uiso   1.00
C253   C     0.54887   0.62946   0.82152   0.00000  Uiso   1.00
H254   H     0.51528   0.10039   0.79718   0.00000  Uiso   1.00
H255   H     0.56699   0.18816   0.76255   0.00000  Uiso   1.00
H256   H     0.52623   0.24311   0.84628   0.00000  Uiso   1.00
H257   H     0.43449   0.88950   0.77615   0.00000  Uiso   1.00
H258   H     0.65291   0.25463   0.73455   0.00000  Uiso   1.00
H259   H     0.56695   0.37048   0.91109   0.00000  Uiso   1.00
H260   H     0.37349   0.62482   0.76321   0.00000  Uiso   1.00
H261   H     0.73546   0.86246   0.87718   0.00000  Uiso   1.00
H262   H     0.79926   0.93718   0.84694   0.00000  Uiso   1.00
H263   H     0.75850   0.99214   0.93067   0.00000  Uiso   1.00
H264   H     0.66675   0.63853   0.86054   0.00000  Uiso   1.00
H265   H     0.84143   0.05093   0.80304   0.00000  Uiso   1.00
H266   H     0.75546   0.16678   0.97958   0.00000  Uiso   1.00
H267   H     0.56201   0.42112   0.83171   0.00000  Uiso   1.00
O268   O     0.78517   0.20626   0.74747   0.00000  Uiso   1.00
O269   O     0.67238   0.35823   0.97908   0.00000  Uiso   1.00
O270   O     0.41857   0.37994   0.78507   0.00000  Uiso   1.00
N271   N     0.68851   0.19642   0.75481   0.00000  Uiso   1.00
N272   N     0.60815   0.30474   0.91987   0.00000  Uiso   1.00
N273   N     0.42728   0.60762   0.78162   0.00000  Uiso   1.00
N274   N     0.78995   0.08680   0.79167   0.00000  Uiso   1.00
N275   N     0.70959   0.19513   0.95672   0.00000  Uiso   1.00
N276   N     0.52872   0.49801   0.81848   0.00000  Uiso   1.00
C277   C     0.93428   0.54588   0.68449   0.00000  Uiso   1.00
C278   C     0.87565   0.56056   0.69221   0.00000  Uiso   1.00
C279   C     0.88286   0.63398   0.71924   0.00000  Uiso   1.00
C280   C     0.82291   0.63492   0.72189   0.00000  Uiso   1.00
C281   C     0.74172   0.66842   0.73745   0.00000  Uiso   1.00
C282   C     0.89779   0.59044   0.64672   0.00000  Uiso   1.00
C283   C     0.92362   0.68896   0.63550   0.00000  Uiso   1.00
C284   C     0.88231   0.71503   0.59985   0.00000  Uiso   1.00
C285   C     0.83553   0.79484   0.54479   0.00000  Uiso   1.00
C286   C     0.94764   0.39831   0.68483   0.00000  Uiso   1.00
C287   C     0.01539   0.33529   0.70563   0.00000  Uiso   1.00
C288   C     0.01604   0.19960   0.70206   0.00000  Uiso   1.00
C289   C     0.04665   0.98112   0.70616   0.00000  Uiso   1.00
C290   C     0.81499   0.41697   0.64115   0.00000  Uiso   1.00
C291   C     0.81086   0.49055   0.66867   0.00000  Uiso   1.00
C292   C     0.75088   0.49136   0.67128   0.00000  Uiso   1.00
C293   C     0.75800   0.56477   0.69830   0.00000  Uiso   1.00
C294   C     0.83300   0.52043   0.62318   0.00000  Uiso   1.00
C295   C     0.79164   0.54634   0.58755   0.00000  Uiso   1.00
C296   C     0.81740   0.64489   0.57627   0.00000  Uiso   1.00
C297   C     0.88284   0.32829   0.66129   0.00000  Uiso   1.00
C298   C     0.88340   0.19268   0.65768   0.00000  Uiso   1.00
C299   C     0.95113   0.12946   0.67848   0.00000  Uiso   1.00
H300   H     0.98472   0.60039   0.70282   0.00000  Uiso   1.00
H301   H     0.93301   0.68816   0.73745   0.00000  Uiso   1.00
H302   H     0.97377   0.74311   0.65372   0.00000  Uiso   1.00
H303   H     0.06551   0.38950   0.72385   0.00000  Uiso   1.00
H304   H     0.84709   0.75463   0.76545   0.00000  Uiso   1.00
H305   H     0.93305   0.87048   0.58891   0.00000  Uiso   1.00
H306   H     0.12651   0.12482   0.73679   0.00000  Uiso   1.00
H307   H     0.76454   0.36246   0.62282   0.00000  Uiso   1.00
H308   H     0.70074   0.43718   0.65306   0.00000  Uiso   1.00
H309   H     0.74150   0.49214   0.56933   0.00000  Uiso   1.00
H310   H     0.83325   0.13853   0.63946   0.00000  Uiso   1.00
H311   H     0.65857   0.55093   0.69696   0.00000  Uiso   1.00
H312   H     0.74454   0.66678   0.52042   0.00000  Uiso   1.00
H313   H     0.93799   0.92112   0.66829   0.00000  Uiso   1.00
O314   O     0.71483   0.70626   0.75253   0.00000  Uiso   1.00
O315   O     0.82762   0.85823   0.52092   0.00000  Uiso   1.00
O316   O     0.08143   0.87994   0.71493   0.00000  Uiso   1.00
N317   N     0.81149   0.69642   0.74519   0.00000  Uiso   1.00
N318   N     0.89185   0.80474   0.58013   0.00000  Uiso   1.00
N319   N     0.07272   0.10762   0.71838   0.00000  Uiso   1.00
N320   N     0.71005   0.58680   0.70833   0.00000  Uiso   1.00
N321   N     0.79041   0.69513   0.54328   0.00000  Uiso   1.00
N322   N     0.97128   0.99801   0.68152   0.00000  Uiso   1.00
C323   C     0.43428   0.04588   0.68449   0.00000  Uiso   1.00
C324   C     0.37565   0.06056   0.69221   0.00000  Uiso   1.00
C325   C     0.38286   0.13398   0.71924   0.00000  Uiso   1.00
C326   C     0.32291   0.13492   0.72189   0.00000  Uiso   1.00
C327   C     0.24172   0.16842   0.73745   0.00000  Uiso   1.00
C328   C     0.39779   0.09044   0.64672   0.00000  Uiso   1.00
C329   C     0.42362   0.18896   0.63550   0.00000  Uiso   1.00
C330   C     0.38231   0.21503   0.59985   0.00000  Uiso   1.00
C331   C     0.33553   0.29484   0.54479   0.00000  Uiso   1.00
C332   C     0.44764   0.89831   0.68483   0.00000  Uiso   1.00
C333   C     0.51539   0.83529   0.70563   0.00000  Uiso   1.00
C334   C     0.51604   0.69960   0.70206   0.00000  Uiso   1.00
C335   C     0.54665   0.48112   0.70616   0.00000  Uiso   1.00
C336   C     0.31499   0.91697   0.64115   0.00000  Uiso   1.00
C337   C     0.31086   0.99055   0.66867   0.00000  Uiso   1.00
C338   C     0.25088   0.99136   0.67128   0.00000  Uiso   1.00
C339   C     0.25800   0.06477   0.69830   0.00000  Uiso   1.00
C340   C     0.33300   0.02043   0.62318   0.00000  Uiso   1.00
C341   C     0.29164   0.04634   0.58755   0.00000  Uiso   1.00
C342   C     0.31740   0.14489   0.57627   0.00000  Uiso   1.00
C343   C     0.38284   0.82829   0.66129   0.00000  Uiso   1.00
C344   C     0.38340   0.69268   0.65768   0.00000  Uiso   1.00
C345   C     0.45113   0.62946   0.67848   0.00000  Uiso   1.00
H346   H     0.48472   0.10039   0.70282   0.00000  Uiso   1.00
H347   H     0.43301   0.18816   0.73745   0.00000  Uiso   1.00
H348   H     0.47377   0.24311   0.65372   0.00000  Uiso   1.00
H349   H     0.56551   0.88950   0.72385   0.00000  Uiso   1.00
H350   H     0.34709   0.25463   0.76545   0.00000  Uiso   1.00
H351   H     0.43305   0.37048   0.58891   0.00000  Uiso   1.00
H352   H     0.62651   0.62482   0.73679   0.00000  Uiso   1.00
H353   H     0.26454   0.86246   0.62282   0.00000  Uiso   1.00
H354   H     0.20074   0.93718   0.65306   0.00000  Uiso   1.00
H355   H     0.24150   0.99214   0.56933   0.00000  Uiso   1.00
H356   H     0.33325   0.63853   0.63946   0.00000  Uiso   1.00
H357   H     0.15857   0.05093   0.69696   0.00000  Uiso   1.00
H358   H     0.24454   0.16678   0.52042   0.00000  Uiso   1.00
H359   H     0.43799   0.42112   0.66829   0.00000  Uiso   1.00
O360   O     0.21483   0.20626   0.75253   0.00000  Uiso   1.00
O361   O     0.32762   0.35823   0.52092   0.00000  Uiso   1.00
O362   O     0.58143   0.37994   0.71493   0.00000  Uiso   1.00
N363   N     0.31149   0.19642   0.74519   0.00000  Uiso   1.00
N364   N     0.39185   0.30474   0.58013   0.00000  Uiso   1.00
N365   N     0.57272   0.60762   0.71838   0.00000  Uiso   1.00
N366   N     0.21005   0.08680   0.70833   0.00000  Uiso   1.00
N367   N     0.29041   0.19513   0.54328   0.00000  Uiso   1.00
N368   N     0.47128   0.49801   0.68152   0.00000  Uiso   1.00
