data_job_01512
_audit_creation_date              2018-12-19
_audit_creation_method            'Materials Studio'
_symmetry_space_group_name_H-M    'P1'
_symmetry_Int_Tables_number       1
_symmetry_cell_setting            triclinic
loop_
_symmetry_equiv_pos_as_xyz
  x,y,z
_cell_length_a                    26.6143
_cell_length_b                    26.6143
_cell_length_c                    7.5236
_cell_angle_alpha                 90.0000
_cell_angle_beta                  90.0000
_cell_angle_gamma                 120.0000
loop_
_atom_site_label
_atom_site_type_symbol
_atom_site_fract_x
_atom_site_fract_y
_atom_site_fract_z
_atom_site_U_iso_or_equiv
_atom_site_adp_type
_atom_site_occupancy
C1     C     0.76565   0.68727   0.17951   0.00000  Uiso   1.00
C2     C     0.78679   0.67383   0.00724   0.00000  Uiso   1.00
C3     C     0.82315   0.65061   0.99456   0.00000  Uiso   1.00
C4     C     0.83747   0.64154   0.82475   0.00000  Uiso   1.00
C5     C     0.87355   0.61862   0.58031   0.00000  Uiso   1.00
C6     C     0.78371   0.75136   0.17017   0.00000  Uiso   1.00
C7     C     0.81749   0.79332   0.29450   0.00000  Uiso   1.00
C8     C     0.82921   0.84951   0.26184   0.00000  Uiso   1.00
C9     C     0.86048   0.94694   0.27042   0.00000  Uiso   1.00
C10    C     0.69957   0.65389   0.16992   0.00000  Uiso   1.00
C11    C     0.66259   0.61390   0.29406   0.00000  Uiso   1.00
C12    C     0.60346   0.58804   0.26121   0.00000  Uiso   1.00
C13    C     0.50409   0.53414   0.26940   0.00000  Uiso   1.00
C14    C     0.72641   0.71246   0.90048   0.00000  Uiso   1.00
C15    C     0.76547   0.68751   0.85568   0.00000  Uiso   1.00
C16    C     0.77973   0.67847   0.68584   0.00000  Uiso   1.00
C17    C     0.81611   0.65524   0.67292   0.00000  Uiso   1.00
C18    C     0.76240   0.76504   0.01861   0.00000  Uiso   1.00
C19    C     0.77407   0.82118   0.98578   0.00000  Uiso   1.00
C20    C     0.80785   0.86322   0.11001   0.00000  Uiso   1.00
C21    C     0.67825   0.66757   0.01835   0.00000  Uiso   1.00
C22    C     0.61917   0.64177   0.98533   0.00000  Uiso   1.00
C23    C     0.58211   0.60175   0.10938   0.00000  Uiso   1.00
H24    H     0.78225   0.67662   0.29751   0.00000  Uiso   1.00
H25    H     0.83964   0.64003   0.11189   0.00000  Uiso   1.00
H26    H     0.83397   0.78271   0.41178   0.00000  Uiso   1.00
H27    H     0.67910   0.60333   0.41132   0.00000  Uiso   1.00
H28    H     0.89389   0.60552   0.83925   0.00000  Uiso   1.00
H29    H     0.88192   0.90637   0.47161   0.00000  Uiso   1.00
H30    H     0.55534   0.52810   0.47067   0.00000  Uiso   1.00
H31    H     0.70981   0.72311   0.78248   0.00000  Uiso   1.00
H32    H     0.76323   0.68907   0.56858   0.00000  Uiso   1.00
H33    H     0.75756   0.83175   0.86848   0.00000  Uiso   1.00
H34    H     0.60269   0.65237   0.86803   0.00000  Uiso   1.00
H35    H     0.83188   0.64532   0.39828   0.00000  Uiso   1.00
H36    H     0.81990   0.94617   0.03066   0.00000  Uiso   1.00
H37    H     0.49333   0.56790   0.02970   0.00000  Uiso   1.00
O38    O     0.89935   0.60220   0.48735   0.00000  Uiso   1.00
O39    O     0.88363   0.99690   0.31701   0.00000  Uiso   1.00
O40    O     0.45517   0.50062   0.31576   0.00000  Uiso   1.00
N41    N     0.87195   0.61954   0.76482   0.00000  Uiso   1.00
N42    N     0.86077   0.90083   0.35603   0.00000  Uiso   1.00
N43    N     0.55545   0.54718   0.35517   0.00000  Uiso   1.00
N44    N     0.83858   0.64096   0.52754   0.00000  Uiso   1.00
N45    N     0.82740   0.92224   0.11875   0.00000  Uiso   1.00
N46    N     0.52208   0.56860   0.11789   0.00000  Uiso   1.00
C47    C     0.31273   0.07838   0.17951   0.00000  Uiso   1.00
C48    C     0.32617   0.11296   0.00724   0.00000  Uiso   1.00
C49    C     0.34939   0.17254   0.99456   0.00000  Uiso   1.00
C50    C     0.35846   0.19593   0.82475   0.00000  Uiso   1.00
C51    C     0.38138   0.25493   0.58031   0.00000  Uiso   1.00
C52    C     0.24864   0.03236   0.17017   0.00000  Uiso   1.00
C53    C     0.20668   0.02417   0.29450   0.00000  Uiso   1.00
C54    C     0.15049   0.97970   0.26184   0.00000  Uiso   1.00
C55    C     0.05306   0.91354   0.27042   0.00000  Uiso   1.00
C56    C     0.34611   0.04568   0.16992   0.00000  Uiso   1.00
C57    C     0.38610   0.04869   0.29406   0.00000  Uiso   1.00
C58    C     0.41196   0.01542   0.26121   0.00000  Uiso   1.00
C59    C     0.46586   0.96996   0.26940   0.00000  Uiso   1.00
C60    C     0.28754   0.01395   0.90048   0.00000  Uiso   1.00
C61    C     0.31249   0.07796   0.85568   0.00000  Uiso   1.00
C62    C     0.32153   0.10126   0.68584   0.00000  Uiso   1.00
C63    C     0.34476   0.16087   0.67292   0.00000  Uiso   1.00
C64    C     0.23496   0.99736   0.01861   0.00000  Uiso   1.00
C65    C     0.17882   0.95289   0.98578   0.00000  Uiso   1.00
C66    C     0.13678   0.94464   0.11001   0.00000  Uiso   1.00
C67    C     0.33243   0.01068   0.01835   0.00000  Uiso   1.00
C68    C     0.35823   0.97740   0.98533   0.00000  Uiso   1.00
C69    C     0.39825   0.98036   0.10938   0.00000  Uiso   1.00
H70    H     0.32338   0.10563   0.29751   0.00000  Uiso   1.00
H71    H     0.35997   0.19961   0.11189   0.00000  Uiso   1.00
H72    H     0.21729   0.05126   0.41178   0.00000  Uiso   1.00
H73    H     0.39667   0.07577   0.41132   0.00000  Uiso   1.00
H74    H     0.39448   0.28837   0.83925   0.00000  Uiso   1.00
H75    H     0.09363   0.97555   0.47161   0.00000  Uiso   1.00
H76    H     0.47190   0.02724   0.47067   0.00000  Uiso   1.00
H77    H     0.27689   0.98670   0.78248   0.00000  Uiso   1.00
H78    H     0.31093   0.07416   0.56858   0.00000  Uiso   1.00
H79    H     0.16825   0.92581   0.86848   0.00000  Uiso   1.00
H80    H     0.34763   0.95033   0.86803   0.00000  Uiso   1.00
H81    H     0.35468   0.18656   0.39828   0.00000  Uiso   1.00
H82    H     0.05383   0.87373   0.03066   0.00000  Uiso   1.00
H83    H     0.43210   0.92543   0.02970   0.00000  Uiso   1.00
O84    O     0.39780   0.29714   0.48735   0.00000  Uiso   1.00
O85    O     0.00310   0.88672   0.31701   0.00000  Uiso   1.00
O86    O     0.49938   0.95455   0.31576   0.00000  Uiso   1.00
N87    N     0.38046   0.25241   0.76482   0.00000  Uiso   1.00
N88    N     0.09917   0.95994   0.35603   0.00000  Uiso   1.00
N89    N     0.45282   0.00826   0.35517   0.00000  Uiso   1.00
N90    N     0.35904   0.19762   0.52754   0.00000  Uiso   1.00
N91    N     0.07776   0.90516   0.11875   0.00000  Uiso   1.00
N92    N     0.43140   0.95348   0.11789   0.00000  Uiso   1.00
C93    C     0.92162   0.23435   0.17951   0.00000  Uiso   1.00
C94    C     0.88704   0.21321   0.00724   0.00000  Uiso   1.00
C95    C     0.82746   0.17685   0.99456   0.00000  Uiso   1.00
C96    C     0.80407   0.16253   0.82475   0.00000  Uiso   1.00
C97    C     0.74507   0.12645   0.58031   0.00000  Uiso   1.00
C98    C     0.96764   0.21629   0.17017   0.00000  Uiso   1.00
C99    C     0.97583   0.18251   0.29450   0.00000  Uiso   1.00
C100   C     0.02030   0.17079   0.26184   0.00000  Uiso   1.00
C101   C     0.08646   0.13952   0.27042   0.00000  Uiso   1.00
C102   C     0.95432   0.30043   0.16992   0.00000  Uiso   1.00
C103   C     0.95131   0.33741   0.29406   0.00000  Uiso   1.00
C104   C     0.98458   0.39654   0.26121   0.00000  Uiso   1.00
C105   C     0.03004   0.49591   0.26940   0.00000  Uiso   1.00
C106   C     0.98605   0.27359   0.90048   0.00000  Uiso   1.00
C107   C     0.92204   0.23453   0.85568   0.00000  Uiso   1.00
C108   C     0.89874   0.22027   0.68584   0.00000  Uiso   1.00
C109   C     0.83913   0.18389   0.67292   0.00000  Uiso   1.00
C110   C     0.00264   0.23760   0.01861   0.00000  Uiso   1.00
C111   C     0.04711   0.22593   0.98578   0.00000  Uiso   1.00
C112   C     0.05536   0.19215   0.11001   0.00000  Uiso   1.00
C113   C     0.98932   0.32175   0.01835   0.00000  Uiso   1.00
C114   C     0.02260   0.38083   0.98533   0.00000  Uiso   1.00
C115   C     0.01964   0.41789   0.10938   0.00000  Uiso   1.00
H116   H     0.89437   0.21775   0.29751   0.00000  Uiso   1.00
H117   H     0.80039   0.16036   0.11189   0.00000  Uiso   1.00
H118   H     0.94874   0.16603   0.41178   0.00000  Uiso   1.00
H119   H     0.92423   0.32090   0.41132   0.00000  Uiso   1.00
H120   H     0.71163   0.10611   0.83925   0.00000  Uiso   1.00
H121   H     0.02445   0.11808   0.47161   0.00000  Uiso   1.00
H122   H     0.97276   0.44466   0.47067   0.00000  Uiso   1.00
H123   H     0.01330   0.29019   0.78248   0.00000  Uiso   1.00
H124   H     0.92584   0.23677   0.56858   0.00000  Uiso   1.00
H125   H     0.07419   0.24244   0.86848   0.00000  Uiso   1.00
H126   H     0.04967   0.39731   0.86803   0.00000  Uiso   1.00
H127   H     0.81344   0.16812   0.39828   0.00000  Uiso   1.00
H128   H     0.12627   0.18010   0.03066   0.00000  Uiso   1.00
H129   H     0.07457   0.50667   0.02970   0.00000  Uiso   1.00
O130   O     0.70286   0.10065   0.48735   0.00000  Uiso   1.00
O131   O     0.11328   0.11637   0.31701   0.00000  Uiso   1.00
O132   O     0.04545   0.54483   0.31576   0.00000  Uiso   1.00
N133   N     0.74759   0.12805   0.76482   0.00000  Uiso   1.00
N134   N     0.04006   0.13923   0.35603   0.00000  Uiso   1.00
N135   N     0.99174   0.44455   0.35517   0.00000  Uiso   1.00
N136   N     0.80238   0.16142   0.52754   0.00000  Uiso   1.00
N137   N     0.09484   0.17260   0.11875   0.00000  Uiso   1.00
N138   N     0.04652   0.47792   0.11789   0.00000  Uiso   1.00
C139   C     0.23435   0.31273   0.82049   0.00000  Uiso   1.00
C140   C     0.21321   0.32617   0.99276   0.00000  Uiso   1.00
C141   C     0.17685   0.34939   0.00544   0.00000  Uiso   1.00
C142   C     0.16253   0.35846   0.17525   0.00000  Uiso   1.00
C143   C     0.12645   0.38138   0.41969   0.00000  Uiso   1.00
C144   C     0.21629   0.24864   0.82983   0.00000  Uiso   1.00
C145   C     0.18251   0.20668   0.70550   0.00000  Uiso   1.00
C146   C     0.17079   0.15049   0.73816   0.00000  Uiso   1.00
C147   C     0.13952   0.05306   0.72958   0.00000  Uiso   1.00
C148   C     0.30043   0.34611   0.83008   0.00000  Uiso   1.00
C149   C     0.33741   0.38610   0.70594   0.00000  Uiso   1.00
C150   C     0.39654   0.41196   0.73879   0.00000  Uiso   1.00
C151   C     0.49591   0.46586   0.73060   0.00000  Uiso   1.00
C152   C     0.27359   0.28754   0.09952   0.00000  Uiso   1.00
C153   C     0.23453   0.31249   0.14432   0.00000  Uiso   1.00
C154   C     0.22027   0.32153   0.31416   0.00000  Uiso   1.00
C155   C     0.18389   0.34476   0.32708   0.00000  Uiso   1.00
C156   C     0.23760   0.23496   0.98139   0.00000  Uiso   1.00
C157   C     0.22593   0.17882   0.01422   0.00000  Uiso   1.00
C158   C     0.19215   0.13678   0.88999   0.00000  Uiso   1.00
C159   C     0.32175   0.33243   0.98165   0.00000  Uiso   1.00
C160   C     0.38083   0.35823   0.01467   0.00000  Uiso   1.00
C161   C     0.41789   0.39825   0.89062   0.00000  Uiso   1.00
H162   H     0.21775   0.32338   0.70249   0.00000  Uiso   1.00
H163   H     0.16036   0.35997   0.88811   0.00000  Uiso   1.00
H164   H     0.16603   0.21729   0.58822   0.00000  Uiso   1.00
H165   H     0.32090   0.39667   0.58868   0.00000  Uiso   1.00
H166   H     0.10611   0.39448   0.16075   0.00000  Uiso   1.00
H167   H     0.11808   0.09363   0.52839   0.00000  Uiso   1.00
H168   H     0.44466   0.47190   0.52933   0.00000  Uiso   1.00
H169   H     0.29019   0.27689   0.21752   0.00000  Uiso   1.00
H170   H     0.23677   0.31093   0.43142   0.00000  Uiso   1.00
H171   H     0.24244   0.16825   0.13152   0.00000  Uiso   1.00
H172   H     0.39731   0.34763   0.13197   0.00000  Uiso   1.00
H173   H     0.16812   0.35468   0.60172   0.00000  Uiso   1.00
H174   H     0.18010   0.05383   0.96934   0.00000  Uiso   1.00
H175   H     0.50667   0.43210   0.97030   0.00000  Uiso   1.00
O176   O     0.10065   0.39780   0.51265   0.00000  Uiso   1.00
O177   O     0.11637   0.00310   0.68299   0.00000  Uiso   1.00
O178   O     0.54483   0.49938   0.68424   0.00000  Uiso   1.00
N179   N     0.12805   0.38046   0.23518   0.00000  Uiso   1.00
N180   N     0.13923   0.09917   0.64397   0.00000  Uiso   1.00
N181   N     0.44455   0.45282   0.64483   0.00000  Uiso   1.00
N182   N     0.16142   0.35904   0.47246   0.00000  Uiso   1.00
N183   N     0.17260   0.07776   0.88125   0.00000  Uiso   1.00
N184   N     0.47792   0.43140   0.88211   0.00000  Uiso   1.00
C185   C     0.68727   0.92162   0.82049   0.00000  Uiso   1.00
C186   C     0.67383   0.88704   0.99276   0.00000  Uiso   1.00
C187   C     0.65061   0.82746   0.00544   0.00000  Uiso   1.00
C188   C     0.64154   0.80407   0.17525   0.00000  Uiso   1.00
C189   C     0.61862   0.74507   0.41969   0.00000  Uiso   1.00
C190   C     0.75136   0.96764   0.82983   0.00000  Uiso   1.00
C191   C     0.79332   0.97583   0.70550   0.00000  Uiso   1.00
C192   C     0.84951   0.02030   0.73816   0.00000  Uiso   1.00
C193   C     0.94694   0.08646   0.72958   0.00000  Uiso   1.00
C194   C     0.65389   0.95432   0.83008   0.00000  Uiso   1.00
C195   C     0.61390   0.95131   0.70594   0.00000  Uiso   1.00
C196   C     0.58804   0.98458   0.73879   0.00000  Uiso   1.00
C197   C     0.53414   0.03004   0.73060   0.00000  Uiso   1.00
C198   C     0.71246   0.98605   0.09952   0.00000  Uiso   1.00
C199   C     0.68751   0.92204   0.14432   0.00000  Uiso   1.00
C200   C     0.67847   0.89874   0.31416   0.00000  Uiso   1.00
C201   C     0.65524   0.83913   0.32708   0.00000  Uiso   1.00
C202   C     0.76504   0.00264   0.98139   0.00000  Uiso   1.00
C203   C     0.82118   0.04711   0.01422   0.00000  Uiso   1.00
C204   C     0.86322   0.05536   0.88999   0.00000  Uiso   1.00
C205   C     0.66757   0.98932   0.98165   0.00000  Uiso   1.00
C206   C     0.64177   0.02260   0.01467   0.00000  Uiso   1.00
C207   C     0.60175   0.01964   0.89062   0.00000  Uiso   1.00
H208   H     0.67662   0.89437   0.70249   0.00000  Uiso   1.00
H209   H     0.64003   0.80039   0.88811   0.00000  Uiso   1.00
H210   H     0.78271   0.94874   0.58822   0.00000  Uiso   1.00
H211   H     0.60333   0.92423   0.58868   0.00000  Uiso   1.00
H212   H     0.60552   0.71163   0.16075   0.00000  Uiso   1.00
H213   H     0.90637   0.02445   0.52839   0.00000  Uiso   1.00
H214   H     0.52810   0.97276   0.52933   0.00000  Uiso   1.00
H215   H     0.72311   0.01330   0.21752   0.00000  Uiso   1.00
H216   H     0.68907   0.92584   0.43142   0.00000  Uiso   1.00
H217   H     0.83175   0.07419   0.13152   0.00000  Uiso   1.00
H218   H     0.65237   0.04967   0.13197   0.00000  Uiso   1.00
H219   H     0.64532   0.81344   0.60172   0.00000  Uiso   1.00
H220   H     0.94617   0.12627   0.96934   0.00000  Uiso   1.00
H221   H     0.56790   0.07457   0.97030   0.00000  Uiso   1.00
O222   O     0.60220   0.70286   0.51265   0.00000  Uiso   1.00
O223   O     0.99690   0.11328   0.68299   0.00000  Uiso   1.00
O224   O     0.50062   0.04545   0.68424   0.00000  Uiso   1.00
N225   N     0.61954   0.74759   0.23518   0.00000  Uiso   1.00
N226   N     0.90083   0.04006   0.64397   0.00000  Uiso   1.00
N227   N     0.54718   0.99174   0.64483   0.00000  Uiso   1.00
N228   N     0.64096   0.80238   0.47246   0.00000  Uiso   1.00
N229   N     0.92224   0.09484   0.88125   0.00000  Uiso   1.00
N230   N     0.56860   0.04652   0.88211   0.00000  Uiso   1.00
C231   C     0.07838   0.76565   0.82049   0.00000  Uiso   1.00
C232   C     0.11296   0.78679   0.99276   0.00000  Uiso   1.00
C233   C     0.17254   0.82315   0.00544   0.00000  Uiso   1.00
C234   C     0.19593   0.83747   0.17525   0.00000  Uiso   1.00
C235   C     0.25493   0.87355   0.41969   0.00000  Uiso   1.00
C236   C     0.03236   0.78371   0.82983   0.00000  Uiso   1.00
C237   C     0.02417   0.81749   0.70550   0.00000  Uiso   1.00
C238   C     0.97970   0.82921   0.73816   0.00000  Uiso   1.00
C239   C     0.91354   0.86048   0.72958   0.00000  Uiso   1.00
C240   C     0.04568   0.69957   0.83008   0.00000  Uiso   1.00
C241   C     0.04869   0.66259   0.70594   0.00000  Uiso   1.00
C242   C     0.01542   0.60346   0.73879   0.00000  Uiso   1.00
C243   C     0.96996   0.50409   0.73060   0.00000  Uiso   1.00
C244   C     0.01395   0.72641   0.09952   0.00000  Uiso   1.00
C245   C     0.07796   0.76547   0.14432   0.00000  Uiso   1.00
C246   C     0.10126   0.77973   0.31416   0.00000  Uiso   1.00
C247   C     0.16087   0.81611   0.32708   0.00000  Uiso   1.00
C248   C     0.99736   0.76240   0.98139   0.00000  Uiso   1.00
C249   C     0.95289   0.77407   0.01422   0.00000  Uiso   1.00
C250   C     0.94464   0.80785   0.88999   0.00000  Uiso   1.00
C251   C     0.01068   0.67825   0.98165   0.00000  Uiso   1.00
C252   C     0.97740   0.61917   0.01467   0.00000  Uiso   1.00
C253   C     0.98036   0.58211   0.89062   0.00000  Uiso   1.00
H254   H     0.10563   0.78225   0.70249   0.00000  Uiso   1.00
H255   H     0.19961   0.83964   0.88811   0.00000  Uiso   1.00
H256   H     0.05126   0.83397   0.58822   0.00000  Uiso   1.00
H257   H     0.07577   0.67910   0.58868   0.00000  Uiso   1.00
H258   H     0.28837   0.89389   0.16075   0.00000  Uiso   1.00
H259   H     0.97555   0.88192   0.52839   0.00000  Uiso   1.00
H260   H     0.02724   0.55534   0.52933   0.00000  Uiso   1.00
H261   H     0.98670   0.70981   0.21752   0.00000  Uiso   1.00
H262   H     0.07416   0.76323   0.43142   0.00000  Uiso   1.00
H263   H     0.92581   0.75756   0.13152   0.00000  Uiso   1.00
H264   H     0.95033   0.60269   0.13197   0.00000  Uiso   1.00
H265   H     0.18656   0.83188   0.60172   0.00000  Uiso   1.00
H266   H     0.87373   0.81990   0.96934   0.00000  Uiso   1.00
H267   H     0.92543   0.49333   0.97030   0.00000  Uiso   1.00
O268   O     0.29714   0.89935   0.51265   0.00000  Uiso   1.00
O269   O     0.88672   0.88363   0.68299   0.00000  Uiso   1.00
O270   O     0.95455   0.45517   0.68424   0.00000  Uiso   1.00
N271   N     0.25241   0.87195   0.23518   0.00000  Uiso   1.00
N272   N     0.95994   0.86077   0.64397   0.00000  Uiso   1.00
N273   N     0.00826   0.55545   0.64483   0.00000  Uiso   1.00
N274   N     0.19762   0.83858   0.47246   0.00000  Uiso   1.00
N275   N     0.90516   0.82740   0.88125   0.00000  Uiso   1.00
N276   N     0.95348   0.52208   0.88211   0.00000  Uiso   1.00
