data_job_00292
_audit_creation_date              2018-12-19
_audit_creation_method            'Materials Studio'
_symmetry_space_group_name_H-M    'P1'
_symmetry_Int_Tables_number       1
_symmetry_cell_setting            triclinic
loop_
_symmetry_equiv_pos_as_xyz
  x,y,z
_cell_length_a                    12.5364
_cell_length_b                    14.2100
_cell_length_c                    22.3049
_cell_angle_alpha                 90.0000
_cell_angle_beta                  143.7824
_cell_angle_gamma                 90.0000
loop_
_atom_site_label
_atom_site_type_symbol
_atom_site_fract_x
_atom_site_fract_y
_atom_site_fract_z
_atom_site_U_iso_or_equiv
_atom_site_adp_type
_atom_site_occupancy
C1     C     0.27770   0.32784   0.05787   0.00000  Uiso   1.00
C2     C     0.37135   0.27569   0.04931   0.00000  Uiso   1.00
C3     C     0.54997   0.24622   0.12999   0.00000  Uiso   1.00
C4     C     0.61009   0.19965   0.10631   0.00000  Uiso   1.00
C5     C     0.77295   0.12123   0.10835   0.00000  Uiso   1.00
C6     C     0.20379   0.41842   0.99712   0.00000  Uiso   1.00
C7     C     0.24151   0.50895   0.03393   0.00000  Uiso   1.00
C8     C     0.16055   0.58251   0.96630   0.00000  Uiso   1.00
C9     C     0.06316   0.72567   0.88730   0.00000  Uiso   1.00
C10    C     0.11348   0.26863   0.00004   0.00000  Uiso   1.00
C11    C     0.07523   0.23324   0.03928   0.00000  Uiso   1.00
C12    C     0.91822   0.18071   0.97410   0.00000  Uiso   1.00
C13    C     0.68061   0.09130   0.89962   0.00000  Uiso   1.00
C14    C     0.06684   0.29751   0.87234   0.00000  Uiso   1.00
C15    C     0.25681   0.25922   0.94854   0.00000  Uiso   1.00
C16    C     0.31668   0.21267   0.92473   0.00000  Uiso   1.00
C17    C     0.49536   0.18314   0.00536   0.00000  Uiso   1.00
C18    C     0.08926   0.40195   0.89635   0.00000  Uiso   1.00
C19    C     0.00822   0.47539   0.82866   0.00000  Uiso   1.00
C20    C     0.04581   0.56601   0.86535   0.00000  Uiso   1.00
C21    C     0.99895   0.25215   0.89926   0.00000  Uiso   1.00
C22    C     0.84195   0.19968   0.83401   0.00000  Uiso   1.00
C23    C     0.80348   0.16421   0.87315   0.00000  Uiso   1.00
H24    H     0.36687   0.34067   0.13632   0.00000  Uiso   1.00
H25    H     0.63857   0.25900   0.20797   0.00000  Uiso   1.00
H26    H     0.33013   0.52167   0.11191   0.00000  Uiso   1.00
H27    H     0.16389   0.24600   0.11726   0.00000  Uiso   1.00
H28    H     0.88931   0.16121   0.24296   0.00000  Uiso   1.00
H29    H     0.23890   0.71508   0.04041   0.00000  Uiso   1.00
H30    H     0.88836   0.13377   0.05169   0.00000  Uiso   1.00
H31    H     0.97767   0.28468   0.79388   0.00000  Uiso   1.00
H32    H     0.22802   0.19993   0.84673   0.00000  Uiso   1.00
H33    H     0.91958   0.46262   0.75068   0.00000  Uiso   1.00
H34    H     0.75335   0.18694   0.75603   0.00000  Uiso   1.00
H35    H     0.55609   0.11328   0.94977   0.00000  Uiso   1.00
H36    H     0.90568   0.66716   0.74721   0.00000  Uiso   1.00
H37    H     0.55515   0.08584   0.75850   0.00000  Uiso   1.00
O38    O     0.89442   0.08253   0.13731   0.00000  Uiso   1.00
O39    O     0.04110   0.80919   0.87157   0.00000  Uiso   1.00
O40    O     0.58120   0.04652   0.88638   0.00000  Uiso   1.00
N41    N     0.77652   0.16154   0.16670   0.00000  Uiso   1.00
N42    N     0.16845   0.67939   0.97733   0.00000  Uiso   1.00
N43    N     0.84070   0.13593   0.98788   0.00000  Uiso   1.00
N44    N     0.59722   0.13575   0.00894   0.00000  Uiso   1.00
N45    N     0.98915   0.65359   0.81957   0.00000  Uiso   1.00
N46    N     0.66140   0.11013   0.83012   0.00000  Uiso   1.00
C47    C     0.70170   0.22206   0.43713   0.00000  Uiso   1.00
C48    C     0.60679   0.17207   0.44572   0.00000  Uiso   1.00
C49    C     0.42704   0.14455   0.36508   0.00000  Uiso   1.00
C50    C     0.36586   0.09976   0.38879   0.00000  Uiso   1.00
C51    C     0.20103   0.02470   0.38682   0.00000  Uiso   1.00
C52    C     0.77961   0.31241   0.49875   0.00000  Uiso   1.00
C53    C     0.74519   0.40289   0.46269   0.00000  Uiso   1.00
C54    C     0.82952   0.47624   0.53105   0.00000  Uiso   1.00
C55    C     0.93311   0.61907   0.61142   0.00000  Uiso   1.00
C56    C     0.86328   0.16073   0.49404   0.00000  Uiso   1.00
C57    C     0.89925   0.12369   0.45403   0.00000  Uiso   1.00
C58    C     0.05405   0.06935   0.51842   0.00000  Uiso   1.00
C59    C     0.28755   0.97667   0.59147   0.00000  Uiso   1.00
C60    C     0.91269   0.19144   0.62264   0.00000  Uiso   1.00
C61    C     0.72139   0.15544   0.54649   0.00000  Uiso   1.00
C62    C     0.66047   0.11067   0.57033   0.00000  Uiso   1.00
C63    C     0.48067   0.08309   0.48974   0.00000  Uiso   1.00
C64    C     0.89421   0.29578   0.59951   0.00000  Uiso   1.00
C65    C     0.97862   0.36901   0.66794   0.00000  Uiso   1.00
C66    C     0.94433   0.45958   0.63200   0.00000  Uiso   1.00
C67    C     0.97788   0.14409   0.59480   0.00000  Uiso   1.00
C68    C     0.13267   0.08981   0.65928   0.00000  Uiso   1.00
C69    C     0.16886   0.05269   0.61937   0.00000  Uiso   1.00
H70    H     0.61249   0.23502   0.35868   0.00000  Uiso   1.00
H71    H     0.33839   0.15744   0.28711   0.00000  Uiso   1.00
H72    H     0.65651   0.41574   0.38472   0.00000  Uiso   1.00
H73    H     0.81054   0.13658   0.37605   0.00000  Uiso   1.00
H74    H     0.08504   0.06413   0.25220   0.00000  Uiso   1.00
H75    H     0.75585   0.60877   0.45801   0.00000  Uiso   1.00
H76    H     0.08065   0.02010   0.43973   0.00000  Uiso   1.00
H77    H     0.00191   0.17849   0.70110   0.00000  Uiso   1.00
H78    H     0.74919   0.09781   0.64832   0.00000  Uiso   1.00
H79    H     0.06730   0.35611   0.74592   0.00000  Uiso   1.00
H80    H     0.22132   0.07695   0.73725   0.00000  Uiso   1.00
H81    H     0.41845   0.01573   0.54537   0.00000  Uiso   1.00
H82    H     0.08927   0.56037   0.75118   0.00000  Uiso   1.00
H83    H     0.41406   0.97171   0.73290   0.00000  Uiso   1.00
O84    O     0.07845   0.98791   0.35789   0.00000  Uiso   1.00
O85    O     0.95856   0.70245   0.62791   0.00000  Uiso   1.00
O86    O     0.38467   0.93013   0.60392   0.00000  Uiso   1.00
N87    N     0.19820   0.06380   0.32844   0.00000  Uiso   1.00
N88    N     0.82535   0.57300   0.52086   0.00000  Uiso   1.00
N89    N     0.12903   0.02267   0.50377   0.00000  Uiso   1.00
N90    N     0.37761   0.03775   0.48619   0.00000  Uiso   1.00
N91    N     0.00475   0.54696   0.67861   0.00000  Uiso   1.00
N92    N     0.30843   0.99663   0.66153   0.00000  Uiso   1.00
C93    C     0.27770   0.67216   0.55787   0.00000  Uiso   1.00
C94    C     0.37135   0.72431   0.54931   0.00000  Uiso   1.00
C95    C     0.54997   0.75378   0.62999   0.00000  Uiso   1.00
C96    C     0.61009   0.80035   0.60631   0.00000  Uiso   1.00
C97    C     0.77295   0.87877   0.60835   0.00000  Uiso   1.00
C98    C     0.20379   0.58158   0.49712   0.00000  Uiso   1.00
C99    C     0.24151   0.49105   0.53393   0.00000  Uiso   1.00
C100   C     0.16055   0.41749   0.46630   0.00000  Uiso   1.00
C101   C     0.06316   0.27433   0.38730   0.00000  Uiso   1.00
C102   C     0.11348   0.73137   0.50004   0.00000  Uiso   1.00
C103   C     0.07523   0.76676   0.53928   0.00000  Uiso   1.00
C104   C     0.91822   0.81929   0.47410   0.00000  Uiso   1.00
C105   C     0.68061   0.90870   0.39962   0.00000  Uiso   1.00
C106   C     0.06684   0.70249   0.37234   0.00000  Uiso   1.00
C107   C     0.25681   0.74078   0.44854   0.00000  Uiso   1.00
C108   C     0.31668   0.78733   0.42473   0.00000  Uiso   1.00
C109   C     0.49536   0.81686   0.50536   0.00000  Uiso   1.00
C110   C     0.08926   0.59805   0.39635   0.00000  Uiso   1.00
C111   C     0.00822   0.52461   0.32866   0.00000  Uiso   1.00
C112   C     0.04581   0.43399   0.36535   0.00000  Uiso   1.00
C113   C     0.99895   0.74785   0.39926   0.00000  Uiso   1.00
C114   C     0.84195   0.80032   0.33401   0.00000  Uiso   1.00
C115   C     0.80348   0.83579   0.37315   0.00000  Uiso   1.00
H116   H     0.36687   0.65933   0.63632   0.00000  Uiso   1.00
H117   H     0.63857   0.74100   0.70797   0.00000  Uiso   1.00
H118   H     0.33013   0.47833   0.61191   0.00000  Uiso   1.00
H119   H     0.16389   0.75400   0.61726   0.00000  Uiso   1.00
H120   H     0.88931   0.83879   0.74296   0.00000  Uiso   1.00
H121   H     0.23890   0.28492   0.54041   0.00000  Uiso   1.00
H122   H     0.88836   0.86623   0.55169   0.00000  Uiso   1.00
H123   H     0.97767   0.71532   0.29388   0.00000  Uiso   1.00
H124   H     0.22802   0.80007   0.34673   0.00000  Uiso   1.00
H125   H     0.91958   0.53738   0.25068   0.00000  Uiso   1.00
H126   H     0.75335   0.81306   0.25603   0.00000  Uiso   1.00
H127   H     0.55609   0.88672   0.44977   0.00000  Uiso   1.00
H128   H     0.90568   0.33284   0.24721   0.00000  Uiso   1.00
H129   H     0.55515   0.91416   0.25850   0.00000  Uiso   1.00
O130   O     0.89442   0.91747   0.63731   0.00000  Uiso   1.00
O131   O     0.04110   0.19081   0.37157   0.00000  Uiso   1.00
O132   O     0.58120   0.95348   0.38638   0.00000  Uiso   1.00
N133   N     0.77652   0.83846   0.66670   0.00000  Uiso   1.00
N134   N     0.16845   0.32061   0.47733   0.00000  Uiso   1.00
N135   N     0.84070   0.86407   0.48788   0.00000  Uiso   1.00
N136   N     0.59722   0.86425   0.50894   0.00000  Uiso   1.00
N137   N     0.98915   0.34641   0.31957   0.00000  Uiso   1.00
N138   N     0.66140   0.88987   0.33012   0.00000  Uiso   1.00
C139   C     0.70170   0.77794   0.93713   0.00000  Uiso   1.00
C140   C     0.60679   0.82793   0.94572   0.00000  Uiso   1.00
C141   C     0.42704   0.85545   0.86508   0.00000  Uiso   1.00
C142   C     0.36586   0.90024   0.88879   0.00000  Uiso   1.00
C143   C     0.20103   0.97530   0.88682   0.00000  Uiso   1.00
C144   C     0.77961   0.68759   0.99875   0.00000  Uiso   1.00
C145   C     0.74519   0.59711   0.96269   0.00000  Uiso   1.00
C146   C     0.82952   0.52376   0.03105   0.00000  Uiso   1.00
C147   C     0.93311   0.38093   0.11142   0.00000  Uiso   1.00
C148   C     0.86328   0.83927   0.99404   0.00000  Uiso   1.00
C149   C     0.89925   0.87631   0.95403   0.00000  Uiso   1.00
C150   C     0.05405   0.93065   0.01842   0.00000  Uiso   1.00
C151   C     0.28755   0.02333   0.09147   0.00000  Uiso   1.00
C152   C     0.91269   0.80856   0.12264   0.00000  Uiso   1.00
C153   C     0.72139   0.84456   0.04649   0.00000  Uiso   1.00
C154   C     0.66047   0.88933   0.07033   0.00000  Uiso   1.00
C155   C     0.48067   0.91691   0.98974   0.00000  Uiso   1.00
C156   C     0.89421   0.70422   0.09951   0.00000  Uiso   1.00
C157   C     0.97862   0.63099   0.16794   0.00000  Uiso   1.00
C158   C     0.94433   0.54042   0.13200   0.00000  Uiso   1.00
C159   C     0.97788   0.85591   0.09480   0.00000  Uiso   1.00
C160   C     0.13267   0.91019   0.15928   0.00000  Uiso   1.00
C161   C     0.16886   0.94731   0.11937   0.00000  Uiso   1.00
H162   H     0.61249   0.76498   0.85868   0.00000  Uiso   1.00
H163   H     0.33839   0.84256   0.78711   0.00000  Uiso   1.00
H164   H     0.65651   0.58426   0.88472   0.00000  Uiso   1.00
H165   H     0.81054   0.86342   0.87605   0.00000  Uiso   1.00
H166   H     0.08504   0.93587   0.75220   0.00000  Uiso   1.00
H167   H     0.75585   0.39123   0.95801   0.00000  Uiso   1.00
H168   H     0.08065   0.97990   0.93973   0.00000  Uiso   1.00
H169   H     0.00191   0.82151   0.20110   0.00000  Uiso   1.00
H170   H     0.74919   0.90219   0.14832   0.00000  Uiso   1.00
H171   H     0.06730   0.64389   0.24592   0.00000  Uiso   1.00
H172   H     0.22132   0.92305   0.23725   0.00000  Uiso   1.00
H173   H     0.41845   0.98427   0.04537   0.00000  Uiso   1.00
H174   H     0.08927   0.43963   0.25118   0.00000  Uiso   1.00
H175   H     0.41406   0.02829   0.23290   0.00000  Uiso   1.00
O176   O     0.07845   0.01209   0.85789   0.00000  Uiso   1.00
O177   O     0.95856   0.29755   0.12791   0.00000  Uiso   1.00
O178   O     0.38467   0.06987   0.10392   0.00000  Uiso   1.00
N179   N     0.19820   0.93620   0.82844   0.00000  Uiso   1.00
N180   N     0.82535   0.42700   0.02086   0.00000  Uiso   1.00
N181   N     0.12903   0.97733   0.00377   0.00000  Uiso   1.00
N182   N     0.37761   0.96225   0.98619   0.00000  Uiso   1.00
N183   N     0.00475   0.45304   0.17861   0.00000  Uiso   1.00
N184   N     0.30843   0.00337   0.16153   0.00000  Uiso   1.00
