data_job_04039
_audit_creation_date              2018-12-19
_audit_creation_method            'Materials Studio'
_symmetry_space_group_name_H-M    'P1'
_symmetry_Int_Tables_number       1
_symmetry_cell_setting            triclinic
loop_
_symmetry_equiv_pos_as_xyz
  x,y,z
_cell_length_a                    17.1551
_cell_length_b                    17.1551
_cell_length_c                    17.8362
_cell_angle_alpha                 90.0000
_cell_angle_beta                  90.0000
_cell_angle_gamma                 90.0000
loop_
_atom_site_label
_atom_site_type_symbol
_atom_site_fract_x
_atom_site_fract_y
_atom_site_fract_z
_atom_site_U_iso_or_equiv
_atom_site_adp_type
_atom_site_occupancy
C1     C     0.65751   0.95534   0.72863   0.00000  Uiso   1.00
C2     C     0.65044   0.04381   0.72387   0.00000  Uiso   1.00
C3     C     0.58855   0.08788   0.75058   0.00000  Uiso   1.00
C4     C     0.59308   0.16805   0.74080   0.00000  Uiso   1.00
C5     C     0.57232   0.30013   0.73873   0.00000  Uiso   1.00
C6     C     0.66895   0.92691   0.64837   0.00000  Uiso   1.00
C7     C     0.62263   0.87270   0.61162   0.00000  Uiso   1.00
C8     C     0.64274   0.85445   0.53829   0.00000  Uiso   1.00
C9     C     0.65076   0.80500   0.41904   0.00000  Uiso   1.00
C10    C     0.73406   0.93914   0.76919   0.00000  Uiso   1.00
C11    C     0.74250   0.89518   0.83400   0.00000  Uiso   1.00
C12    C     0.81745   0.88721   0.86238   0.00000  Uiso   1.00
C13    C     0.92656   0.85675   0.93070   0.00000  Uiso   1.00
C14    C     0.77560   0.01932   0.66376   0.00000  Uiso   1.00
C15    C     0.71458   0.07856   0.68863   0.00000  Uiso   1.00
C16    C     0.71920   0.15867   0.67881   0.00000  Uiso   1.00
C17    C     0.65734   0.20286   0.70550   0.00000  Uiso   1.00
C18    C     0.73308   0.96166   0.61314   0.00000  Uiso   1.00
C19    C     0.75328   0.94348   0.53985   0.00000  Uiso   1.00
C20    C     0.70700   0.88926   0.50299   0.00000  Uiso   1.00
C21    C     0.79821   0.97389   0.73395   0.00000  Uiso   1.00
C22    C     0.87315   0.96598   0.76223   0.00000  Uiso   1.00
C23    C     0.88170   0.92202   0.82708   0.00000  Uiso   1.00
H24    H     0.60757   0.92828   0.75606   0.00000  Uiso   1.00
H25    H     0.53892   0.06097   0.77784   0.00000  Uiso   1.00
H26    H     0.57300   0.84581   0.63891   0.00000  Uiso   1.00
H27    H     0.69285   0.86830   0.86125   0.00000  Uiso   1.00
H28    H     0.49108   0.22340   0.78643   0.00000  Uiso   1.00
H29    H     0.56295   0.76971   0.49348   0.00000  Uiso   1.00
H30    H     0.81569   0.81712   0.96235   0.00000  Uiso   1.00
H31    H     0.82554   0.04637   0.63632   0.00000  Uiso   1.00
H32    H     0.76885   0.18555   0.65154   0.00000  Uiso   1.00
H33    H     0.80292   0.97039   0.51260   0.00000  Uiso   1.00
H34    H     0.92278   0.99288   0.73495   0.00000  Uiso   1.00
H35    H     0.67770   0.32452   0.68391   0.00000  Uiso   1.00
H36    H     0.74957   0.87082   0.39096   0.00000  Uiso   1.00
H37    H     0.00230   0.91824   0.85983   0.00000  Uiso   1.00
O38    O     0.54315   0.36338   0.74732   0.00000  Uiso   1.00
O39    O     0.63745   0.76814   0.36299   0.00000  Uiso   1.00
O40    O     0.96903   0.83035   0.97813   0.00000  Uiso   1.00
N41    N     0.54279   0.22810   0.76023   0.00000  Uiso   1.00
N42    N     0.60998   0.80393   0.48633   0.00000  Uiso   1.00
N43    N     0.84627   0.84824   0.92467   0.00000  Uiso   1.00
N44    N     0.64321   0.28251   0.70506   0.00000  Uiso   1.00
N45    N     0.71039   0.85834   0.43117   0.00000  Uiso   1.00
N46    N     0.94668   0.90265   0.86951   0.00000  Uiso   1.00
C47    C     0.34249   0.04466   0.72863   0.00000  Uiso   1.00
C48    C     0.34956   0.95619   0.72387   0.00000  Uiso   1.00
C49    C     0.41145   0.91212   0.75058   0.00000  Uiso   1.00
C50    C     0.40692   0.83195   0.74080   0.00000  Uiso   1.00
C51    C     0.42768   0.69987   0.73873   0.00000  Uiso   1.00
C52    C     0.33105   0.07309   0.64837   0.00000  Uiso   1.00
C53    C     0.37737   0.12730   0.61162   0.00000  Uiso   1.00
C54    C     0.35726   0.14555   0.53829   0.00000  Uiso   1.00
C55    C     0.34924   0.19500   0.41904   0.00000  Uiso   1.00
C56    C     0.26594   0.06086   0.76919   0.00000  Uiso   1.00
C57    C     0.25750   0.10482   0.83400   0.00000  Uiso   1.00
C58    C     0.18255   0.11279   0.86238   0.00000  Uiso   1.00
C59    C     0.07344   0.14325   0.93070   0.00000  Uiso   1.00
C60    C     0.22440   0.98068   0.66376   0.00000  Uiso   1.00
C61    C     0.28542   0.92144   0.68863   0.00000  Uiso   1.00
C62    C     0.28080   0.84133   0.67881   0.00000  Uiso   1.00
C63    C     0.34266   0.79714   0.70550   0.00000  Uiso   1.00
C64    C     0.26692   0.03834   0.61314   0.00000  Uiso   1.00
C65    C     0.24672   0.05652   0.53985   0.00000  Uiso   1.00
C66    C     0.29300   0.11074   0.50299   0.00000  Uiso   1.00
C67    C     0.20179   0.02611   0.73395   0.00000  Uiso   1.00
C68    C     0.12685   0.03402   0.76223   0.00000  Uiso   1.00
C69    C     0.11830   0.07798   0.82708   0.00000  Uiso   1.00
H70    H     0.39243   0.07172   0.75606   0.00000  Uiso   1.00
H71    H     0.46108   0.93903   0.77784   0.00000  Uiso   1.00
H72    H     0.42700   0.15419   0.63891   0.00000  Uiso   1.00
H73    H     0.30715   0.13170   0.86125   0.00000  Uiso   1.00
H74    H     0.50892   0.77660   0.78643   0.00000  Uiso   1.00
H75    H     0.43705   0.23029   0.49348   0.00000  Uiso   1.00
H76    H     0.18431   0.18288   0.96235   0.00000  Uiso   1.00
H77    H     0.17446   0.95363   0.63632   0.00000  Uiso   1.00
H78    H     0.23115   0.81445   0.65154   0.00000  Uiso   1.00
H79    H     0.19708   0.02961   0.51260   0.00000  Uiso   1.00
H80    H     0.07722   0.00712   0.73495   0.00000  Uiso   1.00
H81    H     0.32230   0.67548   0.68391   0.00000  Uiso   1.00
H82    H     0.25043   0.12918   0.39096   0.00000  Uiso   1.00
H83    H     0.99770   0.08176   0.85983   0.00000  Uiso   1.00
O84    O     0.45685   0.63662   0.74732   0.00000  Uiso   1.00
O85    O     0.36255   0.23186   0.36299   0.00000  Uiso   1.00
O86    O     0.03097   0.16965   0.97813   0.00000  Uiso   1.00
N87    N     0.45721   0.77190   0.76023   0.00000  Uiso   1.00
N88    N     0.39002   0.19607   0.48633   0.00000  Uiso   1.00
N89    N     0.15373   0.15176   0.92467   0.00000  Uiso   1.00
N90    N     0.35679   0.71749   0.70506   0.00000  Uiso   1.00
N91    N     0.28961   0.14166   0.43117   0.00000  Uiso   1.00
N92    N     0.05332   0.09735   0.86951   0.00000  Uiso   1.00
C93    C     0.54466   0.15751   0.22863   0.00000  Uiso   1.00
C94    C     0.45619   0.15044   0.22387   0.00000  Uiso   1.00
C95    C     0.41212   0.08855   0.25058   0.00000  Uiso   1.00
C96    C     0.33195   0.09308   0.24080   0.00000  Uiso   1.00
C97    C     0.19987   0.07232   0.23873   0.00000  Uiso   1.00
C98    C     0.57309   0.16895   0.14837   0.00000  Uiso   1.00
C99    C     0.62730   0.12263   0.11162   0.00000  Uiso   1.00
C100   C     0.64555   0.14274   0.03829   0.00000  Uiso   1.00
C101   C     0.69500   0.15076   0.91904   0.00000  Uiso   1.00
C102   C     0.56086   0.23406   0.26919   0.00000  Uiso   1.00
C103   C     0.60482   0.24250   0.33400   0.00000  Uiso   1.00
C104   C     0.61279   0.31745   0.36238   0.00000  Uiso   1.00
C105   C     0.64325   0.42656   0.43070   0.00000  Uiso   1.00
C106   C     0.48068   0.27560   0.16376   0.00000  Uiso   1.00
C107   C     0.42144   0.21458   0.18863   0.00000  Uiso   1.00
C108   C     0.34133   0.21920   0.17881   0.00000  Uiso   1.00
C109   C     0.29714   0.15734   0.20550   0.00000  Uiso   1.00
C110   C     0.53834   0.23308   0.11314   0.00000  Uiso   1.00
C111   C     0.55652   0.25328   0.03985   0.00000  Uiso   1.00
C112   C     0.61074   0.20700   0.00299   0.00000  Uiso   1.00
C113   C     0.52611   0.29821   0.23395   0.00000  Uiso   1.00
C114   C     0.53402   0.37315   0.26223   0.00000  Uiso   1.00
C115   C     0.57798   0.38170   0.32708   0.00000  Uiso   1.00
H116   H     0.57172   0.10757   0.25606   0.00000  Uiso   1.00
H117   H     0.43903   0.03892   0.27784   0.00000  Uiso   1.00
H118   H     0.65419   0.07300   0.13891   0.00000  Uiso   1.00
H119   H     0.63170   0.19285   0.36125   0.00000  Uiso   1.00
H120   H     0.27660   0.99108   0.28643   0.00000  Uiso   1.00
H121   H     0.73029   0.06295   0.99348   0.00000  Uiso   1.00
H122   H     0.68288   0.31569   0.46235   0.00000  Uiso   1.00
H123   H     0.45363   0.32554   0.13632   0.00000  Uiso   1.00
H124   H     0.31445   0.26885   0.15154   0.00000  Uiso   1.00
H125   H     0.52961   0.30292   0.01260   0.00000  Uiso   1.00
H126   H     0.50712   0.42278   0.23495   0.00000  Uiso   1.00
H127   H     0.17548   0.17770   0.18391   0.00000  Uiso   1.00
H128   H     0.62918   0.24957   0.89096   0.00000  Uiso   1.00
H129   H     0.58176   0.50230   0.35983   0.00000  Uiso   1.00
O130   O     0.13662   0.04315   0.24732   0.00000  Uiso   1.00
O131   O     0.73186   0.13745   0.86299   0.00000  Uiso   1.00
O132   O     0.66965   0.46903   0.47813   0.00000  Uiso   1.00
N133   N     0.27190   0.04279   0.26023   0.00000  Uiso   1.00
N134   N     0.69607   0.10998   0.98633   0.00000  Uiso   1.00
N135   N     0.65176   0.34627   0.42467   0.00000  Uiso   1.00
N136   N     0.21749   0.14321   0.20506   0.00000  Uiso   1.00
N137   N     0.64166   0.21039   0.93117   0.00000  Uiso   1.00
N138   N     0.59735   0.44668   0.36951   0.00000  Uiso   1.00
C139   C     0.45534   0.84249   0.22863   0.00000  Uiso   1.00
C140   C     0.54381   0.84956   0.22387   0.00000  Uiso   1.00
C141   C     0.58788   0.91145   0.25058   0.00000  Uiso   1.00
C142   C     0.66805   0.90692   0.24080   0.00000  Uiso   1.00
C143   C     0.80013   0.92768   0.23873   0.00000  Uiso   1.00
C144   C     0.42691   0.83105   0.14837   0.00000  Uiso   1.00
C145   C     0.37270   0.87737   0.11162   0.00000  Uiso   1.00
C146   C     0.35445   0.85726   0.03829   0.00000  Uiso   1.00
C147   C     0.30500   0.84924   0.91904   0.00000  Uiso   1.00
C148   C     0.43914   0.76594   0.26919   0.00000  Uiso   1.00
C149   C     0.39518   0.75750   0.33400   0.00000  Uiso   1.00
C150   C     0.38721   0.68255   0.36238   0.00000  Uiso   1.00
C151   C     0.35675   0.57344   0.43070   0.00000  Uiso   1.00
C152   C     0.51932   0.72440   0.16376   0.00000  Uiso   1.00
C153   C     0.57856   0.78542   0.18863   0.00000  Uiso   1.00
C154   C     0.65867   0.78080   0.17881   0.00000  Uiso   1.00
C155   C     0.70286   0.84266   0.20550   0.00000  Uiso   1.00
C156   C     0.46166   0.76692   0.11314   0.00000  Uiso   1.00
C157   C     0.44348   0.74672   0.03985   0.00000  Uiso   1.00
C158   C     0.38926   0.79300   0.00299   0.00000  Uiso   1.00
C159   C     0.47389   0.70179   0.23395   0.00000  Uiso   1.00
C160   C     0.46598   0.62685   0.26223   0.00000  Uiso   1.00
C161   C     0.42202   0.61830   0.32708   0.00000  Uiso   1.00
H162   H     0.42828   0.89243   0.25606   0.00000  Uiso   1.00
H163   H     0.56097   0.96108   0.27784   0.00000  Uiso   1.00
H164   H     0.34581   0.92700   0.13891   0.00000  Uiso   1.00
H165   H     0.36830   0.80715   0.36125   0.00000  Uiso   1.00
H166   H     0.72340   0.00892   0.28643   0.00000  Uiso   1.00
H167   H     0.26971   0.93705   0.99348   0.00000  Uiso   1.00
H168   H     0.31712   0.68431   0.46235   0.00000  Uiso   1.00
H169   H     0.54637   0.67446   0.13632   0.00000  Uiso   1.00
H170   H     0.68555   0.73115   0.15154   0.00000  Uiso   1.00
H171   H     0.47039   0.69708   0.01260   0.00000  Uiso   1.00
H172   H     0.49288   0.57722   0.23495   0.00000  Uiso   1.00
H173   H     0.82452   0.82230   0.18391   0.00000  Uiso   1.00
H174   H     0.37082   0.75043   0.89096   0.00000  Uiso   1.00
H175   H     0.41824   0.49770   0.35983   0.00000  Uiso   1.00
O176   O     0.86338   0.95685   0.24732   0.00000  Uiso   1.00
O177   O     0.26814   0.86255   0.86299   0.00000  Uiso   1.00
O178   O     0.33035   0.53097   0.47813   0.00000  Uiso   1.00
N179   N     0.72810   0.95721   0.26023   0.00000  Uiso   1.00
N180   N     0.30393   0.89002   0.98633   0.00000  Uiso   1.00
N181   N     0.34824   0.65373   0.42467   0.00000  Uiso   1.00
N182   N     0.78251   0.85679   0.20506   0.00000  Uiso   1.00
N183   N     0.35834   0.78961   0.93117   0.00000  Uiso   1.00
N184   N     0.40265   0.55332   0.36951   0.00000  Uiso   1.00
C185   C     0.84249   0.54466   0.77137   0.00000  Uiso   1.00
C186   C     0.84956   0.45619   0.77613   0.00000  Uiso   1.00
C187   C     0.91145   0.41212   0.74942   0.00000  Uiso   1.00
C188   C     0.90692   0.33195   0.75920   0.00000  Uiso   1.00
C189   C     0.92768   0.19987   0.76127   0.00000  Uiso   1.00
C190   C     0.83105   0.57309   0.85163   0.00000  Uiso   1.00
C191   C     0.87737   0.62730   0.88838   0.00000  Uiso   1.00
C192   C     0.85726   0.64555   0.96171   0.00000  Uiso   1.00
C193   C     0.84924   0.69500   0.08096   0.00000  Uiso   1.00
C194   C     0.76594   0.56086   0.73081   0.00000  Uiso   1.00
C195   C     0.75750   0.60482   0.66600   0.00000  Uiso   1.00
C196   C     0.68255   0.61279   0.63762   0.00000  Uiso   1.00
C197   C     0.57344   0.64325   0.56930   0.00000  Uiso   1.00
C198   C     0.72440   0.48068   0.83624   0.00000  Uiso   1.00
C199   C     0.78542   0.42144   0.81137   0.00000  Uiso   1.00
C200   C     0.78080   0.34133   0.82119   0.00000  Uiso   1.00
C201   C     0.84266   0.29714   0.79450   0.00000  Uiso   1.00
C202   C     0.76692   0.53834   0.88686   0.00000  Uiso   1.00
C203   C     0.74672   0.55652   0.96015   0.00000  Uiso   1.00
C204   C     0.79300   0.61074   0.99701   0.00000  Uiso   1.00
C205   C     0.70179   0.52611   0.76605   0.00000  Uiso   1.00
C206   C     0.62685   0.53402   0.73777   0.00000  Uiso   1.00
C207   C     0.61830   0.57798   0.67292   0.00000  Uiso   1.00
H208   H     0.89243   0.57172   0.74394   0.00000  Uiso   1.00
H209   H     0.96108   0.43903   0.72216   0.00000  Uiso   1.00
H210   H     0.92700   0.65419   0.86109   0.00000  Uiso   1.00
H211   H     0.80715   0.63170   0.63875   0.00000  Uiso   1.00
H212   H     0.00892   0.27660   0.71357   0.00000  Uiso   1.00
H213   H     0.93705   0.73029   0.00652   0.00000  Uiso   1.00
H214   H     0.68431   0.68288   0.53765   0.00000  Uiso   1.00
H215   H     0.67446   0.45363   0.86368   0.00000  Uiso   1.00
H216   H     0.73115   0.31445   0.84846   0.00000  Uiso   1.00
H217   H     0.69708   0.52961   0.98740   0.00000  Uiso   1.00
H218   H     0.57722   0.50712   0.76505   0.00000  Uiso   1.00
H219   H     0.82230   0.17548   0.81609   0.00000  Uiso   1.00
H220   H     0.75043   0.62918   0.10904   0.00000  Uiso   1.00
H221   H     0.49770   0.58176   0.64017   0.00000  Uiso   1.00
O222   O     0.95685   0.13662   0.75268   0.00000  Uiso   1.00
O223   O     0.86255   0.73186   0.13701   0.00000  Uiso   1.00
O224   O     0.53097   0.66965   0.52187   0.00000  Uiso   1.00
N225   N     0.95721   0.27190   0.73977   0.00000  Uiso   1.00
N226   N     0.89002   0.69607   0.01367   0.00000  Uiso   1.00
N227   N     0.65373   0.65176   0.57533   0.00000  Uiso   1.00
N228   N     0.85679   0.21749   0.79494   0.00000  Uiso   1.00
N229   N     0.78961   0.64166   0.06883   0.00000  Uiso   1.00
N230   N     0.55332   0.59735   0.63049   0.00000  Uiso   1.00
C231   C     0.15751   0.45534   0.77137   0.00000  Uiso   1.00
C232   C     0.15044   0.54381   0.77613   0.00000  Uiso   1.00
C233   C     0.08855   0.58788   0.74942   0.00000  Uiso   1.00
C234   C     0.09308   0.66805   0.75920   0.00000  Uiso   1.00
C235   C     0.07232   0.80013   0.76127   0.00000  Uiso   1.00
C236   C     0.16895   0.42691   0.85163   0.00000  Uiso   1.00
C237   C     0.12263   0.37270   0.88838   0.00000  Uiso   1.00
C238   C     0.14274   0.35445   0.96171   0.00000  Uiso   1.00
C239   C     0.15076   0.30500   0.08096   0.00000  Uiso   1.00
C240   C     0.23406   0.43914   0.73081   0.00000  Uiso   1.00
C241   C     0.24250   0.39518   0.66600   0.00000  Uiso   1.00
C242   C     0.31745   0.38721   0.63762   0.00000  Uiso   1.00
C243   C     0.42656   0.35675   0.56930   0.00000  Uiso   1.00
C244   C     0.27560   0.51932   0.83624   0.00000  Uiso   1.00
C245   C     0.21458   0.57856   0.81137   0.00000  Uiso   1.00
C246   C     0.21920   0.65867   0.82119   0.00000  Uiso   1.00
C247   C     0.15734   0.70286   0.79450   0.00000  Uiso   1.00
C248   C     0.23308   0.46166   0.88686   0.00000  Uiso   1.00
C249   C     0.25328   0.44348   0.96015   0.00000  Uiso   1.00
C250   C     0.20700   0.38926   0.99701   0.00000  Uiso   1.00
C251   C     0.29821   0.47389   0.76605   0.00000  Uiso   1.00
C252   C     0.37315   0.46598   0.73777   0.00000  Uiso   1.00
C253   C     0.38170   0.42202   0.67292   0.00000  Uiso   1.00
H254   H     0.10757   0.42828   0.74394   0.00000  Uiso   1.00
H255   H     0.03892   0.56097   0.72216   0.00000  Uiso   1.00
H256   H     0.07300   0.34581   0.86109   0.00000  Uiso   1.00
H257   H     0.19285   0.36830   0.63875   0.00000  Uiso   1.00
H258   H     0.99108   0.72340   0.71357   0.00000  Uiso   1.00
H259   H     0.06295   0.26971   0.00652   0.00000  Uiso   1.00
H260   H     0.31569   0.31712   0.53765   0.00000  Uiso   1.00
H261   H     0.32554   0.54637   0.86368   0.00000  Uiso   1.00
H262   H     0.26885   0.68555   0.84846   0.00000  Uiso   1.00
H263   H     0.30292   0.47039   0.98740   0.00000  Uiso   1.00
H264   H     0.42278   0.49288   0.76505   0.00000  Uiso   1.00
H265   H     0.17770   0.82452   0.81609   0.00000  Uiso   1.00
H266   H     0.24957   0.37082   0.10904   0.00000  Uiso   1.00
H267   H     0.50230   0.41824   0.64017   0.00000  Uiso   1.00
O268   O     0.04315   0.86338   0.75268   0.00000  Uiso   1.00
O269   O     0.13745   0.26814   0.13701   0.00000  Uiso   1.00
O270   O     0.46903   0.33035   0.52187   0.00000  Uiso   1.00
N271   N     0.04279   0.72810   0.73977   0.00000  Uiso   1.00
N272   N     0.10998   0.30393   0.01367   0.00000  Uiso   1.00
N273   N     0.34627   0.34824   0.57533   0.00000  Uiso   1.00
N274   N     0.14321   0.78251   0.79494   0.00000  Uiso   1.00
N275   N     0.21039   0.35834   0.06883   0.00000  Uiso   1.00
N276   N     0.44668   0.40265   0.63049   0.00000  Uiso   1.00
C277   C     0.95534   0.34249   0.27137   0.00000  Uiso   1.00
C278   C     0.04381   0.34956   0.27613   0.00000  Uiso   1.00
C279   C     0.08788   0.41145   0.24942   0.00000  Uiso   1.00
C280   C     0.16805   0.40692   0.25920   0.00000  Uiso   1.00
C281   C     0.30013   0.42768   0.26127   0.00000  Uiso   1.00
C282   C     0.92691   0.33105   0.35163   0.00000  Uiso   1.00
C283   C     0.87270   0.37737   0.38838   0.00000  Uiso   1.00
C284   C     0.85445   0.35726   0.46171   0.00000  Uiso   1.00
C285   C     0.80500   0.34924   0.58096   0.00000  Uiso   1.00
C286   C     0.93914   0.26594   0.23081   0.00000  Uiso   1.00
C287   C     0.89518   0.25750   0.16600   0.00000  Uiso   1.00
C288   C     0.88721   0.18255   0.13762   0.00000  Uiso   1.00
C289   C     0.85675   0.07344   0.06930   0.00000  Uiso   1.00
C290   C     0.01932   0.22440   0.33624   0.00000  Uiso   1.00
C291   C     0.07856   0.28542   0.31137   0.00000  Uiso   1.00
C292   C     0.15867   0.28080   0.32119   0.00000  Uiso   1.00
C293   C     0.20286   0.34266   0.29450   0.00000  Uiso   1.00
C294   C     0.96166   0.26692   0.38686   0.00000  Uiso   1.00
C295   C     0.94348   0.24672   0.46015   0.00000  Uiso   1.00
C296   C     0.88926   0.29300   0.49701   0.00000  Uiso   1.00
C297   C     0.97389   0.20179   0.26605   0.00000  Uiso   1.00
C298   C     0.96598   0.12685   0.23777   0.00000  Uiso   1.00
C299   C     0.92202   0.11830   0.17292   0.00000  Uiso   1.00
H300   H     0.92828   0.39243   0.24394   0.00000  Uiso   1.00
H301   H     0.06097   0.46108   0.22216   0.00000  Uiso   1.00
H302   H     0.84581   0.42700   0.36109   0.00000  Uiso   1.00
H303   H     0.86830   0.30715   0.13875   0.00000  Uiso   1.00
H304   H     0.22340   0.50892   0.21357   0.00000  Uiso   1.00
H305   H     0.76971   0.43705   0.50652   0.00000  Uiso   1.00
H306   H     0.81712   0.18431   0.03765   0.00000  Uiso   1.00
H307   H     0.04637   0.17446   0.36368   0.00000  Uiso   1.00
H308   H     0.18555   0.23115   0.34846   0.00000  Uiso   1.00
H309   H     0.97039   0.19708   0.48740   0.00000  Uiso   1.00
H310   H     0.99288   0.07722   0.26505   0.00000  Uiso   1.00
H311   H     0.32452   0.32230   0.31609   0.00000  Uiso   1.00
H312   H     0.87082   0.25043   0.60904   0.00000  Uiso   1.00
H313   H     0.91824   0.99770   0.14017   0.00000  Uiso   1.00
O314   O     0.36338   0.45685   0.25268   0.00000  Uiso   1.00
O315   O     0.76814   0.36255   0.63701   0.00000  Uiso   1.00
O316   O     0.83035   0.03097   0.02187   0.00000  Uiso   1.00
N317   N     0.22810   0.45721   0.23977   0.00000  Uiso   1.00
N318   N     0.80393   0.39002   0.51367   0.00000  Uiso   1.00
N319   N     0.84824   0.15373   0.07533   0.00000  Uiso   1.00
N320   N     0.28251   0.35679   0.29494   0.00000  Uiso   1.00
N321   N     0.85834   0.28961   0.56883   0.00000  Uiso   1.00
N322   N     0.90265   0.05332   0.13049   0.00000  Uiso   1.00
C323   C     0.04466   0.65751   0.27137   0.00000  Uiso   1.00
C324   C     0.95619   0.65044   0.27613   0.00000  Uiso   1.00
C325   C     0.91212   0.58855   0.24942   0.00000  Uiso   1.00
C326   C     0.83195   0.59308   0.25920   0.00000  Uiso   1.00
C327   C     0.69987   0.57232   0.26127   0.00000  Uiso   1.00
C328   C     0.07309   0.66895   0.35163   0.00000  Uiso   1.00
C329   C     0.12730   0.62263   0.38838   0.00000  Uiso   1.00
C330   C     0.14555   0.64274   0.46171   0.00000  Uiso   1.00
C331   C     0.19500   0.65076   0.58096   0.00000  Uiso   1.00
C332   C     0.06086   0.73406   0.23081   0.00000  Uiso   1.00
C333   C     0.10482   0.74250   0.16600   0.00000  Uiso   1.00
C334   C     0.11279   0.81745   0.13762   0.00000  Uiso   1.00
C335   C     0.14325   0.92656   0.06930   0.00000  Uiso   1.00
C336   C     0.98068   0.77560   0.33624   0.00000  Uiso   1.00
C337   C     0.92144   0.71458   0.31137   0.00000  Uiso   1.00
C338   C     0.84133   0.71920   0.32119   0.00000  Uiso   1.00
C339   C     0.79714   0.65734   0.29450   0.00000  Uiso   1.00
C340   C     0.03834   0.73308   0.38686   0.00000  Uiso   1.00
C341   C     0.05652   0.75328   0.46015   0.00000  Uiso   1.00
C342   C     0.11074   0.70700   0.49701   0.00000  Uiso   1.00
C343   C     0.02611   0.79821   0.26605   0.00000  Uiso   1.00
C344   C     0.03402   0.87315   0.23777   0.00000  Uiso   1.00
C345   C     0.07798   0.88170   0.17292   0.00000  Uiso   1.00
H346   H     0.07172   0.60757   0.24394   0.00000  Uiso   1.00
H347   H     0.93903   0.53892   0.22216   0.00000  Uiso   1.00
H348   H     0.15419   0.57300   0.36109   0.00000  Uiso   1.00
H349   H     0.13170   0.69285   0.13875   0.00000  Uiso   1.00
H350   H     0.77660   0.49108   0.21357   0.00000  Uiso   1.00
H351   H     0.23029   0.56295   0.50652   0.00000  Uiso   1.00
H352   H     0.18288   0.81569   0.03765   0.00000  Uiso   1.00
H353   H     0.95363   0.82554   0.36368   0.00000  Uiso   1.00
H354   H     0.81445   0.76885   0.34846   0.00000  Uiso   1.00
H355   H     0.02961   0.80292   0.48740   0.00000  Uiso   1.00
H356   H     0.00712   0.92278   0.26505   0.00000  Uiso   1.00
H357   H     0.67548   0.67770   0.31609   0.00000  Uiso   1.00
H358   H     0.12918   0.74957   0.60904   0.00000  Uiso   1.00
H359   H     0.08176   0.00230   0.14017   0.00000  Uiso   1.00
O360   O     0.63662   0.54315   0.25268   0.00000  Uiso   1.00
O361   O     0.23186   0.63745   0.63701   0.00000  Uiso   1.00
O362   O     0.16965   0.96903   0.02187   0.00000  Uiso   1.00
N363   N     0.77190   0.54279   0.23977   0.00000  Uiso   1.00
N364   N     0.19607   0.60998   0.51367   0.00000  Uiso   1.00
N365   N     0.15176   0.84627   0.07533   0.00000  Uiso   1.00
N366   N     0.71749   0.64321   0.29494   0.00000  Uiso   1.00
N367   N     0.14166   0.71039   0.56883   0.00000  Uiso   1.00
N368   N     0.09735   0.94668   0.13049   0.00000  Uiso   1.00
