data_job_02252
_audit_creation_date              2018-12-19
_audit_creation_method            'Materials Studio'
_symmetry_space_group_name_H-M    'P1'
_symmetry_Int_Tables_number       1
_symmetry_cell_setting            triclinic
loop_
_symmetry_equiv_pos_as_xyz
  x,y,z
_cell_length_a                    17.0805
_cell_length_b                    14.7689
_cell_length_c                    13.6051
_cell_angle_alpha                 90.0000
_cell_angle_beta                  131.5190
_cell_angle_gamma                 90.0000
loop_
_atom_site_label
_atom_site_type_symbol
_atom_site_fract_x
_atom_site_fract_y
_atom_site_fract_z
_atom_site_U_iso_or_equiv
_atom_site_adp_type
_atom_site_occupancy
C1     C     0.33037   0.50922   0.13382   0.00000  Uiso   1.00
C2     C     0.30554   0.60457   0.14930   0.00000  Uiso   1.00
C3     C     0.36954   0.67984   0.19213   0.00000  Uiso   1.00
C4     C     0.33274   0.76103   0.19959   0.00000  Uiso   1.00
C5     C     0.30902   0.90822   0.22888   0.00000  Uiso   1.00
C6     C     0.32278   0.44794   0.21743   0.00000  Uiso   1.00
C7     C     0.40127   0.39151   0.31754   0.00000  Uiso   1.00
C8     C     0.37897   0.34083   0.38235   0.00000  Uiso   1.00
C9     C     0.38198   0.24480   0.51735   0.00000  Uiso   1.00
C10    C     0.24001   0.48223   0.99163   0.00000  Uiso   1.00
C11    C     0.24890   0.45461   0.90188   0.00000  Uiso   1.00
C12    C     0.15691   0.43278   0.77657   0.00000  Uiso   1.00
C13    C     0.03141   0.38999   0.56098   0.00000  Uiso   1.00
C14    C     0.15120   0.51954   0.07089   0.00000  Uiso   1.00
C15    C     0.20823   0.61017   0.11511   0.00000  Uiso   1.00
C16    C     0.17132   0.69127   0.12250   0.00000  Uiso   1.00
C17    C     0.23525   0.76665   0.16534   0.00000  Uiso   1.00
C18    C     0.22547   0.45354   0.18325   0.00000  Uiso   1.00
C19    C     0.20304   0.40293   0.24791   0.00000  Uiso   1.00
C20    C     0.28148   0.34645   0.34810   0.00000  Uiso   1.00
C21    C     0.14269   0.48784   0.95744   0.00000  Uiso   1.00
C22    C     0.05067   0.46604   0.83225   0.00000  Uiso   1.00
C23    C     0.05942   0.43840   0.74233   0.00000  Uiso   1.00
H24    H     0.40613   0.50485   0.16044   0.00000  Uiso   1.00
H25    H     0.44485   0.67547   0.21859   0.00000  Uiso   1.00
H26    H     0.47656   0.38718   0.34397   0.00000  Uiso   1.00
H27    H     0.32422   0.45028   0.92837   0.00000  Uiso   1.00
H28    H     0.44488   0.86711   0.26803   0.00000  Uiso   1.00
H29    H     0.51174   0.25920   0.53237   0.00000  Uiso   1.00
H30    H     0.19049   0.39225   0.65599   0.00000  Uiso   1.00
H31    H     0.07544   0.52391   0.04427   0.00000  Uiso   1.00
H32    H     0.09600   0.69558   0.09605   0.00000  Uiso   1.00
H33    H     0.12772   0.40728   0.22143   0.00000  Uiso   1.00
H34    H     0.97538   0.47038   0.80583   0.00000  Uiso   1.00
H35    H     0.16174   0.88343   0.16858   0.00000  Uiso   1.00
H36    H     0.22860   0.27551   0.43291   0.00000  Uiso   1.00
H37    H     0.90735   0.40857   0.55654   0.00000  Uiso   1.00
O38    O     0.32282   0.98785   0.25450   0.00000  Uiso   1.00
O39    O     0.41053   0.19028   0.60128   0.00000  Uiso   1.00
O40    O     0.98906   0.36485   0.45150   0.00000  Uiso   1.00
N41    N     0.37541   0.84739   0.23749   0.00000  Uiso   1.00
N42    N     0.43793   0.27904   0.48465   0.00000  Uiso   1.00
N43    N     0.13759   0.40341   0.66532   0.00000  Uiso   1.00
N44    N     0.22306   0.85617   0.18398   0.00000  Uiso   1.00
N45    N     0.28557   0.28783   0.43113   0.00000  Uiso   1.00
N46    N     0.98523   0.41220   0.61180   0.00000  Uiso   1.00
C47    C     0.66963   0.00922   0.36618   0.00000  Uiso   1.00
C48    C     0.69446   0.10457   0.35070   0.00000  Uiso   1.00
C49    C     0.63046   0.17984   0.30787   0.00000  Uiso   1.00
C50    C     0.66726   0.26103   0.30041   0.00000  Uiso   1.00
C51    C     0.69098   0.40822   0.27112   0.00000  Uiso   1.00
C52    C     0.67722   0.94794   0.28257   0.00000  Uiso   1.00
C53    C     0.59873   0.89151   0.18246   0.00000  Uiso   1.00
C54    C     0.62103   0.84083   0.11765   0.00000  Uiso   1.00
C55    C     0.61802   0.74480   0.98265   0.00000  Uiso   1.00
C56    C     0.75999   0.98223   0.50837   0.00000  Uiso   1.00
C57    C     0.75110   0.95461   0.59812   0.00000  Uiso   1.00
C58    C     0.84309   0.93278   0.72343   0.00000  Uiso   1.00
C59    C     0.96859   0.88999   0.93902   0.00000  Uiso   1.00
C60    C     0.84880   0.01954   0.42911   0.00000  Uiso   1.00
C61    C     0.79177   0.11017   0.38489   0.00000  Uiso   1.00
C62    C     0.82868   0.19127   0.37750   0.00000  Uiso   1.00
C63    C     0.76475   0.26665   0.33466   0.00000  Uiso   1.00
C64    C     0.77453   0.95354   0.31675   0.00000  Uiso   1.00
C65    C     0.79696   0.90293   0.25209   0.00000  Uiso   1.00
C66    C     0.71852   0.84645   0.15190   0.00000  Uiso   1.00
C67    C     0.85731   0.98784   0.54256   0.00000  Uiso   1.00
C68    C     0.94933   0.96604   0.66775   0.00000  Uiso   1.00
C69    C     0.94058   0.93840   0.75767   0.00000  Uiso   1.00
H70    H     0.59387   0.00485   0.33956   0.00000  Uiso   1.00
H71    H     0.55515   0.17547   0.28141   0.00000  Uiso   1.00
H72    H     0.52344   0.88718   0.15603   0.00000  Uiso   1.00
H73    H     0.67578   0.95028   0.57163   0.00000  Uiso   1.00
H74    H     0.55512   0.36711   0.23197   0.00000  Uiso   1.00
H75    H     0.48826   0.75920   0.96763   0.00000  Uiso   1.00
H76    H     0.80951   0.89225   0.84401   0.00000  Uiso   1.00
H77    H     0.92456   0.02391   0.45573   0.00000  Uiso   1.00
H78    H     0.90400   0.19558   0.40395   0.00000  Uiso   1.00
H79    H     0.87228   0.90728   0.27857   0.00000  Uiso   1.00
H80    H     0.02462   0.97038   0.69417   0.00000  Uiso   1.00
H81    H     0.83826   0.38343   0.33142   0.00000  Uiso   1.00
H82    H     0.77140   0.77551   0.06709   0.00000  Uiso   1.00
H83    H     0.09265   0.90857   0.94346   0.00000  Uiso   1.00
O84    O     0.67718   0.48785   0.24550   0.00000  Uiso   1.00
O85    O     0.58947   0.69028   0.89872   0.00000  Uiso   1.00
O86    O     0.01094   0.86485   0.04850   0.00000  Uiso   1.00
N87    N     0.62459   0.34739   0.26251   0.00000  Uiso   1.00
N88    N     0.56207   0.77904   0.01535   0.00000  Uiso   1.00
N89    N     0.86241   0.90341   0.83468   0.00000  Uiso   1.00
N90    N     0.77694   0.35617   0.31602   0.00000  Uiso   1.00
N91    N     0.71443   0.78783   0.06887   0.00000  Uiso   1.00
N92    N     0.01477   0.91220   0.88820   0.00000  Uiso   1.00
C93    C     0.66963   0.49078   0.86618   0.00000  Uiso   1.00
C94    C     0.69446   0.39543   0.85070   0.00000  Uiso   1.00
C95    C     0.63046   0.32016   0.80787   0.00000  Uiso   1.00
C96    C     0.66726   0.23897   0.80041   0.00000  Uiso   1.00
C97    C     0.69098   0.09178   0.77112   0.00000  Uiso   1.00
C98    C     0.67722   0.55206   0.78257   0.00000  Uiso   1.00
C99    C     0.59873   0.60849   0.68246   0.00000  Uiso   1.00
C100   C     0.62103   0.65917   0.61765   0.00000  Uiso   1.00
C101   C     0.61802   0.75520   0.48265   0.00000  Uiso   1.00
C102   C     0.75999   0.51777   0.00837   0.00000  Uiso   1.00
C103   C     0.75110   0.54539   0.09812   0.00000  Uiso   1.00
C104   C     0.84309   0.56722   0.22343   0.00000  Uiso   1.00
C105   C     0.96859   0.61001   0.43902   0.00000  Uiso   1.00
C106   C     0.84880   0.48046   0.92911   0.00000  Uiso   1.00
C107   C     0.79177   0.38983   0.88489   0.00000  Uiso   1.00
C108   C     0.82868   0.30873   0.87750   0.00000  Uiso   1.00
C109   C     0.76475   0.23335   0.83466   0.00000  Uiso   1.00
C110   C     0.77453   0.54646   0.81675   0.00000  Uiso   1.00
C111   C     0.79696   0.59707   0.75209   0.00000  Uiso   1.00
C112   C     0.71852   0.65355   0.65190   0.00000  Uiso   1.00
C113   C     0.85731   0.51216   0.04256   0.00000  Uiso   1.00
C114   C     0.94933   0.53396   0.16775   0.00000  Uiso   1.00
C115   C     0.94058   0.56160   0.25767   0.00000  Uiso   1.00
H116   H     0.59387   0.49515   0.83956   0.00000  Uiso   1.00
H117   H     0.55515   0.32453   0.78141   0.00000  Uiso   1.00
H118   H     0.52344   0.61282   0.65603   0.00000  Uiso   1.00
H119   H     0.67578   0.54972   0.07163   0.00000  Uiso   1.00
H120   H     0.55512   0.13289   0.73197   0.00000  Uiso   1.00
H121   H     0.48826   0.74080   0.46763   0.00000  Uiso   1.00
H122   H     0.80951   0.60775   0.34401   0.00000  Uiso   1.00
H123   H     0.92456   0.47609   0.95573   0.00000  Uiso   1.00
H124   H     0.90400   0.30442   0.90395   0.00000  Uiso   1.00
H125   H     0.87228   0.59272   0.77857   0.00000  Uiso   1.00
H126   H     0.02462   0.52962   0.19417   0.00000  Uiso   1.00
H127   H     0.83826   0.11657   0.83142   0.00000  Uiso   1.00
H128   H     0.77140   0.72449   0.56709   0.00000  Uiso   1.00
H129   H     0.09265   0.59143   0.44346   0.00000  Uiso   1.00
O130   O     0.67718   0.01215   0.74550   0.00000  Uiso   1.00
O131   O     0.58947   0.80972   0.39872   0.00000  Uiso   1.00
O132   O     0.01094   0.63515   0.54850   0.00000  Uiso   1.00
N133   N     0.62459   0.15261   0.76251   0.00000  Uiso   1.00
N134   N     0.56207   0.72096   0.51535   0.00000  Uiso   1.00
N135   N     0.86241   0.59659   0.33468   0.00000  Uiso   1.00
N136   N     0.77694   0.14383   0.81602   0.00000  Uiso   1.00
N137   N     0.71443   0.71217   0.56887   0.00000  Uiso   1.00
N138   N     0.01477   0.58780   0.38820   0.00000  Uiso   1.00
C139   C     0.33037   0.99078   0.63382   0.00000  Uiso   1.00
C140   C     0.30554   0.89543   0.64930   0.00000  Uiso   1.00
C141   C     0.36954   0.82016   0.69213   0.00000  Uiso   1.00
C142   C     0.33274   0.73897   0.69959   0.00000  Uiso   1.00
C143   C     0.30902   0.59178   0.72888   0.00000  Uiso   1.00
C144   C     0.32278   0.05206   0.71743   0.00000  Uiso   1.00
C145   C     0.40127   0.10849   0.81754   0.00000  Uiso   1.00
C146   C     0.37897   0.15917   0.88235   0.00000  Uiso   1.00
C147   C     0.38198   0.25520   0.01735   0.00000  Uiso   1.00
C148   C     0.24001   0.01777   0.49163   0.00000  Uiso   1.00
C149   C     0.24890   0.04539   0.40188   0.00000  Uiso   1.00
C150   C     0.15691   0.06722   0.27657   0.00000  Uiso   1.00
C151   C     0.03141   0.11001   0.06098   0.00000  Uiso   1.00
C152   C     0.15120   0.98046   0.57089   0.00000  Uiso   1.00
C153   C     0.20823   0.88983   0.61511   0.00000  Uiso   1.00
C154   C     0.17132   0.80873   0.62250   0.00000  Uiso   1.00
C155   C     0.23525   0.73335   0.66534   0.00000  Uiso   1.00
C156   C     0.22547   0.04646   0.68325   0.00000  Uiso   1.00
C157   C     0.20304   0.09707   0.74791   0.00000  Uiso   1.00
C158   C     0.28148   0.15355   0.84810   0.00000  Uiso   1.00
C159   C     0.14269   0.01216   0.45744   0.00000  Uiso   1.00
C160   C     0.05067   0.03396   0.33225   0.00000  Uiso   1.00
C161   C     0.05942   0.06160   0.24233   0.00000  Uiso   1.00
H162   H     0.40613   0.99515   0.66044   0.00000  Uiso   1.00
H163   H     0.44485   0.82453   0.71859   0.00000  Uiso   1.00
H164   H     0.47656   0.11282   0.84397   0.00000  Uiso   1.00
H165   H     0.32422   0.04972   0.42837   0.00000  Uiso   1.00
H166   H     0.44488   0.63289   0.76803   0.00000  Uiso   1.00
H167   H     0.51174   0.24080   0.03237   0.00000  Uiso   1.00
H168   H     0.19049   0.10775   0.15599   0.00000  Uiso   1.00
H169   H     0.07544   0.97609   0.54427   0.00000  Uiso   1.00
H170   H     0.09600   0.80442   0.59605   0.00000  Uiso   1.00
H171   H     0.12772   0.09272   0.72143   0.00000  Uiso   1.00
H172   H     0.97538   0.02962   0.30583   0.00000  Uiso   1.00
H173   H     0.16174   0.61657   0.66858   0.00000  Uiso   1.00
H174   H     0.22860   0.22449   0.93291   0.00000  Uiso   1.00
H175   H     0.90735   0.09143   0.05654   0.00000  Uiso   1.00
O176   O     0.32282   0.51215   0.75450   0.00000  Uiso   1.00
O177   O     0.41053   0.30972   0.10128   0.00000  Uiso   1.00
O178   O     0.98906   0.13515   0.95150   0.00000  Uiso   1.00
N179   N     0.37541   0.65261   0.73749   0.00000  Uiso   1.00
N180   N     0.43793   0.22096   0.98465   0.00000  Uiso   1.00
N181   N     0.13759   0.09659   0.16532   0.00000  Uiso   1.00
N182   N     0.22306   0.64383   0.68398   0.00000  Uiso   1.00
N183   N     0.28557   0.21217   0.93113   0.00000  Uiso   1.00
N184   N     0.98523   0.08780   0.11180   0.00000  Uiso   1.00
