data_job_02433
_audit_creation_date              2018-12-19
_audit_creation_method            'Materials Studio'
_symmetry_space_group_name_H-M    'P1'
_symmetry_Int_Tables_number       1
_symmetry_cell_setting            triclinic
loop_
_symmetry_equiv_pos_as_xyz
  x,y,z
_cell_length_a                    20.5635
_cell_length_b                    27.8023
_cell_length_c                    10.6133
_cell_angle_alpha                 90.0000
_cell_angle_beta                  90.0000
_cell_angle_gamma                 90.0000
loop_
_atom_site_label
_atom_site_type_symbol
_atom_site_fract_x
_atom_site_fract_y
_atom_site_fract_z
_atom_site_U_iso_or_equiv
_atom_site_adp_type
_atom_site_occupancy
C1     C     0.03863   0.11070   0.94018   0.00000  Uiso   1.00
C2     C     0.96627   0.10677   0.91052   0.00000  Uiso   1.00
C3     C     0.93962   0.08558   0.80399   0.00000  Uiso   1.00
C4     C     0.87228   0.08562   0.79430   0.00000  Uiso   1.00
C5     C     0.76589   0.07641   0.73398   0.00000  Uiso   1.00
C6     C     0.05221   0.16412   0.95944   0.00000  Uiso   1.00
C7     C     0.09782   0.19115   0.89405   0.00000  Uiso   1.00
C8     C     0.10284   0.23948   0.92556   0.00000  Uiso   1.00
C9     C     0.12989   0.31930   0.94125   0.00000  Uiso   1.00
C10    C     0.04795   0.08711   0.06862   0.00000  Uiso   1.00
C11    C     0.09000   0.04939   0.09504   0.00000  Uiso   1.00
C12    C     0.09145   0.03288   0.21848   0.00000  Uiso   1.00
C13    C     0.11191   0.99313   0.40368   0.00000  Uiso   1.00
C14    C     0.96645   0.14847   0.11243   0.00000  Uiso   1.00
C15    C     0.92706   0.12728   0.00408   0.00000  Uiso   1.00
C16    C     0.85975   0.12736   0.99456   0.00000  Uiso   1.00
C17    C     0.83300   0.10617   0.88803   0.00000  Uiso   1.00
C18    C     0.01300   0.18464   0.05299   0.00000  Uiso   1.00
C19    C     0.01795   0.23293   0.08461   0.00000  Uiso   1.00
C20    C     0.06356   0.26003   0.01928   0.00000  Uiso   1.00
C21    C     0.00874   0.10762   0.16218   0.00000  Uiso   1.00
C22    C     0.01013   0.09117   0.28560   0.00000  Uiso   1.00
C23    C     0.05217   0.05343   0.31220   0.00000  Uiso   1.00
H24    H     0.06916   0.09474   0.86735   0.00000  Uiso   1.00
H25    H     0.96998   0.06971   0.73160   0.00000  Uiso   1.00
H26    H     0.12816   0.17527   0.82166   0.00000  Uiso   1.00
H27    H     0.12034   0.03352   0.02261   0.00000  Uiso   1.00
H28    H     0.84272   0.05102   0.62234   0.00000  Uiso   1.00
H29    H     0.17627   0.27359   0.81226   0.00000  Uiso   1.00
H30    H     0.15979   0.97470   0.23601   0.00000  Uiso   1.00
H31    H     0.93592   0.16444   0.18527   0.00000  Uiso   1.00
H32    H     0.82942   0.14324   0.06697   0.00000  Uiso   1.00
H33    H     0.98761   0.24880   0.15702   0.00000  Uiso   1.00
H34    H     0.97979   0.10705   0.35798   0.00000  Uiso   1.00
H35    H     0.72864   0.11070   0.89453   0.00000  Uiso   1.00
H36    H     0.06220   0.33327   0.08446   0.00000  Uiso   1.00
H37    H     0.04571   0.03438   0.50821   0.00000  Uiso   1.00
O38    O     0.71803   0.06567   0.67486   0.00000  Uiso   1.00
O39    O     0.15565   0.35767   0.92405   0.00000  Uiso   1.00
O40    O     0.13401   0.96553   0.47999   0.00000  Uiso   1.00
N41    N     0.83049   0.06797   0.70265   0.00000  Uiso   1.00
N42    N     0.14233   0.27606   0.88020   0.00000  Uiso   1.00
N43    N     0.12693   0.99663   0.27638   0.00000  Uiso   1.00
N44    N     0.76910   0.10008   0.84911   0.00000  Uiso   1.00
N45    N     0.08095   0.30817   0.02666   0.00000  Uiso   1.00
N46    N     0.06555   0.02874   0.42284   0.00000  Uiso   1.00
C47    C     0.03863   0.61070   0.44018   0.00000  Uiso   1.00
C48    C     0.96627   0.60677   0.41052   0.00000  Uiso   1.00
C49    C     0.93962   0.58558   0.30399   0.00000  Uiso   1.00
C50    C     0.87228   0.58562   0.29430   0.00000  Uiso   1.00
C51    C     0.76589   0.57641   0.23398   0.00000  Uiso   1.00
C52    C     0.05221   0.66412   0.45944   0.00000  Uiso   1.00
C53    C     0.09782   0.69115   0.39405   0.00000  Uiso   1.00
C54    C     0.10284   0.73948   0.42556   0.00000  Uiso   1.00
C55    C     0.12989   0.81930   0.44125   0.00000  Uiso   1.00
C56    C     0.04795   0.58711   0.56862   0.00000  Uiso   1.00
C57    C     0.09000   0.54939   0.59504   0.00000  Uiso   1.00
C58    C     0.09145   0.53288   0.71848   0.00000  Uiso   1.00
C59    C     0.11191   0.49313   0.90368   0.00000  Uiso   1.00
C60    C     0.96645   0.64847   0.61243   0.00000  Uiso   1.00
C61    C     0.92706   0.62728   0.50408   0.00000  Uiso   1.00
C62    C     0.85975   0.62736   0.49456   0.00000  Uiso   1.00
C63    C     0.83300   0.60617   0.38803   0.00000  Uiso   1.00
C64    C     0.01300   0.68464   0.55299   0.00000  Uiso   1.00
C65    C     0.01795   0.73293   0.58461   0.00000  Uiso   1.00
C66    C     0.06356   0.76003   0.51928   0.00000  Uiso   1.00
C67    C     0.00874   0.60762   0.66218   0.00000  Uiso   1.00
C68    C     0.01013   0.59117   0.78560   0.00000  Uiso   1.00
C69    C     0.05217   0.55343   0.81220   0.00000  Uiso   1.00
H70    H     0.06916   0.59474   0.36735   0.00000  Uiso   1.00
H71    H     0.96998   0.56971   0.23160   0.00000  Uiso   1.00
H72    H     0.12816   0.67527   0.32166   0.00000  Uiso   1.00
H73    H     0.12034   0.53352   0.52261   0.00000  Uiso   1.00
H74    H     0.84272   0.55102   0.12234   0.00000  Uiso   1.00
H75    H     0.17627   0.77359   0.31226   0.00000  Uiso   1.00
H76    H     0.15979   0.47470   0.73601   0.00000  Uiso   1.00
H77    H     0.93592   0.66444   0.68527   0.00000  Uiso   1.00
H78    H     0.82942   0.64324   0.56697   0.00000  Uiso   1.00
H79    H     0.98761   0.74880   0.65702   0.00000  Uiso   1.00
H80    H     0.97979   0.60705   0.85798   0.00000  Uiso   1.00
H81    H     0.72864   0.61070   0.39453   0.00000  Uiso   1.00
H82    H     0.06220   0.83327   0.58446   0.00000  Uiso   1.00
H83    H     0.04571   0.53438   0.00821   0.00000  Uiso   1.00
O84    O     0.71803   0.56567   0.17486   0.00000  Uiso   1.00
O85    O     0.15565   0.85767   0.42405   0.00000  Uiso   1.00
O86    O     0.13401   0.46553   0.97999   0.00000  Uiso   1.00
N87    N     0.83049   0.56797   0.20265   0.00000  Uiso   1.00
N88    N     0.14233   0.77606   0.38020   0.00000  Uiso   1.00
N89    N     0.12693   0.49663   0.77638   0.00000  Uiso   1.00
N90    N     0.76910   0.60008   0.34911   0.00000  Uiso   1.00
N91    N     0.08095   0.80817   0.52666   0.00000  Uiso   1.00
N92    N     0.06555   0.52874   0.92284   0.00000  Uiso   1.00
C93    C     0.96137   0.88930   0.94018   0.00000  Uiso   1.00
C94    C     0.03373   0.89323   0.91052   0.00000  Uiso   1.00
C95    C     0.06038   0.91442   0.80399   0.00000  Uiso   1.00
C96    C     0.12772   0.91438   0.79430   0.00000  Uiso   1.00
C97    C     0.23411   0.92359   0.73398   0.00000  Uiso   1.00
C98    C     0.94779   0.83588   0.95944   0.00000  Uiso   1.00
C99    C     0.90218   0.80885   0.89405   0.00000  Uiso   1.00
C100   C     0.89716   0.76052   0.92556   0.00000  Uiso   1.00
C101   C     0.87011   0.68070   0.94125   0.00000  Uiso   1.00
C102   C     0.95205   0.91289   0.06862   0.00000  Uiso   1.00
C103   C     0.91000   0.95061   0.09504   0.00000  Uiso   1.00
C104   C     0.90855   0.96712   0.21848   0.00000  Uiso   1.00
C105   C     0.88809   0.00687   0.40368   0.00000  Uiso   1.00
C106   C     0.03355   0.85153   0.11243   0.00000  Uiso   1.00
C107   C     0.07294   0.87272   0.00408   0.00000  Uiso   1.00
C108   C     0.14025   0.87264   0.99456   0.00000  Uiso   1.00
C109   C     0.16700   0.89383   0.88803   0.00000  Uiso   1.00
C110   C     0.98700   0.81536   0.05299   0.00000  Uiso   1.00
C111   C     0.98205   0.76707   0.08461   0.00000  Uiso   1.00
C112   C     0.93644   0.73997   0.01928   0.00000  Uiso   1.00
C113   C     0.99126   0.89238   0.16218   0.00000  Uiso   1.00
C114   C     0.98987   0.90883   0.28560   0.00000  Uiso   1.00
C115   C     0.94783   0.94657   0.31220   0.00000  Uiso   1.00
H116   H     0.93084   0.90526   0.86735   0.00000  Uiso   1.00
H117   H     0.03002   0.93029   0.73160   0.00000  Uiso   1.00
H118   H     0.87184   0.82473   0.82166   0.00000  Uiso   1.00
H119   H     0.87966   0.96648   0.02261   0.00000  Uiso   1.00
H120   H     0.15728   0.94898   0.62234   0.00000  Uiso   1.00
H121   H     0.82373   0.72641   0.81226   0.00000  Uiso   1.00
H122   H     0.84021   0.02530   0.23601   0.00000  Uiso   1.00
H123   H     0.06408   0.83556   0.18527   0.00000  Uiso   1.00
H124   H     0.17058   0.85676   0.06697   0.00000  Uiso   1.00
H125   H     0.01239   0.75120   0.15702   0.00000  Uiso   1.00
H126   H     0.02021   0.89295   0.35798   0.00000  Uiso   1.00
H127   H     0.27136   0.88930   0.89453   0.00000  Uiso   1.00
H128   H     0.93780   0.66673   0.08446   0.00000  Uiso   1.00
H129   H     0.95429   0.96562   0.50821   0.00000  Uiso   1.00
O130   O     0.28197   0.93433   0.67486   0.00000  Uiso   1.00
O131   O     0.84435   0.64233   0.92405   0.00000  Uiso   1.00
O132   O     0.86599   0.03447   0.47999   0.00000  Uiso   1.00
N133   N     0.16951   0.93203   0.70265   0.00000  Uiso   1.00
N134   N     0.85767   0.72394   0.88020   0.00000  Uiso   1.00
N135   N     0.87307   0.00337   0.27638   0.00000  Uiso   1.00
N136   N     0.23090   0.89992   0.84911   0.00000  Uiso   1.00
N137   N     0.91905   0.69183   0.02666   0.00000  Uiso   1.00
N138   N     0.93445   0.97126   0.42284   0.00000  Uiso   1.00
C139   C     0.96137   0.38930   0.44018   0.00000  Uiso   1.00
C140   C     0.03373   0.39323   0.41052   0.00000  Uiso   1.00
C141   C     0.06038   0.41442   0.30399   0.00000  Uiso   1.00
C142   C     0.12772   0.41438   0.29430   0.00000  Uiso   1.00
C143   C     0.23411   0.42359   0.23398   0.00000  Uiso   1.00
C144   C     0.94779   0.33588   0.45944   0.00000  Uiso   1.00
C145   C     0.90218   0.30885   0.39405   0.00000  Uiso   1.00
C146   C     0.89716   0.26052   0.42556   0.00000  Uiso   1.00
C147   C     0.87011   0.18070   0.44125   0.00000  Uiso   1.00
C148   C     0.95205   0.41289   0.56862   0.00000  Uiso   1.00
C149   C     0.91000   0.45061   0.59504   0.00000  Uiso   1.00
C150   C     0.90855   0.46712   0.71848   0.00000  Uiso   1.00
C151   C     0.88809   0.50687   0.90368   0.00000  Uiso   1.00
C152   C     0.03355   0.35153   0.61243   0.00000  Uiso   1.00
C153   C     0.07294   0.37272   0.50408   0.00000  Uiso   1.00
C154   C     0.14025   0.37264   0.49456   0.00000  Uiso   1.00
C155   C     0.16700   0.39383   0.38803   0.00000  Uiso   1.00
C156   C     0.98700   0.31536   0.55299   0.00000  Uiso   1.00
C157   C     0.98205   0.26707   0.58461   0.00000  Uiso   1.00
C158   C     0.93644   0.23997   0.51928   0.00000  Uiso   1.00
C159   C     0.99126   0.39238   0.66218   0.00000  Uiso   1.00
C160   C     0.98987   0.40883   0.78560   0.00000  Uiso   1.00
C161   C     0.94783   0.44657   0.81220   0.00000  Uiso   1.00
H162   H     0.93084   0.40526   0.36735   0.00000  Uiso   1.00
H163   H     0.03002   0.43029   0.23160   0.00000  Uiso   1.00
H164   H     0.87184   0.32473   0.32166   0.00000  Uiso   1.00
H165   H     0.87966   0.46648   0.52261   0.00000  Uiso   1.00
H166   H     0.15728   0.44898   0.12234   0.00000  Uiso   1.00
H167   H     0.82373   0.22641   0.31226   0.00000  Uiso   1.00
H168   H     0.84021   0.52530   0.73601   0.00000  Uiso   1.00
H169   H     0.06408   0.33556   0.68527   0.00000  Uiso   1.00
H170   H     0.17058   0.35676   0.56697   0.00000  Uiso   1.00
H171   H     0.01239   0.25120   0.65702   0.00000  Uiso   1.00
H172   H     0.02021   0.39295   0.85798   0.00000  Uiso   1.00
H173   H     0.27136   0.38930   0.39453   0.00000  Uiso   1.00
H174   H     0.93780   0.16673   0.58446   0.00000  Uiso   1.00
H175   H     0.95429   0.46562   0.00821   0.00000  Uiso   1.00
O176   O     0.28197   0.43433   0.17486   0.00000  Uiso   1.00
O177   O     0.84435   0.14233   0.42405   0.00000  Uiso   1.00
O178   O     0.86599   0.53447   0.97999   0.00000  Uiso   1.00
N179   N     0.16951   0.43203   0.20265   0.00000  Uiso   1.00
N180   N     0.85767   0.22394   0.38020   0.00000  Uiso   1.00
N181   N     0.87307   0.50337   0.77638   0.00000  Uiso   1.00
N182   N     0.23090   0.39992   0.34911   0.00000  Uiso   1.00
N183   N     0.91905   0.19183   0.52666   0.00000  Uiso   1.00
N184   N     0.93445   0.47126   0.92284   0.00000  Uiso   1.00
C185   C     0.53863   0.38930   0.94018   0.00000  Uiso   1.00
C186   C     0.46627   0.39323   0.91052   0.00000  Uiso   1.00
C187   C     0.43962   0.41442   0.80399   0.00000  Uiso   1.00
C188   C     0.37228   0.41438   0.79430   0.00000  Uiso   1.00
C189   C     0.26589   0.42359   0.73398   0.00000  Uiso   1.00
C190   C     0.55221   0.33588   0.95944   0.00000  Uiso   1.00
C191   C     0.59782   0.30885   0.89405   0.00000  Uiso   1.00
C192   C     0.60284   0.26052   0.92556   0.00000  Uiso   1.00
C193   C     0.62989   0.18070   0.94125   0.00000  Uiso   1.00
C194   C     0.54795   0.41289   0.06862   0.00000  Uiso   1.00
C195   C     0.59000   0.45061   0.09504   0.00000  Uiso   1.00
C196   C     0.59145   0.46712   0.21848   0.00000  Uiso   1.00
C197   C     0.61191   0.50687   0.40368   0.00000  Uiso   1.00
C198   C     0.46645   0.35153   0.11243   0.00000  Uiso   1.00
C199   C     0.42706   0.37272   0.00408   0.00000  Uiso   1.00
C200   C     0.35975   0.37264   0.99456   0.00000  Uiso   1.00
C201   C     0.33300   0.39383   0.88803   0.00000  Uiso   1.00
C202   C     0.51300   0.31536   0.05299   0.00000  Uiso   1.00
C203   C     0.51795   0.26707   0.08461   0.00000  Uiso   1.00
C204   C     0.56356   0.23997   0.01928   0.00000  Uiso   1.00
C205   C     0.50874   0.39238   0.16218   0.00000  Uiso   1.00
C206   C     0.51013   0.40883   0.28560   0.00000  Uiso   1.00
C207   C     0.55217   0.44657   0.31220   0.00000  Uiso   1.00
H208   H     0.56916   0.40526   0.86735   0.00000  Uiso   1.00
H209   H     0.46998   0.43029   0.73160   0.00000  Uiso   1.00
H210   H     0.62816   0.32473   0.82166   0.00000  Uiso   1.00
H211   H     0.62034   0.46648   0.02261   0.00000  Uiso   1.00
H212   H     0.34272   0.44898   0.62234   0.00000  Uiso   1.00
H213   H     0.67627   0.22641   0.81226   0.00000  Uiso   1.00
H214   H     0.65979   0.52530   0.23601   0.00000  Uiso   1.00
H215   H     0.43592   0.33556   0.18527   0.00000  Uiso   1.00
H216   H     0.32942   0.35676   0.06697   0.00000  Uiso   1.00
H217   H     0.48761   0.25120   0.15702   0.00000  Uiso   1.00
H218   H     0.47979   0.39295   0.35798   0.00000  Uiso   1.00
H219   H     0.22864   0.38930   0.89453   0.00000  Uiso   1.00
H220   H     0.56220   0.16673   0.08446   0.00000  Uiso   1.00
H221   H     0.54571   0.46562   0.50821   0.00000  Uiso   1.00
O222   O     0.21803   0.43433   0.67486   0.00000  Uiso   1.00
O223   O     0.65565   0.14233   0.92405   0.00000  Uiso   1.00
O224   O     0.63401   0.53447   0.47999   0.00000  Uiso   1.00
N225   N     0.33049   0.43203   0.70265   0.00000  Uiso   1.00
N226   N     0.64233   0.22394   0.88020   0.00000  Uiso   1.00
N227   N     0.62693   0.50337   0.27638   0.00000  Uiso   1.00
N228   N     0.26910   0.39992   0.84911   0.00000  Uiso   1.00
N229   N     0.58095   0.19183   0.02666   0.00000  Uiso   1.00
N230   N     0.56555   0.47126   0.42284   0.00000  Uiso   1.00
C231   C     0.53863   0.88930   0.44018   0.00000  Uiso   1.00
C232   C     0.46627   0.89323   0.41052   0.00000  Uiso   1.00
C233   C     0.43962   0.91442   0.30399   0.00000  Uiso   1.00
C234   C     0.37228   0.91438   0.29430   0.00000  Uiso   1.00
C235   C     0.26589   0.92359   0.23398   0.00000  Uiso   1.00
C236   C     0.55221   0.83588   0.45944   0.00000  Uiso   1.00
C237   C     0.59782   0.80885   0.39405   0.00000  Uiso   1.00
C238   C     0.60284   0.76052   0.42556   0.00000  Uiso   1.00
C239   C     0.62989   0.68070   0.44125   0.00000  Uiso   1.00
C240   C     0.54795   0.91289   0.56862   0.00000  Uiso   1.00
C241   C     0.59000   0.95061   0.59504   0.00000  Uiso   1.00
C242   C     0.59145   0.96712   0.71848   0.00000  Uiso   1.00
C243   C     0.61191   0.00687   0.90368   0.00000  Uiso   1.00
C244   C     0.46645   0.85153   0.61243   0.00000  Uiso   1.00
C245   C     0.42706   0.87272   0.50408   0.00000  Uiso   1.00
C246   C     0.35975   0.87264   0.49456   0.00000  Uiso   1.00
C247   C     0.33300   0.89383   0.38803   0.00000  Uiso   1.00
C248   C     0.51300   0.81536   0.55299   0.00000  Uiso   1.00
C249   C     0.51795   0.76707   0.58461   0.00000  Uiso   1.00
C250   C     0.56356   0.73997   0.51928   0.00000  Uiso   1.00
C251   C     0.50874   0.89238   0.66218   0.00000  Uiso   1.00
C252   C     0.51013   0.90883   0.78560   0.00000  Uiso   1.00
C253   C     0.55217   0.94657   0.81220   0.00000  Uiso   1.00
H254   H     0.56916   0.90526   0.36735   0.00000  Uiso   1.00
H255   H     0.46998   0.93029   0.23160   0.00000  Uiso   1.00
H256   H     0.62816   0.82473   0.32166   0.00000  Uiso   1.00
H257   H     0.62034   0.96648   0.52261   0.00000  Uiso   1.00
H258   H     0.34272   0.94898   0.12234   0.00000  Uiso   1.00
H259   H     0.67627   0.72641   0.31226   0.00000  Uiso   1.00
H260   H     0.65979   0.02530   0.73601   0.00000  Uiso   1.00
H261   H     0.43592   0.83556   0.68527   0.00000  Uiso   1.00
H262   H     0.32942   0.85676   0.56697   0.00000  Uiso   1.00
H263   H     0.48761   0.75120   0.65702   0.00000  Uiso   1.00
H264   H     0.47979   0.89295   0.85798   0.00000  Uiso   1.00
H265   H     0.22864   0.88930   0.39453   0.00000  Uiso   1.00
H266   H     0.56220   0.66673   0.58446   0.00000  Uiso   1.00
H267   H     0.54571   0.96562   0.00821   0.00000  Uiso   1.00
O268   O     0.21803   0.93433   0.17486   0.00000  Uiso   1.00
O269   O     0.65565   0.64233   0.42405   0.00000  Uiso   1.00
O270   O     0.63401   0.03447   0.97999   0.00000  Uiso   1.00
N271   N     0.33049   0.93203   0.20265   0.00000  Uiso   1.00
N272   N     0.64233   0.72394   0.38020   0.00000  Uiso   1.00
N273   N     0.62693   0.00337   0.77638   0.00000  Uiso   1.00
N274   N     0.26910   0.89992   0.34911   0.00000  Uiso   1.00
N275   N     0.58095   0.69183   0.52666   0.00000  Uiso   1.00
N276   N     0.56555   0.97126   0.92284   0.00000  Uiso   1.00
C277   C     0.46137   0.61070   0.94018   0.00000  Uiso   1.00
C278   C     0.53373   0.60677   0.91052   0.00000  Uiso   1.00
C279   C     0.56038   0.58558   0.80399   0.00000  Uiso   1.00
C280   C     0.62772   0.58562   0.79430   0.00000  Uiso   1.00
C281   C     0.73411   0.57641   0.73398   0.00000  Uiso   1.00
C282   C     0.44779   0.66412   0.95944   0.00000  Uiso   1.00
C283   C     0.40218   0.69115   0.89405   0.00000  Uiso   1.00
C284   C     0.39716   0.73948   0.92556   0.00000  Uiso   1.00
C285   C     0.37011   0.81930   0.94125   0.00000  Uiso   1.00
C286   C     0.45205   0.58711   0.06862   0.00000  Uiso   1.00
C287   C     0.41000   0.54939   0.09504   0.00000  Uiso   1.00
C288   C     0.40855   0.53288   0.21848   0.00000  Uiso   1.00
C289   C     0.38809   0.49313   0.40368   0.00000  Uiso   1.00
C290   C     0.53355   0.64847   0.11243   0.00000  Uiso   1.00
C291   C     0.57294   0.62728   0.00408   0.00000  Uiso   1.00
C292   C     0.64025   0.62736   0.99456   0.00000  Uiso   1.00
C293   C     0.66700   0.60617   0.88803   0.00000  Uiso   1.00
C294   C     0.48700   0.68464   0.05299   0.00000  Uiso   1.00
C295   C     0.48205   0.73293   0.08461   0.00000  Uiso   1.00
C296   C     0.43644   0.76003   0.01928   0.00000  Uiso   1.00
C297   C     0.49126   0.60762   0.16218   0.00000  Uiso   1.00
C298   C     0.48987   0.59117   0.28560   0.00000  Uiso   1.00
C299   C     0.44783   0.55343   0.31220   0.00000  Uiso   1.00
H300   H     0.43084   0.59474   0.86735   0.00000  Uiso   1.00
H301   H     0.53002   0.56971   0.73160   0.00000  Uiso   1.00
H302   H     0.37184   0.67527   0.82166   0.00000  Uiso   1.00
H303   H     0.37966   0.53352   0.02261   0.00000  Uiso   1.00
H304   H     0.65728   0.55102   0.62234   0.00000  Uiso   1.00
H305   H     0.32373   0.77359   0.81226   0.00000  Uiso   1.00
H306   H     0.34021   0.47470   0.23601   0.00000  Uiso   1.00
H307   H     0.56408   0.66444   0.18527   0.00000  Uiso   1.00
H308   H     0.67058   0.64324   0.06697   0.00000  Uiso   1.00
H309   H     0.51239   0.74880   0.15702   0.00000  Uiso   1.00
H310   H     0.52021   0.60705   0.35798   0.00000  Uiso   1.00
H311   H     0.77136   0.61070   0.89453   0.00000  Uiso   1.00
H312   H     0.43780   0.83327   0.08446   0.00000  Uiso   1.00
H313   H     0.45429   0.53438   0.50821   0.00000  Uiso   1.00
O314   O     0.78197   0.56567   0.67486   0.00000  Uiso   1.00
O315   O     0.34435   0.85767   0.92405   0.00000  Uiso   1.00
O316   O     0.36599   0.46553   0.47999   0.00000  Uiso   1.00
N317   N     0.66951   0.56797   0.70265   0.00000  Uiso   1.00
N318   N     0.35767   0.77606   0.88020   0.00000  Uiso   1.00
N319   N     0.37307   0.49663   0.27638   0.00000  Uiso   1.00
N320   N     0.73090   0.60008   0.84911   0.00000  Uiso   1.00
N321   N     0.41905   0.80817   0.02666   0.00000  Uiso   1.00
N322   N     0.43445   0.52874   0.42284   0.00000  Uiso   1.00
C323   C     0.46137   0.11070   0.44018   0.00000  Uiso   1.00
C324   C     0.53373   0.10677   0.41052   0.00000  Uiso   1.00
C325   C     0.56038   0.08558   0.30399   0.00000  Uiso   1.00
C326   C     0.62772   0.08562   0.29430   0.00000  Uiso   1.00
C327   C     0.73411   0.07641   0.23398   0.00000  Uiso   1.00
C328   C     0.44779   0.16412   0.45944   0.00000  Uiso   1.00
C329   C     0.40218   0.19115   0.39405   0.00000  Uiso   1.00
C330   C     0.39716   0.23948   0.42556   0.00000  Uiso   1.00
C331   C     0.37011   0.31930   0.44125   0.00000  Uiso   1.00
C332   C     0.45205   0.08711   0.56862   0.00000  Uiso   1.00
C333   C     0.41000   0.04939   0.59504   0.00000  Uiso   1.00
C334   C     0.40855   0.03288   0.71848   0.00000  Uiso   1.00
C335   C     0.38809   0.99313   0.90368   0.00000  Uiso   1.00
C336   C     0.53355   0.14847   0.61243   0.00000  Uiso   1.00
C337   C     0.57294   0.12728   0.50408   0.00000  Uiso   1.00
C338   C     0.64025   0.12736   0.49456   0.00000  Uiso   1.00
C339   C     0.66700   0.10617   0.38803   0.00000  Uiso   1.00
C340   C     0.48700   0.18464   0.55299   0.00000  Uiso   1.00
C341   C     0.48205   0.23293   0.58461   0.00000  Uiso   1.00
C342   C     0.43644   0.26003   0.51928   0.00000  Uiso   1.00
C343   C     0.49126   0.10762   0.66218   0.00000  Uiso   1.00
C344   C     0.48987   0.09117   0.78560   0.00000  Uiso   1.00
C345   C     0.44783   0.05343   0.81220   0.00000  Uiso   1.00
H346   H     0.43084   0.09474   0.36735   0.00000  Uiso   1.00
H347   H     0.53002   0.06971   0.23160   0.00000  Uiso   1.00
H348   H     0.37184   0.17527   0.32166   0.00000  Uiso   1.00
H349   H     0.37966   0.03352   0.52261   0.00000  Uiso   1.00
H350   H     0.65728   0.05102   0.12234   0.00000  Uiso   1.00
H351   H     0.32373   0.27359   0.31226   0.00000  Uiso   1.00
H352   H     0.34021   0.97470   0.73601   0.00000  Uiso   1.00
H353   H     0.56408   0.16444   0.68527   0.00000  Uiso   1.00
H354   H     0.67058   0.14324   0.56697   0.00000  Uiso   1.00
H355   H     0.51239   0.24880   0.65702   0.00000  Uiso   1.00
H356   H     0.52021   0.10705   0.85798   0.00000  Uiso   1.00
H357   H     0.77136   0.11070   0.39453   0.00000  Uiso   1.00
H358   H     0.43780   0.33327   0.58446   0.00000  Uiso   1.00
H359   H     0.45429   0.03438   0.00821   0.00000  Uiso   1.00
O360   O     0.78197   0.06567   0.17486   0.00000  Uiso   1.00
O361   O     0.34435   0.35767   0.42405   0.00000  Uiso   1.00
O362   O     0.36599   0.96553   0.97999   0.00000  Uiso   1.00
N363   N     0.66951   0.06797   0.20265   0.00000  Uiso   1.00
N364   N     0.35767   0.27606   0.38020   0.00000  Uiso   1.00
N365   N     0.37307   0.99663   0.77638   0.00000  Uiso   1.00
N366   N     0.73090   0.10008   0.34911   0.00000  Uiso   1.00
N367   N     0.41905   0.30817   0.52666   0.00000  Uiso   1.00
N368   N     0.43445   0.02874   0.92284   0.00000  Uiso   1.00
