data_job_04586
_audit_creation_date              2018-12-19
_audit_creation_method            'Materials Studio'
_symmetry_space_group_name_H-M    'P1'
_symmetry_Int_Tables_number       1
_symmetry_cell_setting            triclinic
loop_
_symmetry_equiv_pos_as_xyz
  x,y,z
_cell_length_a                    35.5988
_cell_length_b                    12.6147
_cell_length_c                    21.4492
_cell_angle_alpha                 90.0000
_cell_angle_beta                  148.5571
_cell_angle_gamma                 90.0000
loop_
_atom_site_label
_atom_site_type_symbol
_atom_site_fract_x
_atom_site_fract_y
_atom_site_fract_z
_atom_site_U_iso_or_equiv
_atom_site_adp_type
_atom_site_occupancy
C1     C     0.73314   0.59674   0.37726   0.00000  Uiso   1.00
C2     C     0.74111   0.50976   0.33966   0.00000  Uiso   1.00
C3     C     0.70890   0.41056   0.29621   0.00000  Uiso   1.00
C4     C     0.72291   0.34220   0.26679   0.00000  Uiso   1.00
C5     C     0.72852   0.20257   0.20640   0.00000  Uiso   1.00
C6     C     0.80935   0.62420   0.50615   0.00000  Uiso   1.00
C7     C     0.83451   0.62123   0.60268   0.00000  Uiso   1.00
C8     C     0.90598   0.64923   0.71342   0.00000  Uiso   1.00
C9     C     0.01753   0.68735   0.91149   0.00000  Uiso   1.00
C10    C     0.70527   0.69397   0.30312   0.00000  Uiso   1.00
C11    C     0.64292   0.74969   0.22897   0.00000  Uiso   1.00
C12    C     0.62676   0.83644   0.16879   0.00000  Uiso   1.00
C13    C     0.57671   0.98289   0.05163   0.00000  Uiso   1.00
C14    C     0.81530   0.65176   0.40227   0.00000  Uiso   1.00
C15    C     0.78574   0.53964   0.35325   0.00000  Uiso   1.00
C16    C     0.79980   0.47142   0.32388   0.00000  Uiso   1.00
C17    C     0.76762   0.37214   0.28040   0.00000  Uiso   1.00
C18    C     0.85398   0.65408   0.51974   0.00000  Uiso   1.00
C19    C     0.92542   0.68210   0.63035   0.00000  Uiso   1.00
C20    C     0.95069   0.67917   0.72703   0.00000  Uiso   1.00
C21    C     0.74989   0.72385   0.31670   0.00000  Uiso   1.00
C22    C     0.73383   0.81055   0.25664   0.00000  Uiso   1.00
C23    C     0.67148   0.86638   0.18240   0.00000  Uiso   1.00
H24    H     0.69839   0.57348   0.36669   0.00000  Uiso   1.00
H25    H     0.67437   0.38746   0.28572   0.00000  Uiso   1.00
H26    H     0.79996   0.59811   0.59214   0.00000  Uiso   1.00
H27    H     0.60840   0.72654   0.21848   0.00000  Uiso   1.00
H28    H     0.66743   0.19438   0.20199   0.00000  Uiso   1.00
H29    H     0.93225   0.63859   0.84808   0.00000  Uiso   1.00
H30    H     0.52831   0.90941   0.06015   0.00000  Uiso   1.00
H31    H     0.85005   0.67502   0.41285   0.00000  Uiso   1.00
H32    H     0.83434   0.49457   0.33441   0.00000  Uiso   1.00
H33    H     0.95994   0.70522   0.64083   0.00000  Uiso   1.00
H34    H     0.76838   0.83365   0.26717   0.00000  Uiso   1.00
H35    H     0.79727   0.28132   0.24151   0.00000  Uiso   1.00
H36    H     0.06209   0.72553   0.88760   0.00000  Uiso   1.00
H37    H     0.65815   0.99634   0.09967   0.00000  Uiso   1.00
O38    O     0.71930   0.11730   0.16935   0.00000  Uiso   1.00
O39    O     0.06673   0.70010   0.01699   0.00000  Uiso   1.00
O40    O     0.53677   0.05540   0.98324   0.00000  Uiso   1.00
N41    N     0.70013   0.23961   0.22203   0.00000  Uiso   1.00
N42    N     0.94773   0.65491   0.82609   0.00000  Uiso   1.00
N43    N     0.57008   0.90812   0.08947   0.00000  Uiso   1.00
N44    N     0.77000   0.28639   0.24329   0.00000  Uiso   1.00
N45    N     0.01759   0.70169   0.84735   0.00000  Uiso   1.00
N46    N     0.63995   0.95490   0.11073   0.00000  Uiso   1.00
C47    C     0.74863   0.04117   0.45444   0.00000  Uiso   1.00
C48    C     0.77856   0.12858   0.53854   0.00000  Uiso   1.00
C49    C     0.74942   0.22914   0.50446   0.00000  Uiso   1.00
C50    C     0.78481   0.29767   0.59491   0.00000  Uiso   1.00
C51    C     0.82183   0.43814   0.70722   0.00000  Uiso   1.00
C52    C     0.80980   0.00994   0.49733   0.00000  Uiso   1.00
C53    C     0.80691   0.01073   0.42859   0.00000  Uiso   1.00
C54    C     0.86860   0.97937   0.48434   0.00000  Uiso   1.00
C55    C     0.95410   0.93556   0.53263   0.00000  Uiso   1.00
C56    C     0.73611   0.94584   0.47907   0.00000  Uiso   1.00
C57    C     0.67128   0.89272   0.39497   0.00000  Uiso   1.00
C58    C     0.67092   0.80736   0.43535   0.00000  Uiso   1.00
C59    C     0.64202   0.66404   0.45530   0.00000  Uiso   1.00
C60    C     0.86330   0.98404   0.67567   0.00000  Uiso   1.00
C61    C     0.84085   0.09755   0.65870   0.00000  Uiso   1.00
C62    C     0.87629   0.16594   0.74923   0.00000  Uiso   1.00
C63    C     0.84720   0.26658   0.71529   0.00000  Uiso   1.00
C64    C     0.87208   0.97891   0.61748   0.00000  Uiso   1.00
C65    C     0.93378   0.94752   0.67335   0.00000  Uiso   1.00
C66    C     0.93099   0.94828   0.60472   0.00000  Uiso   1.00
C67    C     0.79839   0.91481   0.59923   0.00000  Uiso   1.00
C68    C     0.79815   0.82951   0.63974   0.00000  Uiso   1.00
C69    C     0.73332   0.77628   0.55573   0.00000  Uiso   1.00
H70    H     0.70014   0.06533   0.36089   0.00000  Uiso   1.00
H71    H     0.70122   0.25313   0.41146   0.00000  Uiso   1.00
H72    H     0.75870   0.03474   0.33560   0.00000  Uiso   1.00
H73    H     0.62309   0.91675   0.30200   0.00000  Uiso   1.00
H74    H     0.72990   0.44768   0.52052   0.00000  Uiso   1.00
H75    H     0.85110   0.98716   0.36055   0.00000  Uiso   1.00
H76    H     0.56513   0.73835   0.28969   0.00000  Uiso   1.00
H77    H     0.91179   0.95987   0.76923   0.00000  Uiso   1.00
H78    H     0.92448   0.14190   0.84221   0.00000  Uiso   1.00
H79    H     0.98197   0.92351   0.76634   0.00000  Uiso   1.00
H80    H     0.84635   0.80552   0.73273   0.00000  Uiso   1.00
H81    H     0.91111   0.35740   0.87013   0.00000  Uiso   1.00
H82    H     0.03231   0.89687   0.71015   0.00000  Uiso   1.00
H83    H     0.74634   0.64807   0.63929   0.00000  Uiso   1.00
O84    O     0.82505   0.52419   0.73597   0.00000  Uiso   1.00
O85    O     0.98405   0.91999   0.52608   0.00000  Uiso   1.00
O86    O     0.60887   0.59356   0.43311   0.00000  Uiso   1.00
N87    N     0.77080   0.40144   0.59279   0.00000  Uiso   1.00
N88    N     0.88412   0.97090   0.44322   0.00000  Uiso   1.00
N89    N     0.61676   0.73827   0.37697   0.00000  Uiso   1.00
N90    N     0.86831   0.35287   0.78091   0.00000  Uiso   1.00
N91    N     0.98162   0.92232   0.63134   0.00000  Uiso   1.00
N92    N     0.71427   0.68969   0.56509   0.00000  Uiso   1.00
C93    C     0.26686   0.09674   0.12274   0.00000  Uiso   1.00
C94    C     0.25889   0.00976   0.16034   0.00000  Uiso   1.00
C95    C     0.29110   0.91056   0.20379   0.00000  Uiso   1.00
C96    C     0.27709   0.84220   0.23321   0.00000  Uiso   1.00
C97    C     0.27148   0.70257   0.29360   0.00000  Uiso   1.00
C98    C     0.19065   0.12420   0.99385   0.00000  Uiso   1.00
C99    C     0.16549   0.12123   0.89732   0.00000  Uiso   1.00
C100   C     0.09402   0.14923   0.78658   0.00000  Uiso   1.00
C101   C     0.98247   0.18735   0.58851   0.00000  Uiso   1.00
C102   C     0.29473   0.19397   0.19688   0.00000  Uiso   1.00
C103   C     0.35708   0.24969   0.27103   0.00000  Uiso   1.00
C104   C     0.37324   0.33644   0.33121   0.00000  Uiso   1.00
C105   C     0.42329   0.48289   0.44837   0.00000  Uiso   1.00
C106   C     0.18470   0.15176   0.09773   0.00000  Uiso   1.00
C107   C     0.21426   0.03964   0.14675   0.00000  Uiso   1.00
C108   C     0.20020   0.97142   0.17612   0.00000  Uiso   1.00
C109   C     0.23238   0.87214   0.21960   0.00000  Uiso   1.00
C110   C     0.14602   0.15408   0.98026   0.00000  Uiso   1.00
C111   C     0.07458   0.18210   0.86965   0.00000  Uiso   1.00
C112   C     0.04931   0.17917   0.77297   0.00000  Uiso   1.00
C113   C     0.25011   0.22385   0.18330   0.00000  Uiso   1.00
C114   C     0.26617   0.31055   0.24336   0.00000  Uiso   1.00
C115   C     0.32852   0.36638   0.31760   0.00000  Uiso   1.00
H116   H     0.30161   0.07348   0.13331   0.00000  Uiso   1.00
H117   H     0.32563   0.88746   0.21428   0.00000  Uiso   1.00
H118   H     0.20004   0.09811   0.90786   0.00000  Uiso   1.00
H119   H     0.39160   0.22654   0.28152   0.00000  Uiso   1.00
H120   H     0.33257   0.69438   0.29801   0.00000  Uiso   1.00
H121   H     0.06775   0.13859   0.65192   0.00000  Uiso   1.00
H122   H     0.47169   0.40941   0.43985   0.00000  Uiso   1.00
H123   H     0.14995   0.17502   0.08715   0.00000  Uiso   1.00
H124   H     0.16566   0.99457   0.16559   0.00000  Uiso   1.00
H125   H     0.04006   0.20522   0.85917   0.00000  Uiso   1.00
H126   H     0.23162   0.33365   0.23283   0.00000  Uiso   1.00
H127   H     0.20273   0.78132   0.25849   0.00000  Uiso   1.00
H128   H     0.93791   0.22553   0.61240   0.00000  Uiso   1.00
H129   H     0.34185   0.49634   0.40033   0.00000  Uiso   1.00
O130   O     0.28070   0.61730   0.33065   0.00000  Uiso   1.00
O131   O     0.93327   0.20010   0.48301   0.00000  Uiso   1.00
O132   O     0.46323   0.55540   0.51676   0.00000  Uiso   1.00
N133   N     0.29987   0.73961   0.27797   0.00000  Uiso   1.00
N134   N     0.05227   0.15491   0.67391   0.00000  Uiso   1.00
N135   N     0.42992   0.40812   0.41053   0.00000  Uiso   1.00
N136   N     0.23000   0.78639   0.25671   0.00000  Uiso   1.00
N137   N     0.98241   0.20169   0.65265   0.00000  Uiso   1.00
N138   N     0.36005   0.45490   0.38927   0.00000  Uiso   1.00
C139   C     0.25137   0.54117   0.04556   0.00000  Uiso   1.00
C140   C     0.22144   0.62858   0.96146   0.00000  Uiso   1.00
C141   C     0.25058   0.72914   0.99554   0.00000  Uiso   1.00
C142   C     0.21519   0.79767   0.90509   0.00000  Uiso   1.00
C143   C     0.17817   0.93814   0.79278   0.00000  Uiso   1.00
C144   C     0.19020   0.50994   0.00267   0.00000  Uiso   1.00
C145   C     0.19309   0.51073   0.07141   0.00000  Uiso   1.00
C146   C     0.13140   0.47937   0.01566   0.00000  Uiso   1.00
C147   C     0.04590   0.43556   0.96737   0.00000  Uiso   1.00
C148   C     0.26389   0.44584   0.02093   0.00000  Uiso   1.00
C149   C     0.32872   0.39272   0.10503   0.00000  Uiso   1.00
C150   C     0.32908   0.30736   0.06465   0.00000  Uiso   1.00
C151   C     0.35798   0.16404   0.04470   0.00000  Uiso   1.00
C152   C     0.13670   0.48404   0.82433   0.00000  Uiso   1.00
C153   C     0.15915   0.59755   0.84130   0.00000  Uiso   1.00
C154   C     0.12371   0.66594   0.75077   0.00000  Uiso   1.00
C155   C     0.15280   0.76658   0.78471   0.00000  Uiso   1.00
C156   C     0.12792   0.47891   0.88252   0.00000  Uiso   1.00
C157   C     0.06622   0.44752   0.82665   0.00000  Uiso   1.00
C158   C     0.06901   0.44828   0.89528   0.00000  Uiso   1.00
C159   C     0.20161   0.41481   0.90077   0.00000  Uiso   1.00
C160   C     0.20185   0.32951   0.86026   0.00000  Uiso   1.00
C161   C     0.26668   0.27628   0.94427   0.00000  Uiso   1.00
H162   H     0.29986   0.56533   0.13911   0.00000  Uiso   1.00
H163   H     0.29878   0.75313   0.08854   0.00000  Uiso   1.00
H164   H     0.24130   0.53474   0.16440   0.00000  Uiso   1.00
H165   H     0.37691   0.41675   0.19800   0.00000  Uiso   1.00
H166   H     0.27010   0.94768   0.97948   0.00000  Uiso   1.00
H167   H     0.14890   0.48716   0.13945   0.00000  Uiso   1.00
H168   H     0.43487   0.23835   0.21031   0.00000  Uiso   1.00
H169   H     0.08821   0.45987   0.73077   0.00000  Uiso   1.00
H170   H     0.07552   0.64190   0.65779   0.00000  Uiso   1.00
H171   H     0.01803   0.42351   0.73366   0.00000  Uiso   1.00
H172   H     0.15365   0.30552   0.76727   0.00000  Uiso   1.00
H173   H     0.08889   0.85740   0.62987   0.00000  Uiso   1.00
H174   H     0.96769   0.39687   0.78985   0.00000  Uiso   1.00
H175   H     0.25366   0.14807   0.86071   0.00000  Uiso   1.00
O176   O     0.17495   0.02419   0.76403   0.00000  Uiso   1.00
O177   O     0.01595   0.41999   0.97392   0.00000  Uiso   1.00
O178   O     0.39113   0.09356   0.06689   0.00000  Uiso   1.00
N179   N     0.22920   0.90144   0.90721   0.00000  Uiso   1.00
N180   N     0.11588   0.47090   0.05678   0.00000  Uiso   1.00
N181   N     0.38324   0.23827   0.12303   0.00000  Uiso   1.00
N182   N     0.13169   0.85287   0.71909   0.00000  Uiso   1.00
N183   N     0.01838   0.42232   0.86866   0.00000  Uiso   1.00
N184   N     0.28573   0.18969   0.93491   0.00000  Uiso   1.00
C185   C     0.26686   0.40326   0.62274   0.00000  Uiso   1.00
C186   C     0.25889   0.49024   0.66034   0.00000  Uiso   1.00
C187   C     0.29110   0.58944   0.70379   0.00000  Uiso   1.00
C188   C     0.27709   0.65780   0.73321   0.00000  Uiso   1.00
C189   C     0.27148   0.79743   0.79360   0.00000  Uiso   1.00
C190   C     0.19065   0.37580   0.49385   0.00000  Uiso   1.00
C191   C     0.16549   0.37877   0.39732   0.00000  Uiso   1.00
C192   C     0.09402   0.35077   0.28658   0.00000  Uiso   1.00
C193   C     0.98247   0.31265   0.08851   0.00000  Uiso   1.00
C194   C     0.29473   0.30603   0.69688   0.00000  Uiso   1.00
C195   C     0.35708   0.25031   0.77103   0.00000  Uiso   1.00
C196   C     0.37324   0.16356   0.83121   0.00000  Uiso   1.00
C197   C     0.42329   0.01711   0.94837   0.00000  Uiso   1.00
C198   C     0.18470   0.34824   0.59773   0.00000  Uiso   1.00
C199   C     0.21426   0.46036   0.64675   0.00000  Uiso   1.00
C200   C     0.20020   0.52858   0.67612   0.00000  Uiso   1.00
C201   C     0.23238   0.62786   0.71960   0.00000  Uiso   1.00
C202   C     0.14602   0.34592   0.48026   0.00000  Uiso   1.00
C203   C     0.07458   0.31790   0.36965   0.00000  Uiso   1.00
C204   C     0.04931   0.32083   0.27297   0.00000  Uiso   1.00
C205   C     0.25011   0.27615   0.68330   0.00000  Uiso   1.00
C206   C     0.26617   0.18945   0.74336   0.00000  Uiso   1.00
C207   C     0.32852   0.13362   0.81760   0.00000  Uiso   1.00
H208   H     0.30161   0.42652   0.63331   0.00000  Uiso   1.00
H209   H     0.32563   0.61254   0.71428   0.00000  Uiso   1.00
H210   H     0.20004   0.40189   0.40786   0.00000  Uiso   1.00
H211   H     0.39160   0.27346   0.78152   0.00000  Uiso   1.00
H212   H     0.33257   0.80562   0.79801   0.00000  Uiso   1.00
H213   H     0.06775   0.36141   0.15192   0.00000  Uiso   1.00
H214   H     0.47169   0.09059   0.93985   0.00000  Uiso   1.00
H215   H     0.14995   0.32498   0.58715   0.00000  Uiso   1.00
H216   H     0.16566   0.50543   0.66559   0.00000  Uiso   1.00
H217   H     0.04006   0.29478   0.35917   0.00000  Uiso   1.00
H218   H     0.23162   0.16635   0.73283   0.00000  Uiso   1.00
H219   H     0.20273   0.71868   0.75849   0.00000  Uiso   1.00
H220   H     0.93791   0.27447   0.11240   0.00000  Uiso   1.00
H221   H     0.34185   0.00366   0.90033   0.00000  Uiso   1.00
O222   O     0.28070   0.88270   0.83065   0.00000  Uiso   1.00
O223   O     0.93327   0.29990   0.98301   0.00000  Uiso   1.00
O224   O     0.46323   0.94460   0.01676   0.00000  Uiso   1.00
N225   N     0.29987   0.76039   0.77797   0.00000  Uiso   1.00
N226   N     0.05227   0.34509   0.17391   0.00000  Uiso   1.00
N227   N     0.42992   0.09188   0.91053   0.00000  Uiso   1.00
N228   N     0.23000   0.71361   0.75671   0.00000  Uiso   1.00
N229   N     0.98241   0.29831   0.15265   0.00000  Uiso   1.00
N230   N     0.36005   0.04510   0.88927   0.00000  Uiso   1.00
C231   C     0.25137   0.95883   0.54556   0.00000  Uiso   1.00
C232   C     0.22144   0.87142   0.46146   0.00000  Uiso   1.00
C233   C     0.25058   0.77086   0.49554   0.00000  Uiso   1.00
C234   C     0.21519   0.70233   0.40509   0.00000  Uiso   1.00
C235   C     0.17817   0.56186   0.29278   0.00000  Uiso   1.00
C236   C     0.19020   0.99006   0.50267   0.00000  Uiso   1.00
C237   C     0.19309   0.98927   0.57141   0.00000  Uiso   1.00
C238   C     0.13140   0.02063   0.51566   0.00000  Uiso   1.00
C239   C     0.04590   0.06444   0.46737   0.00000  Uiso   1.00
C240   C     0.26389   0.05416   0.52093   0.00000  Uiso   1.00
C241   C     0.32872   0.10728   0.60503   0.00000  Uiso   1.00
C242   C     0.32908   0.19264   0.56465   0.00000  Uiso   1.00
C243   C     0.35798   0.33596   0.54470   0.00000  Uiso   1.00
C244   C     0.13670   0.01596   0.32433   0.00000  Uiso   1.00
C245   C     0.15915   0.90245   0.34130   0.00000  Uiso   1.00
C246   C     0.12371   0.83406   0.25077   0.00000  Uiso   1.00
C247   C     0.15280   0.73342   0.28471   0.00000  Uiso   1.00
C248   C     0.12792   0.02109   0.38252   0.00000  Uiso   1.00
C249   C     0.06622   0.05248   0.32665   0.00000  Uiso   1.00
C250   C     0.06901   0.05172   0.39528   0.00000  Uiso   1.00
C251   C     0.20161   0.08519   0.40077   0.00000  Uiso   1.00
C252   C     0.20185   0.17049   0.36026   0.00000  Uiso   1.00
C253   C     0.26668   0.22372   0.44427   0.00000  Uiso   1.00
H254   H     0.29986   0.93467   0.63911   0.00000  Uiso   1.00
H255   H     0.29878   0.74687   0.58854   0.00000  Uiso   1.00
H256   H     0.24130   0.96526   0.66440   0.00000  Uiso   1.00
H257   H     0.37691   0.08325   0.69800   0.00000  Uiso   1.00
H258   H     0.27010   0.55232   0.47948   0.00000  Uiso   1.00
H259   H     0.14890   0.01284   0.63945   0.00000  Uiso   1.00
H260   H     0.43487   0.26165   0.71031   0.00000  Uiso   1.00
H261   H     0.08821   0.04013   0.23077   0.00000  Uiso   1.00
H262   H     0.07552   0.85810   0.15779   0.00000  Uiso   1.00
H263   H     0.01803   0.07649   0.23366   0.00000  Uiso   1.00
H264   H     0.15365   0.19448   0.26727   0.00000  Uiso   1.00
H265   H     0.08889   0.64260   0.12987   0.00000  Uiso   1.00
H266   H     0.96769   0.10313   0.28985   0.00000  Uiso   1.00
H267   H     0.25366   0.35193   0.36071   0.00000  Uiso   1.00
O268   O     0.17495   0.47581   0.26403   0.00000  Uiso   1.00
O269   O     0.01595   0.08001   0.47392   0.00000  Uiso   1.00
O270   O     0.39113   0.40644   0.56689   0.00000  Uiso   1.00
N271   N     0.22920   0.59856   0.40721   0.00000  Uiso   1.00
N272   N     0.11588   0.02910   0.55678   0.00000  Uiso   1.00
N273   N     0.38324   0.26173   0.62303   0.00000  Uiso   1.00
N274   N     0.13169   0.64713   0.21909   0.00000  Uiso   1.00
N275   N     0.01838   0.07768   0.36866   0.00000  Uiso   1.00
N276   N     0.28573   0.31031   0.43491   0.00000  Uiso   1.00
C277   C     0.73314   0.90326   0.87726   0.00000  Uiso   1.00
C278   C     0.74111   0.99024   0.83966   0.00000  Uiso   1.00
C279   C     0.70890   0.08944   0.79621   0.00000  Uiso   1.00
C280   C     0.72291   0.15780   0.76679   0.00000  Uiso   1.00
C281   C     0.72852   0.29743   0.70640   0.00000  Uiso   1.00
C282   C     0.80935   0.87580   0.00615   0.00000  Uiso   1.00
C283   C     0.83451   0.87877   0.10268   0.00000  Uiso   1.00
C284   C     0.90598   0.85077   0.21342   0.00000  Uiso   1.00
C285   C     0.01753   0.81265   0.41149   0.00000  Uiso   1.00
C286   C     0.70527   0.80603   0.80312   0.00000  Uiso   1.00
C287   C     0.64292   0.75031   0.72897   0.00000  Uiso   1.00
C288   C     0.62676   0.66356   0.66879   0.00000  Uiso   1.00
C289   C     0.57671   0.51711   0.55163   0.00000  Uiso   1.00
C290   C     0.81530   0.84824   0.90227   0.00000  Uiso   1.00
C291   C     0.78574   0.96036   0.85325   0.00000  Uiso   1.00
C292   C     0.79980   0.02858   0.82388   0.00000  Uiso   1.00
C293   C     0.76762   0.12786   0.78040   0.00000  Uiso   1.00
C294   C     0.85398   0.84592   0.01974   0.00000  Uiso   1.00
C295   C     0.92542   0.81790   0.13035   0.00000  Uiso   1.00
C296   C     0.95069   0.82083   0.22703   0.00000  Uiso   1.00
C297   C     0.74989   0.77615   0.81670   0.00000  Uiso   1.00
C298   C     0.73383   0.68945   0.75664   0.00000  Uiso   1.00
C299   C     0.67148   0.63362   0.68240   0.00000  Uiso   1.00
H300   H     0.69839   0.92652   0.86669   0.00000  Uiso   1.00
H301   H     0.67437   0.11254   0.78572   0.00000  Uiso   1.00
H302   H     0.79996   0.90189   0.09214   0.00000  Uiso   1.00
H303   H     0.60840   0.77346   0.71848   0.00000  Uiso   1.00
H304   H     0.66743   0.30562   0.70199   0.00000  Uiso   1.00
H305   H     0.93225   0.86141   0.34808   0.00000  Uiso   1.00
H306   H     0.52831   0.59059   0.56015   0.00000  Uiso   1.00
H307   H     0.85005   0.82498   0.91285   0.00000  Uiso   1.00
H308   H     0.83434   0.00543   0.83441   0.00000  Uiso   1.00
H309   H     0.95994   0.79478   0.14083   0.00000  Uiso   1.00
H310   H     0.76838   0.66635   0.76717   0.00000  Uiso   1.00
H311   H     0.79727   0.21868   0.74151   0.00000  Uiso   1.00
H312   H     0.06209   0.77447   0.38760   0.00000  Uiso   1.00
H313   H     0.65815   0.50366   0.59967   0.00000  Uiso   1.00
O314   O     0.71930   0.38270   0.66935   0.00000  Uiso   1.00
O315   O     0.06673   0.79990   0.51699   0.00000  Uiso   1.00
O316   O     0.53677   0.44460   0.48324   0.00000  Uiso   1.00
N317   N     0.70013   0.26039   0.72203   0.00000  Uiso   1.00
N318   N     0.94773   0.84509   0.32609   0.00000  Uiso   1.00
N319   N     0.57008   0.59188   0.58947   0.00000  Uiso   1.00
N320   N     0.77000   0.21361   0.74329   0.00000  Uiso   1.00
N321   N     0.01759   0.79831   0.34735   0.00000  Uiso   1.00
N322   N     0.63995   0.54510   0.61073   0.00000  Uiso   1.00
C323   C     0.74863   0.45883   0.95444   0.00000  Uiso   1.00
C324   C     0.77856   0.37142   0.03854   0.00000  Uiso   1.00
C325   C     0.74942   0.27086   0.00446   0.00000  Uiso   1.00
C326   C     0.78481   0.20233   0.09491   0.00000  Uiso   1.00
C327   C     0.82183   0.06186   0.20722   0.00000  Uiso   1.00
C328   C     0.80980   0.49006   0.99733   0.00000  Uiso   1.00
C329   C     0.80691   0.48927   0.92859   0.00000  Uiso   1.00
C330   C     0.86860   0.52063   0.98434   0.00000  Uiso   1.00
C331   C     0.95410   0.56444   0.03263   0.00000  Uiso   1.00
C332   C     0.73611   0.55416   0.97907   0.00000  Uiso   1.00
C333   C     0.67128   0.60728   0.89497   0.00000  Uiso   1.00
C334   C     0.67092   0.69264   0.93535   0.00000  Uiso   1.00
C335   C     0.64202   0.83596   0.95530   0.00000  Uiso   1.00
C336   C     0.86330   0.51596   0.17567   0.00000  Uiso   1.00
C337   C     0.84085   0.40245   0.15870   0.00000  Uiso   1.00
C338   C     0.87629   0.33406   0.24923   0.00000  Uiso   1.00
C339   C     0.84720   0.23342   0.21529   0.00000  Uiso   1.00
C340   C     0.87208   0.52109   0.11748   0.00000  Uiso   1.00
C341   C     0.93378   0.55248   0.17335   0.00000  Uiso   1.00
C342   C     0.93099   0.55172   0.10472   0.00000  Uiso   1.00
C343   C     0.79839   0.58519   0.09923   0.00000  Uiso   1.00
C344   C     0.79815   0.67049   0.13974   0.00000  Uiso   1.00
C345   C     0.73332   0.72372   0.05573   0.00000  Uiso   1.00
H346   H     0.70014   0.43467   0.86089   0.00000  Uiso   1.00
H347   H     0.70122   0.24687   0.91146   0.00000  Uiso   1.00
H348   H     0.75870   0.46526   0.83560   0.00000  Uiso   1.00
H349   H     0.62309   0.58325   0.80200   0.00000  Uiso   1.00
H350   H     0.72990   0.05232   0.02052   0.00000  Uiso   1.00
H351   H     0.85110   0.51284   0.86055   0.00000  Uiso   1.00
H352   H     0.56513   0.76165   0.78969   0.00000  Uiso   1.00
H353   H     0.91179   0.54013   0.26923   0.00000  Uiso   1.00
H354   H     0.92448   0.35810   0.34221   0.00000  Uiso   1.00
H355   H     0.98197   0.57649   0.26634   0.00000  Uiso   1.00
H356   H     0.84635   0.69448   0.23273   0.00000  Uiso   1.00
H357   H     0.91111   0.14260   0.37013   0.00000  Uiso   1.00
H358   H     0.03231   0.60313   0.21015   0.00000  Uiso   1.00
H359   H     0.74634   0.85193   0.13929   0.00000  Uiso   1.00
O360   O     0.82505   0.97581   0.23597   0.00000  Uiso   1.00
O361   O     0.98405   0.58001   0.02608   0.00000  Uiso   1.00
O362   O     0.60887   0.90644   0.93311   0.00000  Uiso   1.00
N363   N     0.77080   0.09856   0.09279   0.00000  Uiso   1.00
N364   N     0.88412   0.52910   0.94322   0.00000  Uiso   1.00
N365   N     0.61676   0.76173   0.87697   0.00000  Uiso   1.00
N366   N     0.86831   0.14713   0.28091   0.00000  Uiso   1.00
N367   N     0.98162   0.57768   0.13134   0.00000  Uiso   1.00
N368   N     0.71427   0.81031   0.06509   0.00000  Uiso   1.00
