data_job_06510
_audit_creation_date              2018-12-19
_audit_creation_method            'Materials Studio'
_symmetry_space_group_name_H-M    'P1'
_symmetry_Int_Tables_number       1
_symmetry_cell_setting            triclinic
loop_
_symmetry_equiv_pos_as_xyz
  x,y,z
_cell_length_a                    20.4302
_cell_length_b                    17.1894
_cell_length_c                    21.2426
_cell_angle_alpha                 107.5160
_cell_angle_beta                  95.4539
_cell_angle_gamma                 78.9433
loop_
_atom_site_label
_atom_site_type_symbol
_atom_site_fract_x
_atom_site_fract_y
_atom_site_fract_z
_atom_site_U_iso_or_equiv
_atom_site_adp_type
_atom_site_occupancy
C1     C     0.60436   0.70561   0.42838   0.00000  Uiso   1.00
C2     C     0.61799   0.78466   0.48030   0.00000  Uiso   1.00
C3     C     0.59417   0.81420   0.54369   0.00000  Uiso   1.00
C4     C     0.61225   0.88768   0.58370   0.00000  Uiso   1.00
C5     C     0.62724   0.00402   0.66776   0.00000  Uiso   1.00
C6     C     0.57356   0.73179   0.36806   0.00000  Uiso   1.00
C7     C     0.51239   0.71686   0.33707   0.00000  Uiso   1.00
C8     C     0.49308   0.74584   0.28259   0.00000  Uiso   1.00
C9     C     0.43911   0.78003   0.19236   0.00000  Uiso   1.00
C10    C     0.67255   0.65381   0.40822   0.00000  Uiso   1.00
C11    C     0.69461   0.57331   0.41098   0.00000  Uiso   1.00
C12    C     0.75864   0.53662   0.39029   0.00000  Uiso   1.00
C13    C     0.85837   0.44974   0.36242   0.00000  Uiso   1.00
C14    C     0.67884   0.78359   0.38672   0.00000  Uiso   1.00
C15    C     0.65844   0.82702   0.45768   0.00000  Uiso   1.00
C16    C     0.67657   0.90048   0.49761   0.00000  Uiso   1.00
C17    C     0.65278   0.93012   0.56104   0.00000  Uiso   1.00
C18    C     0.61401   0.77415   0.34544   0.00000  Uiso   1.00
C19    C     0.59479   0.80315   0.29099   0.00000  Uiso   1.00
C20    C     0.53360   0.78827   0.25993   0.00000  Uiso   1.00
C21    C     0.71301   0.69617   0.38560   0.00000  Uiso   1.00
C22    C     0.77701   0.65960   0.36490   0.00000  Uiso   1.00
C23    C     0.79916   0.57906   0.36763   0.00000  Uiso   1.00
H24    H     0.57286   0.67263   0.44599   0.00000  Uiso   1.00
H25    H     0.56286   0.78140   0.56118   0.00000  Uiso   1.00
H26    H     0.48110   0.68407   0.35459   0.00000  Uiso   1.00
H27    H     0.66329   0.54055   0.42849   0.00000  Uiso   1.00
H28    H     0.56959   0.92069   0.67890   0.00000  Uiso   1.00
H29    H     0.39720   0.71545   0.24328   0.00000  Uiso   1.00
H30    H     0.78139   0.41279   0.39911   0.00000  Uiso   1.00
H31    H     0.71033   0.81658   0.36911   0.00000  Uiso   1.00
H32    H     0.70787   0.93325   0.48008   0.00000  Uiso   1.00
H33    H     0.62611   0.83592   0.27349   0.00000  Uiso   1.00
H34    H     0.80830   0.69240   0.34739   0.00000  Uiso   1.00
H35    H     0.68728   0.04394   0.61308   0.00000  Uiso   1.00
H36    H     0.51490   0.83869   0.17746   0.00000  Uiso   1.00
H37    H     0.89909   0.53604   0.33329   0.00000  Uiso   1.00
O38    O     0.62432   0.05649   0.72037   0.00000  Uiso   1.00
O39    O     0.39816   0.78720   0.14885   0.00000  Uiso   1.00
O40    O     0.90221   0.39013   0.35330   0.00000  Uiso   1.00
N41    N     0.59764   0.93368   0.64818   0.00000  Uiso   1.00
N42    N     0.43646   0.74180   0.24091   0.00000  Uiso   1.00
N43    N     0.79564   0.45883   0.38659   0.00000  Uiso   1.00
N44    N     0.66097  -0.00000   0.61277   0.00000  Uiso   1.00
N45    N     0.49979   0.80812   0.20550   0.00000  Uiso   1.00
N46    N     0.85897   0.52515   0.35117   0.00000  Uiso   1.00
C47    C     0.48554   0.51110   0.82729   0.00000  Uiso   1.00
C48    C     0.47834   0.59591   0.87855   0.00000  Uiso   1.00
C49    C     0.51823   0.61746   0.93555   0.00000  Uiso   1.00
C50    C     0.50355   0.69819   0.97611   0.00000  Uiso   1.00
C51    C     0.50037   0.82119   0.05814   0.00000  Uiso   1.00
C52    C     0.41811   0.48341   0.82177   0.00000  Uiso   1.00
C53    C     0.40735   0.41037   0.83103   0.00000  Uiso   1.00
C54    C     0.34197   0.39639   0.82378   0.00000  Uiso   1.00
C55    C     0.24527   0.34471   0.81761   0.00000  Uiso   1.00
C56    C     0.49369   0.52596   0.76144   0.00000  Uiso   1.00
C57    C     0.54648   0.48866   0.71996   0.00000  Uiso   1.00
C58    C     0.54472   0.51049   0.66191   0.00000  Uiso   1.00
C59    C     0.56538   0.52486   0.56207   0.00000  Uiso   1.00
C60    C     0.38853   0.61615   0.79794   0.00000  Uiso   1.00
C61    C     0.42565   0.65297   0.86261   0.00000  Uiso   1.00
C62    C     0.41091   0.73369   0.90309   0.00000  Uiso   1.00
C63    C     0.45077   0.75535   0.96014   0.00000  Uiso   1.00
C64    C     0.36542   0.54047   0.80583   0.00000  Uiso   1.00
C65    C     0.30003   0.52660   0.79856   0.00000  Uiso   1.00
C66    C     0.28918   0.45355   0.80781   0.00000  Uiso   1.00
C67    C     0.44100   0.58302   0.74550   0.00000  Uiso   1.00
C68    C     0.43916   0.60490   0.68750   0.00000  Uiso   1.00
C69    C     0.49194   0.56765   0.64594   0.00000  Uiso   1.00
H70    H     0.52656   0.46667   0.83970   0.00000  Uiso   1.00
H71    H     0.55900   0.57328   0.94788   0.00000  Uiso   1.00
H72    H     0.44814   0.36622   0.84336   0.00000  Uiso   1.00
H73    H     0.58725   0.44451   0.73231   0.00000  Uiso   1.00
H74    H     0.57172   0.71663   0.06079   0.00000  Uiso   1.00
H75    H     0.33797   0.28002   0.84039   0.00000  Uiso   1.00
H76    H     0.63130   0.44510   0.60623   0.00000  Uiso   1.00
H77    H     0.34751   0.66058   0.78553   0.00000  Uiso   1.00
H78    H     0.37013   0.77784   0.89074   0.00000  Uiso   1.00
H79    H     0.25927   0.57077   0.78622   0.00000  Uiso   1.00
H80    H     0.39837   0.64906   0.67518   0.00000  Uiso   1.00
H81    H     0.41842   0.88266   0.01442   0.00000  Uiso   1.00
H82    H     0.18467   0.44604   0.79401   0.00000  Uiso   1.00
H83    H     0.47800   0.61113   0.55985   0.00000  Uiso   1.00
O84    O     0.51317   0.87327   0.10780   0.00000  Uiso   1.00
O85    O     0.20649   0.30044   0.81863   0.00000  Uiso   1.00
O86    O     0.59134   0.51704   0.51142   0.00000  Uiso   1.00
N87    N     0.53254   0.73962   0.03543   0.00000  Uiso   1.00
N88    N     0.31400   0.33141   0.82938   0.00000  Uiso   1.00
N89    N     0.58823   0.48574   0.61045   0.00000  Uiso   1.00
N90    N     0.45006   0.82896   0.01048   0.00000  Uiso   1.00
N91    N     0.23151   0.42075   0.80442   0.00000  Uiso   1.00
N92    N     0.50574   0.57508   0.58550   0.00000  Uiso   1.00
C93    C     0.75753   0.54527   0.57944   0.00000  Uiso   1.00
C94    C     0.81875   0.57984   0.57181   0.00000  Uiso   1.00
C95    C     0.81974   0.63845   0.53920   0.00000  Uiso   1.00
C96    C     0.88075   0.66201   0.53768   0.00000  Uiso   1.00
C97    C     0.96701   0.72081   0.52124   0.00000  Uiso   1.00
C98    C     0.77532   0.45153   0.55089   0.00000  Uiso   1.00
C99    C     0.73979   0.40226   0.50070   0.00000  Uiso   1.00
C100   C     0.76423   0.31779   0.48158   0.00000  Uiso   1.00
C101   C     0.78303   0.17738   0.43270   0.00000  Uiso   1.00
C102   C     0.75156   0.56167   0.65349   0.00000  Uiso   1.00
C103   C     0.69604   0.60500   0.68957   0.00000  Uiso   1.00
C104   C     0.70048   0.61326   0.75683   0.00000  Uiso   1.00
C105   C     0.68239   0.64387   0.86724   0.00000  Uiso   1.00
C106   C     0.86411   0.48287   0.63472   0.00000  Uiso   1.00
C107   C     0.87664   0.54595   0.60184   0.00000  Uiso   1.00
C108   C     0.93767   0.56942   0.60037   0.00000  Uiso   1.00
C109   C     0.93875   0.62806   0.56777   0.00000  Uiso   1.00
C110   C     0.83321   0.41763   0.58092   0.00000  Uiso   1.00
C111   C     0.85771   0.33322   0.56187   0.00000  Uiso   1.00
C112   C     0.82223   0.28384   0.51166   0.00000  Uiso   1.00
C113   C     0.80945   0.52778   0.68352   0.00000  Uiso   1.00
C114   C     0.81397   0.53597   0.75074   0.00000  Uiso   1.00
C115   C     0.75848   0.57930   0.78691   0.00000  Uiso   1.00
H116   H     0.71246   0.57165   0.55606   0.00000  Uiso   1.00
H117   H     0.77493   0.66466   0.51597   0.00000  Uiso   1.00
H118   H     0.69498   0.42850   0.47748   0.00000  Uiso   1.00
H119   H     0.65125   0.63122   0.66631   0.00000  Uiso   1.00
H120   H     0.86973   0.75281   0.48474   0.00000  Uiso   1.00
H121   H     0.70114   0.25485   0.40360   0.00000  Uiso   1.00
H122   H     0.60892   0.68231   0.80180   0.00000  Uiso   1.00
H123   H     0.90919   0.45648   0.65810   0.00000  Uiso   1.00
H124   H     0.98246   0.54318   0.62361   0.00000  Uiso   1.00
H125   H     0.90251   0.30702   0.58512   0.00000  Uiso   1.00
H126   H     0.85878   0.50973   0.77396   0.00000  Uiso   1.00
H127   H     0.03817   0.65421   0.57211   0.00000  Uiso   1.00
H128   H     0.86958   0.15625   0.49097   0.00000  Uiso   1.00
H129   H     0.77736   0.58371   0.88916   0.00000  Uiso   1.00
O130   O     0.99860   0.76260   0.50387   0.00000  Uiso   1.00
O131   O     0.77741   0.10930   0.39743   0.00000  Uiso   1.00
O132   O     0.65643   0.67012   0.91985   0.00000  Uiso   1.00
N133   N     0.89931   0.71772   0.51005   0.00000  Uiso   1.00
N134   N     0.74170   0.25216   0.43418   0.00000  Uiso   1.00
N135   N     0.65548   0.65178   0.80645   0.00000  Uiso   1.00
N136   N     0.98995   0.66467   0.55706   0.00000  Uiso   1.00
N137   N     0.83234   0.19910   0.48119   0.00000  Uiso   1.00
N138   N     0.74611   0.59873   0.85347   0.00000  Uiso   1.00
C139   C     0.05506   0.88675   0.25254   0.00000  Uiso   1.00
C140   C     0.08398   0.92213   0.32195   0.00000  Uiso   1.00
C141   C     0.06083   0.99891   0.36531   0.00000  Uiso   1.00
C142   C     0.09408   0.01987   0.42656   0.00000  Uiso   1.00
C143   C     0.13069   0.08298   0.53173   0.00000  Uiso   1.00
C144   C     0.03715   0.80405   0.25101   0.00000  Uiso   1.00
C145   C     0.97462   0.78155   0.23473   0.00000  Uiso   1.00
C146   C     0.96845   0.70310   0.23626   0.00000  Uiso   1.00
C147   C     0.93237   0.58287   0.23126   0.00000  Uiso   1.00
C148   C     0.11271   0.86601   0.20635   0.00000  Uiso   1.00
C149   C     0.11370   0.89559   0.15250   0.00000  Uiso   1.00
C150   C     0.17114   0.86930   0.11641   0.00000  Uiso   1.00
C151   C     0.25237   0.84529   0.04206   0.00000  Uiso   1.00
C152   C     0.15528   0.78743   0.28419   0.00000  Uiso   1.00
C153   C     0.13842   0.86818   0.33914   0.00000  Uiso   1.00
C154   C     0.17171   0.88902   0.40033   0.00000  Uiso   1.00
C155   C     0.14861   0.96583   0.44378   0.00000  Uiso   1.00
C156   C     0.09158   0.75010   0.26821   0.00000  Uiso   1.00
C157   C     0.08550   0.67166   0.26976   0.00000  Uiso   1.00
C158   C     0.02298   0.64905   0.25349   0.00000  Uiso   1.00
C159   C     0.16715   0.81207   0.22354   0.00000  Uiso   1.00
C160   C     0.22459   0.78571   0.18752   0.00000  Uiso   1.00
C161   C     0.22567   0.81525   0.13363   0.00000  Uiso   1.00
H162   H     0.01267   0.92874   0.23915   0.00000  Uiso   1.00
H163   H     0.01870   0.04064   0.35199   0.00000  Uiso   1.00
H164   H     0.93251   0.82330   0.22143   0.00000  Uiso   1.00
H165   H     0.07157   0.93734   0.13921   0.00000  Uiso   1.00
H166   H     0.04937   0.14089   0.48469   0.00000  Uiso   1.00
H167   H     0.86764   0.68262   0.20936   0.00000  Uiso   1.00
H168   H     0.16087   0.92308   0.03598   0.00000  Uiso   1.00
H169   H     0.19766   0.74543   0.29758   0.00000  Uiso   1.00
H170   H     0.21384   0.84726   0.41362   0.00000  Uiso   1.00
H171   H     0.12764   0.62993   0.28306   0.00000  Uiso   1.00
H172   H     0.26670   0.74397   0.20084   0.00000  Uiso   1.00
H173   H     0.20774   0.98394   0.53471   0.00000  Uiso   1.00
H174   H     0.02601   0.52567   0.25938   0.00000  Uiso   1.00
H175   H     0.31925   0.76613   0.08601   0.00000  Uiso   1.00
O176   O     0.13584   0.13270   0.58499   0.00000  Uiso   1.00
O177   O     0.89742   0.53147   0.22376   0.00000  Uiso   1.00
O178   O     0.28214   0.84695   0.99630   0.00000  Uiso   1.00
N179   N     0.08443   0.08998   0.48053   0.00000  Uiso   1.00
N180   N     0.91452   0.66153   0.22313   0.00000  Uiso   1.00
N181   N     0.18866   0.88633   0.06102   0.00000  Uiso   1.00
N182   N     0.16965   0.00553   0.50745   0.00000  Uiso   1.00
N183   N     0.99974   0.57708   0.25004   0.00000  Uiso   1.00
N184   N     0.27389   0.80188   0.08794   0.00000  Uiso   1.00
C185   C     0.98574   0.11539   0.11305   0.00000  Uiso   1.00
C186   C     0.04338   0.14307   0.16036   0.00000  Uiso   1.00
C187   C     0.11066   0.11258   0.14982   0.00000  Uiso   1.00
C188   C     0.15567   0.14598   0.19908   0.00000  Uiso   1.00
C189   C     0.24845   0.17961   0.26375   0.00000  Uiso   1.00
C190   C     0.94578   0.19347   0.09923   0.00000  Uiso   1.00
C191   C     0.93099   0.20535   0.03730   0.00000  Uiso   1.00
C192   C     0.89382   0.28117   0.03510   0.00000  Uiso   1.00
C193   C     0.83503   0.39302   0.00486   0.00000  Uiso   1.00
C194   C     0.94083   0.08743   0.15233   0.00000  Uiso   1.00
C195   C     0.92187   0.01016   0.13505   0.00000  Uiso   1.00
C196   C     0.88052   0.99671   0.17755   0.00000  Uiso   1.00
C197   C     0.81405   0.94392   0.22977   0.00000  Uiso   1.00
C198   C     0.94601   0.22892   0.21926   0.00000  Uiso   1.00
C199   C     0.02180   0.20474   0.21805   0.00000  Uiso   1.00
C200   C     0.06671   0.23819   0.26733   0.00000  Uiso   1.00
C201   C     0.13405   0.20775   0.25687   0.00000  Uiso   1.00
C202   C     0.92420   0.25514   0.15691   0.00000  Uiso   1.00
C203   C     0.88703   0.33095   0.15481   0.00000  Uiso   1.00
C204   C     0.87220   0.34294   0.09289   0.00000  Uiso   1.00
C205   C     0.91925   0.14910   0.21002   0.00000  Uiso   1.00
C206   C     0.87792   0.13577   0.25256   0.00000  Uiso   1.00
C207   C     0.85890   0.05849   0.23534   0.00000  Uiso   1.00
H208   H     0.00253   0.06739   0.06813   0.00000  Uiso   1.00
H209   H     0.12734   0.06486   0.10517   0.00000  Uiso   1.00
H210   H     0.94769   0.15761   0.99266   0.00000  Uiso   1.00
H211   H     0.93858   0.96246   0.09040   0.00000  Uiso   1.00
H212   H     0.25620   0.08929   0.17166   0.00000  Uiso   1.00
H213   H     0.87737   0.28484   0.93444   0.00000  Uiso   1.00
H214   H     0.85815   0.87331   0.14053   0.00000  Uiso   1.00
H215   H     0.92921   0.27693   0.26417   0.00000  Uiso   1.00
H216   H     0.04999   0.28591   0.31197   0.00000  Uiso   1.00
H217   H     0.87034   0.37866   0.19946   0.00000  Uiso   1.00
H218   H     0.86123   0.18350   0.29720   0.00000  Uiso   1.00
H219   H     0.19342   0.26870   0.33951   0.00000  Uiso   1.00
H220   H     0.81459   0.46425   0.10228   0.00000  Uiso   1.00
H221   H     0.79537   0.05272   0.30837   0.00000  Uiso   1.00
O222   O     0.30560   0.18113   0.28348   0.00000  Uiso   1.00
O223   O     0.80857   0.43769   0.97225   0.00000  Uiso   1.00
O224   O     0.78336   0.89777   0.24264   0.00000  Uiso   1.00
N225   N     0.22485   0.13027   0.20461   0.00000  Uiso   1.00
N226   N     0.87068   0.31310   0.98282   0.00000  Uiso   1.00
N227   N     0.85269   0.92836   0.17549   0.00000  Uiso   1.00
N228   N     0.19107   0.22680   0.29493   0.00000  Uiso   1.00
N229   N     0.83689   0.40964   0.07313   0.00000  Uiso   1.00
N230   N     0.81891   0.02490   0.26581   0.00000  Uiso   1.00
C231   C     0.25561   0.03588   0.99246   0.00000  Uiso   1.00
C232   C     0.31503   0.04898   0.04130   0.00000  Uiso   1.00
C233   C     0.32955   0.01726   0.09484   0.00000  Uiso   1.00
C234   C     0.38622   0.03629   0.13361   0.00000  Uiso   1.00
C235   C     0.47231   0.04914   0.21161   0.00000  Uiso   1.00
C236   C     0.28477   0.99832   0.92423   0.00000  Uiso   1.00
C237   C     0.27384   0.92402   0.87934   0.00000  Uiso   1.00
C238   C     0.30503   0.90041   0.81956   0.00000  Uiso   1.00
C239   C     0.34410   0.83465   0.71579   0.00000  Uiso   1.00
C240   C     0.21832   0.12213   0.99378   0.00000  Uiso   1.00
C241   C     0.15152   0.15193   0.00735   0.00000  Uiso   1.00
C242   C     0.12676   0.23255   0.00611   0.00000  Uiso   1.00
C243   C     0.06267   0.35903   0.01032   0.00000  Uiso   1.00
C244   C     0.33044   0.12607   0.96611   0.00000  Uiso   1.00
C245   C     0.35567   0.09796   0.02698   0.00000  Uiso   1.00
C246   C     0.41233   0.11705   0.06569   0.00000  Uiso   1.00
C247   C     0.42693   0.08537   0.11928   0.00000  Uiso   1.00
C248   C     0.32541   0.04731   0.90992   0.00000  Uiso   1.00
C249   C     0.35662   0.02381   0.85019   0.00000  Uiso   1.00
C250   C     0.34574   0.94949   0.80522   0.00000  Uiso   1.00
C251   C     0.25896   0.17112   0.97947   0.00000  Uiso   1.00
C252   C     0.23430   0.25171   0.97820   0.00000  Uiso   1.00
C253   C     0.16747   0.28163   0.99177   0.00000  Uiso   1.00
H254   H     0.22398   0.99774   0.00360   0.00000  Uiso   1.00
H255   H     0.29809   0.97935   0.10590   0.00000  Uiso   1.00
H256   H     0.24238   0.88613   0.89043   0.00000  Uiso   1.00
H257   H     0.12008   0.11400   0.01842   0.00000  Uiso   1.00
H258   H     0.39820   0.98054   0.21299   0.00000  Uiso   1.00
H259   H     0.28071   0.78400   0.75866   0.00000  Uiso   1.00
H260   H     0.02282   0.26451   0.02855   0.00000  Uiso   1.00
H261   H     0.36208   0.16421   0.95496   0.00000  Uiso   1.00
H262   H     0.44377   0.15496   0.05460   0.00000  Uiso   1.00
H263   H     0.38806   0.06173   0.83913   0.00000  Uiso   1.00
H264   H     0.26577   0.28961   0.96712   0.00000  Uiso   1.00
H265   H     0.51644   0.12307   0.17135   0.00000  Uiso   1.00
H266   H     0.39895   0.92652   0.71702   0.00000  Uiso   1.00
H267   H     0.14106   0.40703   0.98691   0.00000  Uiso   1.00
O268   O     0.50858   0.04269   0.25858   0.00000  Uiso   1.00
O269   O     0.35443   0.78484   0.66251   0.00000  Uiso   1.00
O270   O     0.01609   0.41526   0.01660   0.00000  Uiso   1.00
N271   N     0.41481   0.01537   0.18953   0.00000  Uiso   1.00
N272   N     0.30497   0.83160   0.76476   0.00000  Uiso   1.00
N273   N     0.06386   0.28083   0.01706   0.00000  Uiso   1.00
N274   N     0.47843   0.09206   0.16712   0.00000  Uiso   1.00
N275   N     0.36860   0.90830   0.74235   0.00000  Uiso   1.00
N276   N     0.12749   0.35753   0.99466   0.00000  Uiso   1.00
C277   C     0.39564   0.29439   0.57162   0.00000  Uiso   1.00
C278   C     0.38201   0.21534   0.51970   0.00000  Uiso   1.00
C279   C     0.40583   0.18580   0.45631   0.00000  Uiso   1.00
C280   C     0.38775   0.11232   0.41630   0.00000  Uiso   1.00
C281   C     0.37276   0.99598   0.33224   0.00000  Uiso   1.00
C282   C     0.42644   0.26821   0.63194   0.00000  Uiso   1.00
C283   C     0.48761   0.28314   0.66293   0.00000  Uiso   1.00
C284   C     0.50692   0.25416   0.71741   0.00000  Uiso   1.00
C285   C     0.56089   0.21997   0.80764   0.00000  Uiso   1.00
C286   C     0.32745   0.34619   0.59178   0.00000  Uiso   1.00
C287   C     0.30539   0.42669   0.58902   0.00000  Uiso   1.00
C288   C     0.24136   0.46338   0.60971   0.00000  Uiso   1.00
C289   C     0.14163   0.55026   0.63758   0.00000  Uiso   1.00
C290   C     0.32116   0.21641   0.61328   0.00000  Uiso   1.00
C291   C     0.34156   0.17298   0.54232   0.00000  Uiso   1.00
C292   C     0.32343   0.09952   0.50239   0.00000  Uiso   1.00
C293   C     0.34722   0.06988   0.43896   0.00000  Uiso   1.00
C294   C     0.38599   0.22585   0.65456   0.00000  Uiso   1.00
C295   C     0.40521   0.19685   0.70901   0.00000  Uiso   1.00
C296   C     0.46640   0.21173   0.74007   0.00000  Uiso   1.00
C297   C     0.28699   0.30383   0.61440   0.00000  Uiso   1.00
C298   C     0.22299   0.34040   0.63510   0.00000  Uiso   1.00
C299   C     0.20084   0.42094   0.63237   0.00000  Uiso   1.00
H300   H     0.42714   0.32737   0.55401   0.00000  Uiso   1.00
H301   H     0.43714   0.21860   0.43882   0.00000  Uiso   1.00
H302   H     0.51890   0.31593   0.64541   0.00000  Uiso   1.00
H303   H     0.33671   0.45945   0.57151   0.00000  Uiso   1.00
H304   H     0.43041   0.07931   0.32110   0.00000  Uiso   1.00
H305   H     0.60280   0.28455   0.75672   0.00000  Uiso   1.00
H306   H     0.21861   0.58721   0.60089   0.00000  Uiso   1.00
H307   H     0.28967   0.18342   0.63089   0.00000  Uiso   1.00
H308   H     0.29213   0.06675   0.51992   0.00000  Uiso   1.00
H309   H     0.37389   0.16408   0.72651   0.00000  Uiso   1.00
H310   H     0.19170   0.30760   0.65261   0.00000  Uiso   1.00
H311   H     0.31272   0.95606   0.38692   0.00000  Uiso   1.00
H312   H     0.48510   0.16131   0.82254   0.00000  Uiso   1.00
H313   H     0.10091   0.46396   0.66671   0.00000  Uiso   1.00
O314   O     0.37568   0.94351   0.27963   0.00000  Uiso   1.00
O315   O     0.60184   0.21280   0.85115   0.00000  Uiso   1.00
O316   O     0.09779   0.60987   0.64670   0.00000  Uiso   1.00
N317   N     0.40236   0.06632   0.35182   0.00000  Uiso   1.00
N318   N     0.56354   0.25820   0.75909   0.00000  Uiso   1.00
N319   N     0.20436   0.54117   0.61341   0.00000  Uiso   1.00
N320   N     0.33903   0.00000   0.38723   0.00000  Uiso   1.00
N321   N     0.50021   0.19188   0.79450   0.00000  Uiso   1.00
N322   N     0.14103   0.47485   0.64883   0.00000  Uiso   1.00
C323   C     0.51446   0.48890   0.17271   0.00000  Uiso   1.00
C324   C     0.52166   0.40409   0.12145   0.00000  Uiso   1.00
C325   C     0.48177   0.38254   0.06445   0.00000  Uiso   1.00
C326   C     0.49645   0.30181   0.02389   0.00000  Uiso   1.00
C327   C     0.49963   0.17881   0.94186   0.00000  Uiso   1.00
C328   C     0.58189   0.51659   0.17823   0.00000  Uiso   1.00
C329   C     0.59265   0.58963   0.16897   0.00000  Uiso   1.00
C330   C     0.65803   0.60361   0.17622   0.00000  Uiso   1.00
C331   C     0.75473   0.65529   0.18239   0.00000  Uiso   1.00
C332   C     0.50631   0.47404   0.23856   0.00000  Uiso   1.00
C333   C     0.45352   0.51134   0.28004   0.00000  Uiso   1.00
C334   C     0.45528   0.48951   0.33809   0.00000  Uiso   1.00
C335   C     0.43462   0.47514   0.43793   0.00000  Uiso   1.00
C336   C     0.61147   0.38385   0.20206   0.00000  Uiso   1.00
C337   C     0.57435   0.34703   0.13739   0.00000  Uiso   1.00
C338   C     0.58909   0.26631   0.09691   0.00000  Uiso   1.00
C339   C     0.54923   0.24465   0.03986   0.00000  Uiso   1.00
C340   C     0.63458   0.45953   0.19417   0.00000  Uiso   1.00
C341   C     0.69997   0.47340   0.20144   0.00000  Uiso   1.00
C342   C     0.71082   0.54645   0.19219   0.00000  Uiso   1.00
C343   C     0.55900   0.41698   0.25450   0.00000  Uiso   1.00
C344   C     0.56084   0.39510   0.31250   0.00000  Uiso   1.00
C345   C     0.50806   0.43235   0.35406   0.00000  Uiso   1.00
H346   H     0.47344   0.53333   0.16030   0.00000  Uiso   1.00
H347   H     0.44100   0.42672   0.05212   0.00000  Uiso   1.00
H348   H     0.55186   0.63378   0.15664   0.00000  Uiso   1.00
H349   H     0.41275   0.55549   0.26769   0.00000  Uiso   1.00
H350   H     0.42828   0.28337   0.93921   0.00000  Uiso   1.00
H351   H     0.66203   0.71998   0.15961   0.00000  Uiso   1.00
H352   H     0.36870   0.55490   0.39377   0.00000  Uiso   1.00
H353   H     0.65249   0.33942   0.21447   0.00000  Uiso   1.00
H354   H     0.62987   0.22216   0.10926   0.00000  Uiso   1.00
H355   H     0.74073   0.42923   0.21378   0.00000  Uiso   1.00
H356   H     0.60163   0.35094   0.32482   0.00000  Uiso   1.00
H357   H     0.58158   0.11734   0.98558   0.00000  Uiso   1.00
H358   H     0.81533   0.55396   0.20599   0.00000  Uiso   1.00
H359   H     0.52200   0.38887   0.44015   0.00000  Uiso   1.00
O360   O     0.48683   0.12673   0.89220   0.00000  Uiso   1.00
O361   O     0.79351   0.69956   0.18137   0.00000  Uiso   1.00
O362   O     0.40866   0.48296   0.48858   0.00000  Uiso   1.00
N363   N     0.46746   0.26038   0.96457   0.00000  Uiso   1.00
N364   N     0.68600   0.66859   0.17062   0.00000  Uiso   1.00
N365   N     0.41177   0.51426   0.38955   0.00000  Uiso   1.00
N366   N     0.54994   0.17104   0.98952   0.00000  Uiso   1.00
N367   N     0.76849   0.57925   0.19558   0.00000  Uiso   1.00
N368   N     0.49426   0.42492   0.41450   0.00000  Uiso   1.00
C369   C     0.24247   0.45473   0.42056   0.00000  Uiso   1.00
C370   C     0.18125   0.42016   0.42819   0.00000  Uiso   1.00
C371   C     0.18026   0.36155   0.46080   0.00000  Uiso   1.00
C372   C     0.11925   0.33799   0.46232   0.00000  Uiso   1.00
C373   C     0.03299   0.27919   0.47876   0.00000  Uiso   1.00
C374   C     0.22468   0.54847   0.44911   0.00000  Uiso   1.00
C375   C     0.26021   0.59774   0.49930   0.00000  Uiso   1.00
C376   C     0.23577   0.68221   0.51842   0.00000  Uiso   1.00
C377   C     0.21697   0.82262   0.56730   0.00000  Uiso   1.00
C378   C     0.24844   0.43833   0.34651   0.00000  Uiso   1.00
C379   C     0.30396   0.39500   0.31043   0.00000  Uiso   1.00
C380   C     0.29952   0.38674   0.24317   0.00000  Uiso   1.00
C381   C     0.31761   0.35613   0.13276   0.00000  Uiso   1.00
C382   C     0.13589   0.51713   0.36528   0.00000  Uiso   1.00
C383   C     0.12336   0.45405   0.39816   0.00000  Uiso   1.00
C384   C     0.06233   0.43058   0.39963   0.00000  Uiso   1.00
C385   C     0.06125   0.37194   0.43223   0.00000  Uiso   1.00
C386   C     0.16679   0.58237   0.41908   0.00000  Uiso   1.00
C387   C     0.14229   0.66678   0.43813   0.00000  Uiso   1.00
C388   C     0.17777   0.71616   0.48834   0.00000  Uiso   1.00
C389   C     0.19055   0.47222   0.31648   0.00000  Uiso   1.00
C390   C     0.18603   0.46403   0.24926   0.00000  Uiso   1.00
C391   C     0.24152   0.42070   0.21309   0.00000  Uiso   1.00
H392   H     0.28754   0.42835   0.44394   0.00000  Uiso   1.00
H393   H     0.22507   0.33534   0.48403   0.00000  Uiso   1.00
H394   H     0.30502   0.57150   0.52252   0.00000  Uiso   1.00
H395   H     0.34875   0.36878   0.33369   0.00000  Uiso   1.00
H396   H     0.13027   0.24719   0.51526   0.00000  Uiso   1.00
H397   H     0.29886   0.74515   0.59640   0.00000  Uiso   1.00
H398   H     0.39108   0.31769   0.19820   0.00000  Uiso   1.00
H399   H     0.09081   0.54352   0.34190   0.00000  Uiso   1.00
H400   H     0.01754   0.45682   0.37639   0.00000  Uiso   1.00
H401   H     0.09749   0.69298   0.41488   0.00000  Uiso   1.00
H402   H     0.14122   0.49027   0.22604   0.00000  Uiso   1.00
H403   H     0.96183   0.34579   0.42789   0.00000  Uiso   1.00
H404   H     0.13042   0.84375   0.50903   0.00000  Uiso   1.00
H405   H     0.22264   0.41629   0.11084   0.00000  Uiso   1.00
O406   O     0.00140   0.23740   0.49613   0.00000  Uiso   1.00
O407   O     0.22259   0.89070   0.60257   0.00000  Uiso   1.00
O408   O     0.34357   0.32988   0.08015   0.00000  Uiso   1.00
N409   N     0.10069   0.28228   0.48995   0.00000  Uiso   1.00
N410   N     0.25830   0.74784   0.56582   0.00000  Uiso   1.00
N411   N     0.34452   0.34822   0.19355   0.00000  Uiso   1.00
N412   N     0.01005   0.33533   0.44294   0.00000  Uiso   1.00
N413   N     0.16766   0.80090   0.51881   0.00000  Uiso   1.00
N414   N     0.25389   0.40127   0.14653   0.00000  Uiso   1.00
C415   C     0.94494   0.11325   0.74746   0.00000  Uiso   1.00
C416   C     0.91602   0.07787   0.67805   0.00000  Uiso   1.00
C417   C     0.93917   0.00109   0.63469   0.00000  Uiso   1.00
C418   C     0.90592   0.98013   0.57344   0.00000  Uiso   1.00
C419   C     0.86931   0.91702   0.46827   0.00000  Uiso   1.00
C420   C     0.96285   0.19595   0.74899   0.00000  Uiso   1.00
C421   C     0.02538   0.21845   0.76527   0.00000  Uiso   1.00
C422   C     0.03155   0.29690   0.76374   0.00000  Uiso   1.00
C423   C     0.06763   0.41713   0.76874   0.00000  Uiso   1.00
C424   C     0.88729   0.13399   0.79365   0.00000  Uiso   1.00
C425   C     0.88630   0.10441   0.84750   0.00000  Uiso   1.00
C426   C     0.82886   0.13070   0.88359   0.00000  Uiso   1.00
C427   C     0.74763   0.15471   0.95794   0.00000  Uiso   1.00
C428   C     0.84472   0.21257   0.71581   0.00000  Uiso   1.00
C429   C     0.86158   0.13182   0.66086   0.00000  Uiso   1.00
C430   C     0.82829   0.11098   0.59967   0.00000  Uiso   1.00
C431   C     0.85139   0.03417   0.55622   0.00000  Uiso   1.00
C432   C     0.90842   0.24990   0.73179   0.00000  Uiso   1.00
C433   C     0.91450   0.32834   0.73024   0.00000  Uiso   1.00
C434   C     0.97702   0.35095   0.74651   0.00000  Uiso   1.00
C435   C     0.83285   0.18793   0.77646   0.00000  Uiso   1.00
C436   C     0.77541   0.21429   0.81248   0.00000  Uiso   1.00
C437   C     0.77433   0.18475   0.86637   0.00000  Uiso   1.00
H438   H     0.98733   0.07126   0.76085   0.00000  Uiso   1.00
H439   H     0.98130   0.95936   0.64801   0.00000  Uiso   1.00
H440   H     0.06749   0.17670   0.77857   0.00000  Uiso   1.00
H441   H     0.92843   0.06266   0.86079   0.00000  Uiso   1.00
H442   H     0.95063   0.85911   0.51531   0.00000  Uiso   1.00
H443   H     0.13236   0.31738   0.79064   0.00000  Uiso   1.00
H444   H     0.83913   0.07692   0.96402   0.00000  Uiso   1.00
H445   H     0.80234   0.25457   0.70242   0.00000  Uiso   1.00
H446   H     0.78616   0.15274   0.58638   0.00000  Uiso   1.00
H447   H     0.87236   0.37007   0.71694   0.00000  Uiso   1.00
H448   H     0.73330   0.25603   0.79916   0.00000  Uiso   1.00
H449   H     0.79226   0.01606   0.46529   0.00000  Uiso   1.00
H450   H     0.97399   0.47433   0.74062   0.00000  Uiso   1.00
H451   H     0.68075   0.23387   0.91399   0.00000  Uiso   1.00
O452   O     0.86416   0.86730   0.41501   0.00000  Uiso   1.00
O453   O     0.10258   0.46853   0.77624   0.00000  Uiso   1.00
O454   O     0.71786   0.15305   0.00370   0.00000  Uiso   1.00
N455   N     0.91557   0.91002   0.51947   0.00000  Uiso   1.00
N456   N     0.08548   0.33847   0.77687   0.00000  Uiso   1.00
N457   N     0.81134   0.11367   0.93898   0.00000  Uiso   1.00
N458   N     0.83035   0.99447   0.49255   0.00000  Uiso   1.00
N459   N     0.00026   0.42292   0.74996   0.00000  Uiso   1.00
N460   N     0.72611   0.19812   0.91206   0.00000  Uiso   1.00
C461   C     0.01426   0.88461   0.88695   0.00000  Uiso   1.00
C462   C     0.95662   0.85693   0.83964   0.00000  Uiso   1.00
C463   C     0.88934   0.88742   0.85018   0.00000  Uiso   1.00
C464   C     0.84433   0.85402   0.80092   0.00000  Uiso   1.00
C465   C     0.75155   0.82039   0.73625   0.00000  Uiso   1.00
C466   C     0.05422   0.80653   0.90077   0.00000  Uiso   1.00
C467   C     0.06901   0.79465   0.96270   0.00000  Uiso   1.00
C468   C     0.10618   0.71883   0.96490   0.00000  Uiso   1.00
C469   C     0.16497   0.60698   0.99514   0.00000  Uiso   1.00
C470   C     0.05917   0.91257   0.84767   0.00000  Uiso   1.00
C471   C     0.07813   0.98984   0.86495   0.00000  Uiso   1.00
C472   C     0.11948   0.00329   0.82245   0.00000  Uiso   1.00
C473   C     0.18595   0.05608   0.77023   0.00000  Uiso   1.00
C474   C     0.05399   0.77108   0.78074   0.00000  Uiso   1.00
C475   C     0.97820   0.79526   0.78195   0.00000  Uiso   1.00
C476   C     0.93329   0.76181   0.73267   0.00000  Uiso   1.00
C477   C     0.86595   0.79225   0.74313   0.00000  Uiso   1.00
C478   C     0.07580   0.74486   0.84309   0.00000  Uiso   1.00
C479   C     0.11297   0.66905   0.84519   0.00000  Uiso   1.00
C480   C     0.12780   0.65706   0.90711   0.00000  Uiso   1.00
C481   C     0.08075   0.85090   0.78998   0.00000  Uiso   1.00
C482   C     0.12208   0.86423   0.74744   0.00000  Uiso   1.00
C483   C     0.14110   0.94151   0.76466   0.00000  Uiso   1.00
H484   H     0.99747   0.93261   0.93187   0.00000  Uiso   1.00
H485   H     0.87266   0.93514   0.89483   0.00000  Uiso   1.00
H486   H     0.05231   0.84239   0.00734   0.00000  Uiso   1.00
H487   H     0.06142   0.03754   0.90960   0.00000  Uiso   1.00
H488   H     0.74380   0.91071   0.82834   0.00000  Uiso   1.00
H489   H     0.12263   0.71516   0.06556   0.00000  Uiso   1.00
H490   H     0.14185   0.12669   0.85947   0.00000  Uiso   1.00
H491   H     0.07079   0.72307   0.73583   0.00000  Uiso   1.00
H492   H     0.95001   0.71409   0.68803   0.00000  Uiso   1.00
H493   H     0.12966   0.62134   0.80054   0.00000  Uiso   1.00
H494   H     0.13877   0.81650   0.70280   0.00000  Uiso   1.00
H495   H     0.80658   0.73130   0.66049   0.00000  Uiso   1.00
H496   H     0.18541   0.53575   0.89772   0.00000  Uiso   1.00
H497   H     0.20463   0.94728   0.69163   0.00000  Uiso   1.00
O498   O     0.69440   0.81887   0.71652   0.00000  Uiso   1.00
O499   O     0.19143   0.56231   0.02775   0.00000  Uiso   1.00
O500   O     0.21664   0.10223   0.75736   0.00000  Uiso   1.00
N501   N     0.77515   0.86973   0.79539   0.00000  Uiso   1.00
N502   N     0.12932   0.68690   0.01718   0.00000  Uiso   1.00
N503   N     0.14731   0.07164   0.82451   0.00000  Uiso   1.00
N504   N     0.80893   0.77320   0.70507   0.00000  Uiso   1.00
N505   N     0.16311   0.59036   0.92687   0.00000  Uiso   1.00
N506   N     0.18109   0.97510   0.73419   0.00000  Uiso   1.00
C507   C     0.74439   0.96412   0.00754   0.00000  Uiso   1.00
C508   C     0.68497   0.95102   0.95870   0.00000  Uiso   1.00
C509   C     0.67045   0.98274   0.90516   0.00000  Uiso   1.00
C510   C     0.61378   0.96371   0.86639   0.00000  Uiso   1.00
C511   C     0.52769   0.95086   0.78839   0.00000  Uiso   1.00
C512   C     0.71523   0.00168   0.07577   0.00000  Uiso   1.00
C513   C     0.72616   0.07598   0.12066   0.00000  Uiso   1.00
C514   C     0.69497   0.09959   0.18044   0.00000  Uiso   1.00
C515   C     0.65590   0.16535   0.28421   0.00000  Uiso   1.00
C516   C     0.78168   0.87787   0.00622   0.00000  Uiso   1.00
C517   C     0.84848   0.84807   0.99265   0.00000  Uiso   1.00
C518   C     0.87324   0.76745   0.99389   0.00000  Uiso   1.00
C519   C     0.93733   0.64097   0.98968   0.00000  Uiso   1.00
C520   C     0.66956   0.87393   0.03389   0.00000  Uiso   1.00
C521   C     0.64433   0.90204   0.97302   0.00000  Uiso   1.00
C522   C     0.58767   0.88295   0.93431   0.00000  Uiso   1.00
C523   C     0.57307   0.91463   0.88072   0.00000  Uiso   1.00
C524   C     0.67459   0.95269   0.09008   0.00000  Uiso   1.00
C525   C     0.64338   0.97619   0.14981   0.00000  Uiso   1.00
C526   C     0.65426   0.05051   0.19478   0.00000  Uiso   1.00
C527   C     0.74104   0.82888   0.02053   0.00000  Uiso   1.00
C528   C     0.76570   0.74829   0.02180   0.00000  Uiso   1.00
C529   C     0.83253   0.71837   0.00823   0.00000  Uiso   1.00
H530   H     0.77602   0.00226   0.99640   0.00000  Uiso   1.00
H531   H     0.70191   0.02065   0.89410   0.00000  Uiso   1.00
H532   H     0.75762   0.11387   0.10957   0.00000  Uiso   1.00
H533   H     0.87992   0.88600   0.98158   0.00000  Uiso   1.00
H534   H     0.60180   0.01946   0.78701   0.00000  Uiso   1.00
H535   H     0.71929   0.21600   0.24134   0.00000  Uiso   1.00
H536   H     0.97718   0.73549   0.97145   0.00000  Uiso   1.00
H537   H     0.63792   0.83579   0.04504   0.00000  Uiso   1.00
H538   H     0.55623   0.84504   0.94540   0.00000  Uiso   1.00
H539   H     0.61194   0.93827   0.16087   0.00000  Uiso   1.00
H540   H     0.73423   0.71039   0.03288   0.00000  Uiso   1.00
H541   H     0.48356   0.87693   0.82865   0.00000  Uiso   1.00
H542   H     0.60105   0.07348   0.28298   0.00000  Uiso   1.00
H543   H     0.85894   0.59297   0.01309   0.00000  Uiso   1.00
O544   O     0.49142   0.95731   0.74142   0.00000  Uiso   1.00
O545   O     0.64557   0.21516   0.33749   0.00000  Uiso   1.00
O546   O     0.98391   0.58474   0.98340   0.00000  Uiso   1.00
N547   N     0.58519   0.98463   0.81047   0.00000  Uiso   1.00
N548   N     0.69503   0.16840   0.23524   0.00000  Uiso   1.00
N549   N     0.93614   0.71917   0.98294   0.00000  Uiso   1.00
N550   N     0.52157   0.90794   0.83288   0.00000  Uiso   1.00
N551   N     0.63140   0.09170   0.25765   0.00000  Uiso   1.00
N552   N     0.87251   0.64247   0.00534   0.00000  Uiso   1.00
