data_job_06733
_audit_creation_date              2018-12-19
_audit_creation_method            'Materials Studio'
_symmetry_space_group_name_H-M    'P1'
_symmetry_Int_Tables_number       1
_symmetry_cell_setting            triclinic
loop_
_symmetry_equiv_pos_as_xyz
  x,y,z
_cell_length_a                    18.0339
_cell_length_b                    22.1899
_cell_length_c                    22.9344
_cell_angle_alpha                 80.3867
_cell_angle_beta                  108.4606
_cell_angle_gamma                 78.8177
loop_
_atom_site_label
_atom_site_type_symbol
_atom_site_fract_x
_atom_site_fract_y
_atom_site_fract_z
_atom_site_U_iso_or_equiv
_atom_site_adp_type
_atom_site_occupancy
C1     C     0.68166   0.94226   0.04971   0.00000  Uiso   1.00
C2     C     0.70137   0.91019   0.11901   0.00000  Uiso   1.00
C3     C     0.64767   0.91481   0.15106   0.00000  Uiso   1.00
C4     C     0.67745   0.88189   0.21432   0.00000  Uiso   1.00
C5     C     0.69581   0.83762   0.31737   0.00000  Uiso   1.00
C6     C     0.74227   0.98157   0.04969   0.00000  Uiso   1.00
C7     C     0.72295   0.04620   0.02343   0.00000  Uiso   1.00
C8     C     0.78716   0.07337   0.02833   0.00000  Uiso   1.00
C9     C     0.86902   0.13990   0.02370   0.00000  Uiso   1.00
C10    C     0.70301   0.88934   0.01838   0.00000  Uiso   1.00
C11    C     0.65069   0.87645   0.96579   0.00000  Uiso   1.00
C12    C     0.68186   0.82598   0.94433   0.00000  Uiso   1.00
C13    C     0.70276   0.74933   0.89109   0.00000  Uiso   1.00
C14    C     0.83004   0.87557   0.10509   0.00000  Uiso   1.00
C15    C     0.78197   0.87396   0.14909   0.00000  Uiso   1.00
C16    C     0.81184   0.84102   0.21232   0.00000  Uiso   1.00
C17    C     0.75819   0.84560   0.24445   0.00000  Uiso   1.00
C18    C     0.82287   0.94534   0.07976   0.00000  Uiso   1.00
C19    C     0.88712   0.97242   0.08470   0.00000  Uiso   1.00
C20    C     0.86790   0.03708   0.05846   0.00000  Uiso   1.00
C21    C     0.78361   0.85312   0.04846   0.00000  Uiso   1.00
C22    C     0.81486   0.80266   0.02707   0.00000  Uiso   1.00
C23    C     0.76260   0.78969   0.97446   0.00000  Uiso   1.00
H24    H     0.61891   0.97047   0.02629   0.00000  Uiso   1.00
H25    H     0.58530   0.94286   0.12776   0.00000  Uiso   1.00
H26    H     0.66058   0.07422   0.00015   0.00000  Uiso   1.00
H27    H     0.58833   0.90449   0.94253   0.00000  Uiso   1.00
H28    H     0.58359   0.89628   0.25353   0.00000  Uiso   1.00
H29    H     0.74231   0.17328   0.98444   0.00000  Uiso   1.00
H30    H     0.58996   0.81537   0.86293   0.00000  Uiso   1.00
H31    H     0.89279   0.84737   0.12850   0.00000  Uiso   1.00
H32    H     0.87421   0.81300   0.23559   0.00000  Uiso   1.00
H33    H     0.94948   0.94437   0.10797   0.00000  Uiso   1.00
H34    H     0.87723   0.77464   0.05035   0.00000  Uiso   1.00
H35    H     0.81808   0.79089   0.34105   0.00000  Uiso   1.00
H36    H     0.97680   0.06788   0.07195   0.00000  Uiso   1.00
H37    H     0.82445   0.70997   0.95044   0.00000  Uiso   1.00
O38    O     0.68368   0.82321   0.36590   0.00000  Uiso   1.00
O39    O     0.89191   0.18661   0.01284   0.00000  Uiso   1.00
O40    O     0.69203   0.71705   0.85342   0.00000  Uiso   1.00
N41    N     0.64133   0.87619   0.25943   0.00000  Uiso   1.00
N42    N     0.78971   0.13516   0.00785   0.00000  Uiso   1.00
N43    N     0.64729   0.80056   0.89424   0.00000  Uiso   1.00
N44    N     0.76750   0.81947   0.30652   0.00000  Uiso   1.00
N45    N     0.91589   0.07845   0.05494   0.00000  Uiso   1.00
N46    N     0.77346   0.74384   0.94133   0.00000  Uiso   1.00
C47    C     0.43116   0.61541   0.12360   0.00000  Uiso   1.00
C48    C     0.51159   0.56881   0.16708   0.00000  Uiso   1.00
C49    C     0.52941   0.50336   0.17713   0.00000  Uiso   1.00
C50    C     0.60645   0.46904   0.21872   0.00000  Uiso   1.00
C51    C     0.72263   0.39209   0.28164   0.00000  Uiso   1.00
C52    C     0.40254   0.65437   0.16498   0.00000  Uiso   1.00
C53    C     0.32867   0.66086   0.17326   0.00000  Uiso   1.00
C54    C     0.31392   0.69858   0.21307   0.00000  Uiso   1.00
C55    C     0.26078   0.75450   0.27268   0.00000  Uiso   1.00
C56    C     0.45140   0.66106   0.07711   0.00000  Uiso   1.00
C57    C     0.41859   0.67320   0.01150   0.00000  Uiso   1.00
C58    C     0.44495   0.71657   0.97732   0.00000  Uiso   1.00
C59    C     0.46767   0.78288   0.90050   0.00000  Uiso   1.00
C60    C     0.53629   0.67086   0.17959   0.00000  Uiso   1.00
C61    C     0.56869   0.59892   0.19749   0.00000  Uiso   1.00
C62    C     0.64572   0.56470   0.23907   0.00000  Uiso   1.00
C63    C     0.66365   0.49921   0.24918   0.00000  Uiso   1.00
C64    C     0.45964   0.68448   0.19539   0.00000  Uiso   1.00
C65    C     0.44499   0.72221   0.23520   0.00000  Uiso   1.00
C66    C     0.37112   0.72875   0.24353   0.00000  Uiso   1.00
C67    C     0.50850   0.69118   0.10752   0.00000  Uiso   1.00
C68    C     0.53491   0.73454   0.07344   0.00000  Uiso   1.00
C69    C     0.50216   0.74674   0.00779   0.00000  Uiso   1.00
H70    H     0.38670   0.59197   0.09993   0.00000  Uiso   1.00
H71    H     0.48519   0.48007   0.15360   0.00000  Uiso   1.00
H72    H     0.28449   0.63756   0.14971   0.00000  Uiso   1.00
H73    H     0.37440   0.64989   0.98798   0.00000  Uiso   1.00
H74    H     0.61957   0.36929   0.22652   0.00000  Uiso   1.00
H75    H     0.19636   0.70137   0.21832   0.00000  Uiso   1.00
H76    H     0.38595   0.72738   0.87727   0.00000  Uiso   1.00
H77    H     0.58075   0.69431   0.20326   0.00000  Uiso   1.00
H78    H     0.68990   0.58802   0.26260   0.00000  Uiso   1.00
H79    H     0.48919   0.74551   0.25872   0.00000  Uiso   1.00
H80    H     0.57910   0.75784   0.09699   0.00000  Uiso   1.00
H81    H     0.78571   0.45690   0.31500   0.00000  Uiso   1.00
H82    H     0.36250   0.78899   0.30679   0.00000  Uiso   1.00
H83    H     0.55210   0.81500   0.96575   0.00000  Uiso   1.00
O84    O     0.77093   0.34133   0.30795   0.00000  Uiso   1.00
O85    O     0.21569   0.77702   0.29717   0.00000  Uiso   1.00
O86    O     0.46444   0.81114   0.84973   0.00000  Uiso   1.00
N87    N     0.64370   0.40449   0.23919   0.00000  Uiso   1.00
N88    N     0.24803   0.71497   0.23153   0.00000  Uiso   1.00
N89    N     0.42526   0.73929   0.91268   0.00000  Uiso   1.00
N90    N     0.73310   0.45164   0.28680   0.00000  Uiso   1.00
N91    N     0.33743   0.76211   0.27914   0.00000  Uiso   1.00
N92    N     0.51467   0.78644   0.96029   0.00000  Uiso   1.00
C93    C     0.04258   0.43105   0.13971   0.00000  Uiso   1.00
C94    C     0.08804   0.43144   0.20810   0.00000  Uiso   1.00
C95    C     0.15810   0.45132   0.22926   0.00000  Uiso   1.00
C96    C     0.19041   0.44798   0.29366   0.00000  Uiso   1.00
C97    C     0.26657   0.45197   0.39352   0.00000  Uiso   1.00
C98    C     0.03769   0.36305   0.14086   0.00000  Uiso   1.00
C99    C     0.06540   0.32543   0.10548   0.00000  Uiso   1.00
C100   C     0.05531   0.26451   0.11327   0.00000  Uiso   1.00
C101   C     0.05324   0.16233   0.10871   0.00000  Uiso   1.00
C102   C     0.95597   0.47036   0.12274   0.00000  Uiso   1.00
C103   C     0.91496   0.52296   0.07211   0.00000  Uiso   1.00
C104   C     0.83606   0.55237   0.06463   0.00000  Uiso   1.00
C105   C     0.70711   0.61681   0.03193   0.00000  Uiso   1.00
C106   C     0.97537   0.38975   0.21643   0.00000  Uiso   1.00
C107   C     0.05153   0.40901   0.24977   0.00000  Uiso   1.00
C108   C     0.08374   0.40563   0.31415   0.00000  Uiso   1.00
C109   C     0.15384   0.42551   0.33540   0.00000  Uiso   1.00
C110   C     0.00118   0.34061   0.18253   0.00000  Uiso   1.00
C111   C     0.99104   0.27974   0.19037   0.00000  Uiso   1.00
C112   C     0.01874   0.24203   0.15502   0.00000  Uiso   1.00
C113   C     0.91946   0.44793   0.16441   0.00000  Uiso   1.00
C114   C     0.84061   0.47727   0.15700   0.00000  Uiso   1.00
C115   C     0.79949   0.52990   0.10638   0.00000  Uiso   1.00
H116   H     0.07100   0.44851   0.10726   0.00000  Uiso   1.00
H117   H     0.18633   0.46867   0.19700   0.00000  Uiso   1.00
H118   H     0.09364   0.34280   0.07323   0.00000  Uiso   1.00
H119   H     0.94323   0.54030   0.03987   0.00000  Uiso   1.00
H120   H     0.29812   0.48112   0.31487   0.00000  Uiso   1.00
H121   H     0.10265   0.21571   0.05389   0.00000  Uiso   1.00
H122   H     0.78547   0.63218   0.98354   0.00000  Uiso   1.00
H123   H     0.94695   0.37229   0.24887   0.00000  Uiso   1.00
H124   H     0.05548   0.38827   0.34638   0.00000  Uiso   1.00
H125   H     0.96279   0.26240   0.22262   0.00000  Uiso   1.00
H126   H     0.81238   0.45990   0.18926   0.00000  Uiso   1.00
H127   H     0.19192   0.41586   0.43612   0.00000  Uiso   1.00
H128   H     0.99644   0.15045   0.17513   0.00000  Uiso   1.00
H129   H     0.67927   0.56692   0.10479   0.00000  Uiso   1.00
O130   O     0.31867   0.46035   0.43709   0.00000  Uiso   1.00
O131   O     0.06220   0.11216   0.09468   0.00000  Uiso   1.00
O132   O     0.64607   0.65855   0.00239   0.00000  Uiso   1.00
N133   N     0.25822   0.46358   0.33002   0.00000  Uiso   1.00
N134   N     0.07548   0.21543   0.08603   0.00000  Uiso   1.00
N135   N     0.77894   0.60478   0.02025   0.00000  Uiso   1.00
N136   N     0.20108   0.42846   0.39527   0.00000  Uiso   1.00
N137   N     0.01833   0.18032   0.15127   0.00000  Uiso   1.00
N138   N     0.72179   0.56967   0.08549   0.00000  Uiso   1.00
C139   C     0.20825   0.11037   0.63391   0.00000  Uiso   1.00
C140   C     0.20377   0.04822   0.67094   0.00000  Uiso   1.00
C141   C     0.26295   0.99107   0.69162   0.00000  Uiso   1.00
C142   C     0.24738   0.93966   0.72476   0.00000  Uiso   1.00
C143   C     0.25141   0.84231   0.78046   0.00000  Uiso   1.00
C144   C     0.19669   0.15866   0.67257   0.00000  Uiso   1.00
C145   C     0.24991   0.19437   0.69461   0.00000  Uiso   1.00
C146   C     0.22837   0.23593   0.72912   0.00000  Uiso   1.00
C147   C     0.22139   0.31007   0.78731   0.00000  Uiso   1.00
C148   C     0.13323   0.13133   0.57336   0.00000  Uiso   1.00
C149   C     0.13310   0.14407   0.51199   0.00000  Uiso   1.00
C150   C     0.05814   0.16265   0.46297   0.00000  Uiso   1.00
C151   C     0.95263   0.19435   0.36713   0.00000  Uiso   1.00
C152   C     0.07536   0.12071   0.65600   0.00000  Uiso   1.00
C153   C     0.13158   0.05384   0.68294   0.00000  Uiso   1.00
C154   C     0.11592   0.00251   0.71606   0.00000  Uiso   1.00
C155   C     0.17506   0.94529   0.73678   0.00000  Uiso   1.00
C156   C     0.12451   0.16427   0.68457   0.00000  Uiso   1.00
C157   C     0.10288   0.20580   0.71905   0.00000  Uiso   1.00
C158   C     0.15606   0.24156   0.74114   0.00000  Uiso   1.00
C159   C     0.06105   0.13694   0.58536   0.00000  Uiso   1.00
C160   C     0.98607   0.15551   0.53643   0.00000  Uiso   1.00
C161   C     0.98582   0.16827   0.47500   0.00000  Uiso   1.00
H162   H     0.26445   0.10600   0.62457   0.00000  Uiso   1.00
H163   H     0.31880   0.98674   0.68233   0.00000  Uiso   1.00
H164   H     0.30576   0.19001   0.68531   0.00000  Uiso   1.00
H165   H     0.18897   0.13972   0.50272   0.00000  Uiso   1.00
H166   H     0.34725   0.85700   0.75167   0.00000  Uiso   1.00
H167   H     0.31974   0.28562   0.75795   0.00000  Uiso   1.00
H168   H     0.07346   0.17958   0.37292   0.00000  Uiso   1.00
H169   H     0.01916   0.12509   0.66535   0.00000  Uiso   1.00
H170   H     0.06005   0.00687   0.72534   0.00000  Uiso   1.00
H171   H     0.04701   0.21014   0.72833   0.00000  Uiso   1.00
H172   H     0.93022   0.15985   0.54574   0.00000  Uiso   1.00
H173   H     0.13724   0.87334   0.78659   0.00000  Uiso   1.00
H174   H     0.10973   0.30196   0.79286   0.00000  Uiso   1.00
H175   H     0.86345   0.19591   0.40783   0.00000  Uiso   1.00
O176   O     0.27358   0.78706   0.80788   0.00000  Uiso   1.00
O177   O     0.23748   0.34941   0.81610   0.00000  Uiso   1.00
O178   O     0.91438   0.21027   0.31095   0.00000  Uiso   1.00
N179   N     0.29220   0.87707   0.75165   0.00000  Uiso   1.00
N180   N     0.26649   0.27780   0.75752   0.00000  Uiso   1.00
N181   N     0.03624   0.17867   0.39755   0.00000  Uiso   1.00
N182   N     0.17920   0.88586   0.77043   0.00000  Uiso   1.00
N183   N     0.15348   0.28659   0.77631   0.00000  Uiso   1.00
N184   N     0.92323   0.18746   0.41634   0.00000  Uiso   1.00
C185   C     0.77999   0.55412   0.65139   0.00000  Uiso   1.00
C186   C     0.81635   0.58569   0.70379   0.00000  Uiso   1.00
C187   C     0.80607   0.57843   0.76179   0.00000  Uiso   1.00
C188   C     0.84436   0.61134   0.80330   0.00000  Uiso   1.00
C189   C     0.89372   0.65444   0.88710   0.00000  Uiso   1.00
C190   C     0.85122   0.51784   0.63796   0.00000  Uiso   1.00
C191   C     0.87024   0.45352   0.64060   0.00000  Uiso   1.00
C192   C     0.93787   0.42932   0.62667   0.00000  Uiso   1.00
C193   C     0.04133   0.36708   0.60823   0.00000  Uiso   1.00
C194   C     0.73153   0.60773   0.59226   0.00000  Uiso   1.00
C195   C     0.64992   0.61899   0.55647   0.00000  Uiso   1.00
C196   C     0.61679   0.67046   0.50406   0.00000  Uiso   1.00
C197   C     0.53442   0.74779   0.41467   0.00000  Uiso   1.00
C198   C     0.86627   0.62549   0.62197   0.00000  Uiso   1.00
C199   C     0.86322   0.62445   0.68781   0.00000  Uiso   1.00
C200   C     0.90153   0.65739   0.72924   0.00000  Uiso   1.00
C201   C     0.89130   0.65017   0.78728   0.00000  Uiso   1.00
C202   C     0.89808   0.55660   0.62198   0.00000  Uiso   1.00
C203   C     0.96569   0.53248   0.60804   0.00000  Uiso   1.00
C204   C     0.98482   0.46815   0.61066   0.00000  Uiso   1.00
C205   C     0.77839   0.64649   0.57628   0.00000  Uiso   1.00
C206   C     0.74538   0.69795   0.52392   0.00000  Uiso   1.00
C207   C     0.66374   0.70929   0.48805   0.00000  Uiso   1.00
H208   H     0.74351   0.52394   0.66383   0.00000  Uiso   1.00
H209   H     0.76981   0.54842   0.77414   0.00000  Uiso   1.00
H210   H     0.83396   0.42354   0.65296   0.00000  Uiso   1.00
H211   H     0.61368   0.58898   0.56885   0.00000  Uiso   1.00
H212   H     0.81965   0.59264   0.88940   0.00000  Uiso   1.00
H213   H     0.95490   0.32933   0.63386   0.00000  Uiso   1.00
H214   H     0.49040   0.67819   0.45649   0.00000  Uiso   1.00
H215   H     0.90276   0.65566   0.60952   0.00000  Uiso   1.00
H216   H     0.93779   0.68738   0.71685   0.00000  Uiso   1.00
H217   H     0.00194   0.56249   0.59567   0.00000  Uiso   1.00
H218   H     0.78166   0.72794   0.51156   0.00000  Uiso   1.00
H219   H     0.95600   0.70542   0.84291   0.00000  Uiso   1.00
H220   H     0.09124   0.44210   0.58736   0.00000  Uiso   1.00
H221   H     0.62675   0.79097   0.41000   0.00000  Uiso   1.00
O222   O     0.90802   0.66750   0.93775   0.00000  Uiso   1.00
O223   O     0.08545   0.32204   0.60248   0.00000  Uiso   1.00
O224   O     0.47604   0.77975   0.36978   0.00000  Uiso   1.00
N225   N     0.84692   0.61484   0.86372   0.00000  Uiso   1.00
N226   N     0.97338   0.36865   0.62482   0.00000  Uiso   1.00
N227   N     0.53911   0.69481   0.45899   0.00000  Uiso   1.00
N228   N     0.92028   0.67553   0.83871   0.00000  Uiso   1.00
N229   N     0.04674   0.42934   0.59980   0.00000  Uiso   1.00
N230   N     0.61248   0.75549   0.43397   0.00000  Uiso   1.00
C231   C     0.38789   0.63019   0.66423   0.00000  Uiso   1.00
C232   C     0.46968   0.59498   0.71583   0.00000  Uiso   1.00
C233   C     0.52314   0.62262   0.75333   0.00000  Uiso   1.00
C234   C     0.59486   0.58224   0.79789   0.00000  Uiso   1.00
C235   C     0.71917   0.53755   0.87701   0.00000  Uiso   1.00
C236   C     0.32543   0.60114   0.68167   0.00000  Uiso   1.00
C237   C     0.25760   0.63397   0.69043   0.00000  Uiso   1.00
C238   C     0.20788   0.59878   0.70622   0.00000  Uiso   1.00
C239   C     0.10821   0.56366   0.73226   0.00000  Uiso   1.00
C240   C     0.39070   0.61162   0.60372   0.00000  Uiso   1.00
C241   C     0.37773   0.65326   0.54693   0.00000  Uiso   1.00
C242   C     0.38294   0.62689   0.49709   0.00000  Uiso   1.00
C243   C     0.38460   0.60804   0.40211   0.00000  Uiso   1.00
C244   C     0.42019   0.50932   0.67669   0.00000  Uiso   1.00
C245   C     0.48722   0.52932   0.72260   0.00000  Uiso   1.00
C246   C     0.55888   0.48889   0.76712   0.00000  Uiso   1.00
C247   C     0.61244   0.51647   0.80467   0.00000  Uiso   1.00
C248   C     0.34297   0.53549   0.68844   0.00000  Uiso   1.00
C249   C     0.29333   0.50024   0.70422   0.00000  Uiso   1.00
C250   C     0.22545   0.53301   0.71300   0.00000  Uiso   1.00
C251   C     0.40824   0.54596   0.61049   0.00000  Uiso   1.00
C252   C     0.41346   0.51953   0.56073   0.00000  Uiso   1.00
C253   C     0.40051   0.56112   0.50388   0.00000  Uiso   1.00
H254   H     0.37423   0.68130   0.65896   0.00000  Uiso   1.00
H255   H     0.50954   0.67343   0.74808   0.00000  Uiso   1.00
H256   H     0.24404   0.68478   0.68518   0.00000  Uiso   1.00
H257   H     0.36415   0.70406   0.54171   0.00000  Uiso   1.00
H258   H     0.66728   0.63575   0.84988   0.00000  Uiso   1.00
H259   H     0.10744   0.65968   0.71724   0.00000  Uiso   1.00
H260   H     0.36072   0.70035   0.41471   0.00000  Uiso   1.00
H261   H     0.43384   0.45820   0.68196   0.00000  Uiso   1.00
H262   H     0.57243   0.43808   0.77234   0.00000  Uiso   1.00
H263   H     0.30693   0.44943   0.70945   0.00000  Uiso   1.00
H264   H     0.42704   0.46872   0.56598   0.00000  Uiso   1.00
H265   H     0.71833   0.44473   0.86958   0.00000  Uiso   1.00
H266   H     0.15848   0.46867   0.73694   0.00000  Uiso   1.00
H267   H     0.41176   0.50933   0.43441   0.00000  Uiso   1.00
O268   O     0.78289   0.53104   0.91879   0.00000  Uiso   1.00
O269   O     0.04838   0.56243   0.74476   0.00000  Uiso   1.00
O270   O     0.38068   0.61578   0.34785   0.00000  Uiso   1.00
N271   N     0.66029   0.59356   0.84211   0.00000  Uiso   1.00
N272   N     0.13687   0.61593   0.71811   0.00000  Uiso   1.00
N273   N     0.37364   0.65395   0.43526   0.00000  Uiso   1.00
N274   N     0.68775   0.49077   0.85271   0.00000  Uiso   1.00
N275   N     0.16434   0.51314   0.72871   0.00000  Uiso   1.00
N276   N     0.40111   0.55116   0.44586   0.00000  Uiso   1.00
C277   C     0.22715   0.97105   0.93940   0.00000  Uiso   1.00
C278   C     0.28729   0.98504   0.90835   0.00000  Uiso   1.00
C279   C     0.33465   0.94172   0.88872   0.00000  Uiso   1.00
C280   C     0.38587   0.96382   0.86136   0.00000  Uiso   1.00
C281   C     0.47866   0.97594   0.81425   0.00000  Uiso   1.00
C282   C     0.14586   0.01787   0.89817   0.00000  Uiso   1.00
C283   C     0.07431   0.00214   0.86999   0.00000  Uiso   1.00
C284   C     0.00648   0.05188   0.83407   0.00000  Uiso   1.00
C285   C     0.87970   0.11496   0.77119   0.00000  Uiso   1.00
C286   C     0.25291   0.98995   0.00229   0.00000  Uiso   1.00
C287   C     0.27134   0.95076   0.06165   0.00000  Uiso   1.00
C288   C     0.29362   0.97701   0.11339   0.00000  Uiso   1.00
C289   C     0.33304   0.99674   0.21217   0.00000  Uiso   1.00
C290   C     0.23389   0.08734   0.92571   0.00000  Uiso   1.00
C291   C     0.29095   0.04821   0.90092   0.00000  Uiso   1.00
C292   C     0.34211   0.07038   0.87358   0.00000  Uiso   1.00
C293   C     0.38954   0.02710   0.85391   0.00000  Uiso   1.00
C294   C     0.14952   0.08103   0.89074   0.00000  Uiso   1.00
C295   C     0.08178   0.13080   0.85485   0.00000  Uiso   1.00
C296   C     0.01015   0.11516   0.82662   0.00000  Uiso   1.00
C297   C     0.25657   0.05312   0.99486   0.00000  Uiso   1.00
C298   C     0.27881   0.07943   0.04651   0.00000  Uiso   1.00
C299   C     0.29729   0.04028   0.10594   0.00000  Uiso   1.00
H300   H     0.22429   0.92188   0.94518   0.00000  Uiso   1.00
H301   H     0.33179   0.89284   0.89448   0.00000  Uiso   1.00
H302   H     0.07150   0.95326   0.87576   0.00000  Uiso   1.00
H303   H     0.26850   0.90189   0.06739   0.00000  Uiso   1.00
H304   H     0.45257   0.88851   0.83496   0.00000  Uiso   1.00
H305   H     0.90372   0.01590   0.79550   0.00000  Uiso   1.00
H306   H     0.31914   0.90757   0.19959   0.00000  Uiso   1.00
H307   H     0.23674   0.13652   0.91993   0.00000  Uiso   1.00
H308   H     0.34494   0.11926   0.86783   0.00000  Uiso   1.00
H309   H     0.08464   0.17968   0.84911   0.00000  Uiso   1.00
H310   H     0.28164   0.12831   0.04074   0.00000  Uiso   1.00
H311   H     0.46323   0.07228   0.81333   0.00000  Uiso   1.00
H312   H     0.91438   0.19967   0.77388   0.00000  Uiso   1.00
H313   H     0.32981   0.09135   0.17796   0.00000  Uiso   1.00
O314   O     0.52883   0.96517   0.79031   0.00000  Uiso   1.00
O315   O     0.80875   0.13230   0.73856   0.00000  Uiso   1.00
O316   O     0.35378   0.99018   0.26871   0.00000  Uiso   1.00
N317   N     0.44024   0.93412   0.83703   0.00000  Uiso   1.00
N318   N     0.92710   0.05322   0.80013   0.00000  Uiso   1.00
N319   N     0.31547   0.95196   0.17792   0.00000  Uiso   1.00
N320   N     0.44598   0.03301   0.82539   0.00000  Uiso   1.00
N321   N     0.93284   0.15211   0.78850   0.00000  Uiso   1.00
N322   N     0.32121   0.05084   0.16628   0.00000  Uiso   1.00
C323   C     0.71417   0.39542   0.02483   0.00000  Uiso   1.00
C324   C     0.63197   0.43867   0.98021   0.00000  Uiso   1.00
C325   C     0.60781   0.50396   0.97069   0.00000  Uiso   1.00
C326   C     0.53018   0.53495   0.92787   0.00000  Uiso   1.00
C327   C     0.41039   0.60716   0.86345   0.00000  Uiso   1.00
C328   C     0.74907   0.35964   0.98409   0.00000  Uiso   1.00
C329   C     0.82338   0.35848   0.97785   0.00000  Uiso   1.00
C330   C     0.84433   0.32294   0.93831   0.00000  Uiso   1.00
C331   C     0.90638   0.27242   0.87996   0.00000  Uiso   1.00
C332   C     0.69645   0.34609   0.06966   0.00000  Uiso   1.00
C333   C     0.72652   0.33353   0.13536   0.00000  Uiso   1.00
C334   C     0.70318   0.28657   0.16786   0.00000  Uiso   1.00
C335   C     0.68352   0.21501   0.24236   0.00000  Uiso   1.00
C336   C     0.61927   0.33435   0.96570   0.00000  Uiso   1.00
C337   C     0.58042   0.40550   0.94809   0.00000  Uiso   1.00
C338   C     0.50281   0.43640   0.90528   0.00000  Uiso   1.00
C339   C     0.47853   0.50172   0.89570   0.00000  Uiso   1.00
C340   C     0.69753   0.32647   0.95198   0.00000  Uiso   1.00
C341   C     0.71838   0.29092   0.91244   0.00000  Uiso   1.00
C342   C     0.79270   0.28971   0.90614   0.00000  Uiso   1.00
C343   C     0.64490   0.31292   0.03755   0.00000  Uiso   1.00
C344   C     0.62152   0.26597   0.06995   0.00000  Uiso   1.00
C345   C     0.65154   0.25334   0.13569   0.00000  Uiso   1.00
H346   H     0.75431   0.42124   0.04983   0.00000  Uiso   1.00
H347   H     0.64772   0.52961   0.99555   0.00000  Uiso   1.00
H348   H     0.86326   0.38415   0.00272   0.00000  Uiso   1.00
H349   H     0.76641   0.35921   0.16020   0.00000  Uiso   1.00
H350   H     0.50682   0.63514   0.92119   0.00000  Uiso   1.00
H351   H     0.96132   0.32841   0.93632   0.00000  Uiso   1.00
H352   H     0.75709   0.27581   0.26840   0.00000  Uiso   1.00
H353   H     0.57914   0.30852   0.94070   0.00000  Uiso   1.00
H354   H     0.46293   0.41071   0.88043   0.00000  Uiso   1.00
H355   H     0.67848   0.26525   0.88760   0.00000  Uiso   1.00
H356   H     0.58163   0.24031   0.04508   0.00000  Uiso   1.00
H357   H     0.35684   0.53864   0.82775   0.00000  Uiso   1.00
H358   H     0.81134   0.23190   0.84288   0.00000  Uiso   1.00
H359   H     0.60711   0.17930   0.17497   0.00000  Uiso   1.00
O360   O     0.35856   0.65615   0.83678   0.00000  Uiso   1.00
O361   O     0.95485   0.25372   0.85664   0.00000  Uiso   1.00
O362   O     0.68690   0.18471   0.29232   0.00000  Uiso   1.00
N363   N     0.48746   0.59840   0.90748   0.00000  Uiso   1.00
N364   N     0.91239   0.31163   0.92162   0.00000  Uiso   1.00
N365   N     0.72147   0.26245   0.23209   0.00000  Uiso   1.00
N366   N     0.40676   0.54648   0.85720   0.00000  Uiso   1.00
N367   N     0.83169   0.25971   0.87134   0.00000  Uiso   1.00
N368   N     0.64077   0.21052   0.18181   0.00000  Uiso   1.00
C369   C     0.12725   0.50889   0.00157   0.00000  Uiso   1.00
C370   C     0.07726   0.48648   0.94633   0.00000  Uiso   1.00
C371   C     0.99995   0.47879   0.93596   0.00000  Uiso   1.00
C372   C     0.96448   0.45785   0.88269   0.00000  Uiso   1.00
C373   C     0.88070   0.42503   0.80320   0.00000  Uiso   1.00
C374   C     0.14869   0.56673   0.97197   0.00000  Uiso   1.00
C375   C     0.13144   0.62650   0.98317   0.00000  Uiso   1.00
C376   C     0.15611   0.67311   0.95148   0.00000  Uiso   1.00
C377   C     0.18328   0.76486   0.91184   0.00000  Uiso   1.00
C378   C     0.20684   0.45735   0.03420   0.00000  Uiso   1.00
C379   C     0.23848   0.42517   0.09772   0.00000  Uiso   1.00
C380   C     0.31212   0.37970   0.11844   0.00000  Uiso   1.00
C381   C     0.42956   0.30163   0.17541   0.00000  Uiso   1.00
C382   C     0.20175   0.48538   0.92540   0.00000  Uiso   1.00
C383   C     0.11774   0.47372   0.90496   0.00000  Uiso   1.00
C384   C     0.08238   0.45278   0.85170   0.00000  Uiso   1.00
C385   C     0.00502   0.44505   0.84125   0.00000  Uiso   1.00
C386   C     0.18916   0.55396   0.93060   0.00000  Uiso   1.00
C387   C     0.21387   0.60049   0.89890   0.00000  Uiso   1.00
C388   C     0.19665   0.66032   0.91004   0.00000  Uiso   1.00
C389   C     0.24731   0.44458   0.99283   0.00000  Uiso   1.00
C390   C     0.32091   0.39916   0.01345   0.00000  Uiso   1.00
C391   C     0.35266   0.36691   0.07699   0.00000  Uiso   1.00
H392   H     0.09574   0.51883   0.03377   0.00000  Uiso   1.00
H393   H     0.96864   0.48868   0.96799   0.00000  Uiso   1.00
H394   H     0.10013   0.63636   0.01519   0.00000  Uiso   1.00
H395   H     0.20715   0.43506   0.12972   0.00000  Uiso   1.00
H396   H     0.84557   0.44964   0.87679   0.00000  Uiso   1.00
H397   H     0.12283   0.76104   0.97634   0.00000  Uiso   1.00
H398   H     0.34851   0.33655   0.21786   0.00000  Uiso   1.00
H399   H     0.23326   0.47544   0.89319   0.00000  Uiso   1.00
H400   H     0.11371   0.44290   0.81969   0.00000  Uiso   1.00
H401   H     0.24519   0.59059   0.86689   0.00000  Uiso   1.00
H402   H     0.35221   0.38929   0.98142   0.00000  Uiso   1.00
H403   H     0.96331   0.41249   0.75643   0.00000  Uiso   1.00
H404   H     0.24057   0.72389   0.85597   0.00000  Uiso   1.00
H405   H     0.46625   0.29940   0.09749   0.00000  Uiso   1.00
O406   O     0.82330   0.41046   0.77078   0.00000  Uiso   1.00
O407   O     0.18707   0.81900   0.90139   0.00000  Uiso   1.00
O408   O     0.48315   0.26209   0.21825   0.00000  Uiso   1.00
N409   N     0.88969   0.44535   0.85856   0.00000  Uiso   1.00
N410   N     0.14891   0.73649   0.95162   0.00000  Uiso   1.00
N411   N     0.35991   0.33964   0.17742   0.00000  Uiso   1.00
N412   N     0.95305   0.42536   0.79379   0.00000  Uiso   1.00
N413   N     0.21226   0.71650   0.88685   0.00000  Uiso   1.00
N414   N     0.42326   0.31965   0.11266   0.00000  Uiso   1.00
C415   C     0.93703   0.90420   0.42877   0.00000  Uiso   1.00
C416   C     0.88195   0.94130   0.36165   0.00000  Uiso   1.00
C417   C     0.80513   0.98136   0.34464   0.00000  Uiso   1.00
C418   C     0.76447   0.01092   0.28073   0.00000  Uiso   1.00
C419   C     0.67360   0.07005   0.18338   0.00000  Uiso   1.00
C420   C     0.95711   0.83485   0.42646   0.00000  Uiso   1.00
C421   C     0.94349   0.78541   0.46394   0.00000  Uiso   1.00
C422   C     0.96611   0.72536   0.45460   0.00000  Uiso   1.00
C423   C     0.99198   0.61922   0.45789   0.00000  Uiso   1.00
C424   C     0.01617   0.92361   0.44117   0.00000  Uiso   1.00
C425   C     0.05222   0.94878   0.49104   0.00000  Uiso   1.00
C426   C     0.12458   0.96344   0.49409   0.00000  Uiso   1.00
C427   C     0.24215   0.99510   0.52024   0.00000  Uiso   1.00
C428   C     0.00143   0.88546   0.34554   0.00000  Uiso   1.00
C429   C     0.91693   0.93112   0.31644   0.00000  Uiso   1.00
C430   C     0.87637   0.96063   0.25254   0.00000  Uiso   1.00
C431   C     0.79951   0.00073   0.23544   0.00000  Uiso   1.00
C432   C     0.99208   0.82467   0.38125   0.00000  Uiso   1.00
C433   C     0.01473   0.76468   0.37185   0.00000  Uiso   1.00
C434   C     0.00115   0.71516   0.40931   0.00000  Uiso   1.00
C435   C     0.05115   0.91343   0.39596   0.00000  Uiso   1.00
C436   C     0.12347   0.92805   0.39894   0.00000  Uiso   1.00
C437   C     0.15962   0.95324   0.44880   0.00000  Uiso   1.00
H438   H     0.90980   0.91212   0.46397   0.00000  Uiso   1.00
H439   H     0.77808   0.98922   0.37964   0.00000  Uiso   1.00
H440   H     0.91642   0.79330   0.49893   0.00000  Uiso   1.00
H441   H     0.02514   0.95665   0.52602   0.00000  Uiso   1.00
H442   H     0.64745   0.07019   0.26620   0.00000  Uiso   1.00
H443   H     0.93919   0.65709   0.51774   0.00000  Uiso   1.00
H444   H     0.16843   0.00153   0.57487   0.00000  Uiso   1.00
H445   H     0.02866   0.87754   0.31034   0.00000  Uiso   1.00
H446   H     0.90346   0.95274   0.21757   0.00000  Uiso   1.00
H447   H     0.04180   0.75682   0.33686   0.00000  Uiso   1.00
H448   H     0.15052   0.92017   0.36395   0.00000  Uiso   1.00
H449   H     0.74921   0.04058   0.13466   0.00000  Uiso   1.00
H450   H     0.04095   0.62747   0.38620   0.00000  Uiso   1.00
H451   H     0.27020   0.97192   0.44332   0.00000  Uiso   1.00
O452   O     0.61381   0.10546   0.14217   0.00000  Uiso   1.00
O453   O     0.99657   0.56349   0.47219   0.00000  Uiso   1.00
O454   O     0.29734   0.01539   0.54714   0.00000  Uiso   1.00
N455   N     0.68859   0.05291   0.24797   0.00000  Uiso   1.00
N456   N     0.96133   0.66668   0.48314   0.00000  Uiso   1.00
N457   N     0.17567   0.98869   0.53656   0.00000  Uiso   1.00
N458   N     0.74334   0.03698   0.17719   0.00000  Uiso   1.00
N459   N     0.01609   0.65075   0.41236   0.00000  Uiso   1.00
N460   N     0.23043   0.97276   0.46578   0.00000  Uiso   1.00
C461   C     0.47968   0.22441   0.52001   0.00000  Uiso   1.00
C462   C     0.44417   0.20034   0.46147   0.00000  Uiso   1.00
C463   C     0.45920   0.21324   0.40559   0.00000  Uiso   1.00
C464   C     0.42088   0.18677   0.35755   0.00000  Uiso   1.00
C465   C     0.37354   0.15519   0.26549   0.00000  Uiso   1.00
C466   C     0.40750   0.25929   0.53329   0.00000  Uiso   1.00
C467   C     0.39171   0.32175   0.53780   0.00000  Uiso   1.00
C468   C     0.32252   0.34489   0.55024   0.00000  Uiso   1.00
C469   C     0.21829   0.40482   0.56972   0.00000  Uiso   1.00
C470   C     0.52241   0.16568   0.57490   0.00000  Uiso   1.00
C471   C     0.60323   0.14945   0.61440   0.00000  Uiso   1.00
C472   C     0.63078   0.09379   0.66188   0.00000  Uiso   1.00
C473   C     0.70495   0.00839   0.74597   0.00000  Uiso   1.00
C474   C     0.38489   0.15446   0.53409   0.00000  Uiso   1.00
C475   C     0.39268   0.16234   0.46912   0.00000  Uiso   1.00
C476   C     0.35433   0.13584   0.42116   0.00000  Uiso   1.00
C477   C     0.36930   0.14870   0.36522   0.00000  Uiso   1.00
C478   C     0.35601   0.22129   0.54094   0.00000  Uiso   1.00
C479   C     0.28684   0.24435   0.55338   0.00000  Uiso   1.00
C480   C     0.27094   0.30683   0.55790   0.00000  Uiso   1.00
C481   C     0.47092   0.12769   0.58255   0.00000  Uiso   1.00
C482   C     0.49835   0.07205   0.62998   0.00000  Uiso   1.00
C483   C     0.57920   0.05573   0.66954   0.00000  Uiso   1.00
H484   H     0.51976   0.25400   0.51405   0.00000  Uiso   1.00
H485   H     0.49905   0.24265   0.39968   0.00000  Uiso   1.00
H486   H     0.43157   0.35114   0.53188   0.00000  Uiso   1.00
H487   H     0.64306   0.17886   0.60847   0.00000  Uiso   1.00
H488   H     0.45335   0.21333   0.27625   0.00000  Uiso   1.00
H489   H     0.31109   0.44208   0.55502   0.00000  Uiso   1.00
H490   H     0.75704   0.07880   0.71652   0.00000  Uiso   1.00
H491   H     0.34480   0.12488   0.54004   0.00000  Uiso   1.00
H492   H     0.31449   0.10644   0.42710   0.00000  Uiso   1.00
H493   H     0.24701   0.21493   0.55930   0.00000  Uiso   1.00
H494   H     0.45849   0.04266   0.63588   0.00000  Uiso   1.00
H495   H     0.30355   0.10278   0.29850   0.00000  Uiso   1.00
H496   H     0.16129   0.33153   0.57727   0.00000  Uiso   1.00
H497   H     0.60724   0.96825   0.73877   0.00000  Uiso   1.00
O498   O     0.36164   0.14828   0.21260   0.00000  Uiso   1.00
O499   O     0.17501   0.44838   0.57835   0.00000  Uiso   1.00
O500   O     0.76009   0.97177   0.79023   0.00000  Uiso   1.00
N501   N     0.42227   0.18983   0.29699   0.00000  Uiso   1.00
N502   N     0.28925   0.40370   0.55762   0.00000  Uiso   1.00
N503   N     0.70618   0.06408   0.70861   0.00000  Uiso   1.00
N504   N     0.34166   0.13035   0.30896   0.00000  Uiso   1.00
N505   N     0.20865   0.34421   0.56959   0.00000  Uiso   1.00
N506   N     0.62557   0.00459   0.72059   0.00000  Uiso   1.00
C507   C     0.70652   0.34097   0.46309   0.00000  Uiso   1.00
C508   C     0.62974   0.38731   0.41361   0.00000  Uiso   1.00
C509   C     0.57559   0.37310   0.36296   0.00000  Uiso   1.00
C510   C     0.50901   0.42209   0.32299   0.00000  Uiso   1.00
C511   C     0.39162   0.48479   0.24457   0.00000  Uiso   1.00
C512   C     0.77586   0.37030   0.46149   0.00000  Uiso   1.00
C513   C     0.84457   0.34178   0.45110   0.00000  Uiso   1.00
C514   C     0.90100   0.37645   0.45145   0.00000  Uiso   1.00
C515   C     0.01049   0.41272   0.44740   0.00000  Uiso   1.00
C516   C     0.69892   0.34223   0.52725   0.00000  Uiso   1.00
C517   C     0.70296   0.29010   0.57216   0.00000  Uiso   1.00
C518   C     0.69462   0.30113   0.62789   0.00000  Uiso   1.00
C519   C     0.68465   0.29380   0.72595   0.00000  Uiso   1.00
C520   C     0.68455   0.45324   0.48220   0.00000  Uiso   1.00
C521   C     0.61781   0.44830   0.42399   0.00000  Uiso   1.00
C522   C     0.55128   0.49732   0.38410   0.00000  Uiso   1.00
C523   C     0.49705   0.48318   0.33339   0.00000  Uiso   1.00
C524   C     0.76393   0.43128   0.47187   0.00000  Uiso   1.00
C525   C     0.82026   0.46600   0.47224   0.00000  Uiso   1.00
C526   C     0.88904   0.43754   0.46185   0.00000  Uiso   1.00
C527   C     0.68698   0.40321   0.53763   0.00000  Uiso   1.00
C528   C     0.67864   0.41432   0.59330   0.00000  Uiso   1.00
C529   C     0.68267   0.36222   0.63829   0.00000  Uiso   1.00
H530   H     0.71582   0.29349   0.45501   0.00000  Uiso   1.00
H531   H     0.58485   0.32590   0.35494   0.00000  Uiso   1.00
H532   H     0.85380   0.29459   0.44307   0.00000  Uiso   1.00
H533   H     0.71219   0.24292   0.56411   0.00000  Uiso   1.00
H534   H     0.43441   0.38874   0.24855   0.00000  Uiso   1.00
H535   H     0.00150   0.32270   0.43441   0.00000  Uiso   1.00
H536   H     0.70291   0.21374   0.68966   0.00000  Uiso   1.00
H537   H     0.67526   0.50072   0.49028   0.00000  Uiso   1.00
H538   H     0.54206   0.54451   0.39214   0.00000  Uiso   1.00
H539   H     0.81101   0.51319   0.48027   0.00000  Uiso   1.00
H540   H     0.66941   0.46152   0.60132   0.00000  Uiso   1.00
H541   H     0.39968   0.56617   0.27875   0.00000  Uiso   1.00
H542   H     0.96678   0.50013   0.46461   0.00000  Uiso   1.00
H543   H     0.66818   0.39116   0.71986   0.00000  Uiso   1.00
O544   O     0.33017   0.50252   0.19845   0.00000  Uiso   1.00
O545   O     0.07418   0.41588   0.44230   0.00000  Uiso   1.00
O546   O     0.68243   0.27292   0.77717   0.00000  Uiso   1.00
N547   N     0.44451   0.42449   0.26914   0.00000  Uiso   1.00
N548   N     0.97470   0.36275   0.44289   0.00000  Uiso   1.00
N549   N     0.69556   0.26087   0.68153   0.00000  Uiso   1.00
N550   N     0.42582   0.51996   0.28538   0.00000  Uiso   1.00
N551   N     0.95601   0.45822   0.45914   0.00000  Uiso   1.00
N552   N     0.67688   0.35634   0.69778   0.00000  Uiso   1.00
