data_job_00383
_audit_creation_date              2018-12-19
_audit_creation_method            'Materials Studio'
_symmetry_space_group_name_H-M    'P1'
_symmetry_Int_Tables_number       1
_symmetry_cell_setting            triclinic
loop_
_symmetry_equiv_pos_as_xyz
  x,y,z
_cell_length_a                    12.5066
_cell_length_b                    12.5066
_cell_length_c                    12.3172
_cell_angle_alpha                 90.0000
_cell_angle_beta                  90.0000
_cell_angle_gamma                 120.0000
loop_
_atom_site_label
_atom_site_type_symbol
_atom_site_fract_x
_atom_site_fract_y
_atom_site_fract_z
_atom_site_U_iso_or_equiv
_atom_site_adp_type
_atom_site_occupancy
C1     C     0.98123   0.52478   0.74136   0.00000  Uiso   1.00
C2     C     0.02650   0.58146   0.62934   0.00000  Uiso   1.00
C3     C     0.10597   0.56332   0.56332   0.00000  Uiso   1.00
C4     C     0.13634   0.62339   0.46374   0.00000  Uiso   1.00
C5     C     0.21391   0.69996   0.29474   0.00000  Uiso   1.00
C6     C     0.01671   0.63279   0.81852   0.00000  Uiso   1.00
C7     C     0.08793   0.65780   0.91157   0.00000  Uiso   1.00
C8     C     0.11005   0.76107   0.97125   0.00000  Uiso   1.00
C9     C     0.17234   0.91728   0.09599   0.00000  Uiso   1.00
C10    C     0.84061   0.45531   0.73548   0.00000  Uiso   1.00
C11    C     0.76374   0.33110   0.75874   0.00000  Uiso   1.00
C12    C     0.63758   0.28496   0.74854   0.00000  Uiso   1.00
C13    C     0.42644   0.16562   0.74436   0.00000  Uiso   1.00
C14    C     0.89386   0.66370   0.68191   0.00000  Uiso   1.00
C15    C     0.97905   0.65692   0.59706   0.00000  Uiso   1.00
C16    C     0.00930   0.71702   0.49755   0.00000  Uiso   1.00
C17    C     0.08880   0.69897   0.43139   0.00000  Uiso   1.00
C18    C     0.96926   0.70825   0.78623   0.00000  Uiso   1.00
C19    C     0.99127   0.81150   0.84580   0.00000  Uiso   1.00
C20    C     0.06251   0.83666   0.93890   0.00000  Uiso   1.00
C21    C     0.79314   0.53077   0.70319   0.00000  Uiso   1.00
C22    C     0.66708   0.48481   0.69296   0.00000  Uiso   1.00
C23    C     0.59004   0.36055   0.71619   0.00000  Uiso   1.00
H24    H     0.01818   0.46604   0.76650   0.00000  Uiso   1.00
H25    H     0.14269   0.50493   0.58834   0.00000  Uiso   1.00
H26    H     0.12464   0.59938   0.93654   0.00000  Uiso   1.00
H27    H     0.80050   0.27274   0.78373   0.00000  Uiso   1.00
H28    H     0.25983   0.58135   0.37660   0.00000  Uiso   1.00
H29    H     0.22174   0.78049   0.11081   0.00000  Uiso   1.00
H30    H     0.53823   0.09170   0.78858   0.00000  Uiso   1.00
H31    H     0.85691   0.72246   0.65678   0.00000  Uiso   1.00
H32    H     0.97256   0.77541   0.47258   0.00000  Uiso   1.00
H33    H     0.95452   0.86986   0.82079   0.00000  Uiso   1.00
H34    H     0.63039   0.54323   0.66797   0.00000  Uiso   1.00
H35    H     0.12176   0.80089   0.28265   0.00000  Uiso   1.00
H36    H     0.08367   0.00002   0.01686   0.00000  Uiso   1.00
H37    H     0.40016   0.31124   0.69463   0.00000  Uiso   1.00
O38    O     0.26982   0.72136   0.21045   0.00000  Uiso   1.00
O39    O     0.21983   0.98260   0.17372   0.00000  Uiso   1.00
O40    O     0.32309   0.07894   0.75096   0.00000  Uiso   1.00
N41    N     0.21144   0.62573   0.37975   0.00000  Uiso   1.00
N42    N     0.17585   0.81192   0.06619   0.00000  Uiso   1.00
N43    N     0.53683   0.16798   0.76496   0.00000  Uiso   1.00
N44    N     0.13715   0.74386   0.32920   0.00000  Uiso   1.00
N45    N     0.10155   0.93005   0.01563   0.00000  Uiso   1.00
N46    N     0.46253   0.28611   0.71441   0.00000  Uiso   1.00
C47    C     0.47522   0.45645   0.40803   0.00000  Uiso   1.00
C48    C     0.41854   0.44505   0.29601   0.00000  Uiso   1.00
C49    C     0.43668   0.54265   0.22999   0.00000  Uiso   1.00
C50    C     0.37661   0.51296   0.13041   0.00000  Uiso   1.00
C51    C     0.30004   0.51395   0.96141   0.00000  Uiso   1.00
C52    C     0.36721   0.38392   0.48519   0.00000  Uiso   1.00
C53    C     0.34220   0.43014   0.57823   0.00000  Uiso   1.00
C54    C     0.23893   0.34898   0.63791   0.00000  Uiso   1.00
C55    C     0.08272   0.25506   0.76266   0.00000  Uiso   1.00
C56    C     0.54469   0.38529   0.40215   0.00000  Uiso   1.00
C57    C     0.66890   0.43264   0.42541   0.00000  Uiso   1.00
C58    C     0.71504   0.35262   0.41521   0.00000  Uiso   1.00
C59    C     0.83438   0.26082   0.41103   0.00000  Uiso   1.00
C60    C     0.33630   0.23015   0.34858   0.00000  Uiso   1.00
C61    C     0.34308   0.32213   0.26372   0.00000  Uiso   1.00
C62    C     0.28298   0.29228   0.16422   0.00000  Uiso   1.00
C63    C     0.30103   0.38982   0.09806   0.00000  Uiso   1.00
C64    C     0.29175   0.26101   0.45290   0.00000  Uiso   1.00
C65    C     0.18850   0.17977   0.51246   0.00000  Uiso   1.00
C66    C     0.16334   0.22585   0.60557   0.00000  Uiso   1.00
C67    C     0.46923   0.26237   0.36986   0.00000  Uiso   1.00
C68    C     0.51519   0.18227   0.35963   0.00000  Uiso   1.00
C69    C     0.63945   0.22949   0.38286   0.00000  Uiso   1.00
H70    H     0.53396   0.55214   0.43317   0.00000  Uiso   1.00
H71    H     0.49507   0.63776   0.25501   0.00000  Uiso   1.00
H72    H     0.40062   0.52526   0.60321   0.00000  Uiso   1.00
H73    H     0.72726   0.52776   0.45039   0.00000  Uiso   1.00
H74    H     0.41865   0.67848   0.04326   0.00000  Uiso   1.00
H75    H     0.21951   0.44125   0.77747   0.00000  Uiso   1.00
H76    H     0.90830   0.44653   0.45525   0.00000  Uiso   1.00
H77    H     0.27754   0.13445   0.32344   0.00000  Uiso   1.00
H78    H     0.22459   0.19715   0.13925   0.00000  Uiso   1.00
H79    H     0.13014   0.08466   0.48745   0.00000  Uiso   1.00
H80    H     0.45677   0.08716   0.33464   0.00000  Uiso   1.00
H81    H     0.19911   0.32087   0.94931   0.00000  Uiso   1.00
H82    H     0.99998   0.08364   0.68353   0.00000  Uiso   1.00
H83    H     0.68876   0.08892   0.36130   0.00000  Uiso   1.00
O84    O     0.27864   0.54846   0.87712   0.00000  Uiso   1.00
O85    O     0.01740   0.23722   0.84038   0.00000  Uiso   1.00
O86    O     0.92106   0.24415   0.41763   0.00000  Uiso   1.00
N87    N     0.37427   0.58571   0.04642   0.00000  Uiso   1.00
N88    N     0.18808   0.36393   0.73285   0.00000  Uiso   1.00
N89    N     0.83202   0.36885   0.43163   0.00000  Uiso   1.00
N90    N     0.25614   0.39328   0.99586   0.00000  Uiso   1.00
N91    N     0.06995   0.17150   0.68230   0.00000  Uiso   1.00
N92    N     0.71389   0.17642   0.38107   0.00000  Uiso   1.00
C93    C     0.54355   0.01877   0.07469   0.00000  Uiso   1.00
C94    C     0.55495   0.97350   0.96267   0.00000  Uiso   1.00
C95    C     0.45735   0.89403   0.89665   0.00000  Uiso   1.00
C96    C     0.48704   0.86366   0.79708   0.00000  Uiso   1.00
C97    C     0.48605   0.78609   0.62808   0.00000  Uiso   1.00
C98    C     0.61608   0.98329   0.15185   0.00000  Uiso   1.00
C99    C     0.56986   0.91207   0.24490   0.00000  Uiso   1.00
C100   C     0.65102   0.88995   0.30458   0.00000  Uiso   1.00
C101   C     0.74494   0.82766   0.42933   0.00000  Uiso   1.00
C102   C     0.61471   0.15939   0.06882   0.00000  Uiso   1.00
C103   C     0.56736   0.23626   0.09208   0.00000  Uiso   1.00
C104   C     0.64738   0.36242   0.08187   0.00000  Uiso   1.00
C105   C     0.73918   0.57356   0.07769   0.00000  Uiso   1.00
C106   C     0.76985   0.10614   0.01525   0.00000  Uiso   1.00
C107   C     0.67787   0.02095   0.93039   0.00000  Uiso   1.00
C108   C     0.70772   0.99070   0.83088   0.00000  Uiso   1.00
C109   C     0.61018   0.91120   0.76473   0.00000  Uiso   1.00
C110   C     0.73899   0.03074   0.11957   0.00000  Uiso   1.00
C111   C     0.82023   0.00873   0.17913   0.00000  Uiso   1.00
C112   C     0.77415   0.93749   0.27224   0.00000  Uiso   1.00
C113   C     0.73763   0.20686   0.03653   0.00000  Uiso   1.00
C114   C     0.81773   0.33292   0.02630   0.00000  Uiso   1.00
C115   C     0.77051   0.40996   0.04953   0.00000  Uiso   1.00
H116   H     0.44786   0.98182   0.09984   0.00000  Uiso   1.00
H117   H     0.36224   0.85731   0.92168   0.00000  Uiso   1.00
H118   H     0.47474   0.87536   0.26987   0.00000  Uiso   1.00
H119   H     0.47224   0.19950   0.11706   0.00000  Uiso   1.00
H120   H     0.32152   0.74017   0.70993   0.00000  Uiso   1.00
H121   H     0.55875   0.77826   0.44414   0.00000  Uiso   1.00
H122   H     0.55347   0.46177   0.12192   0.00000  Uiso   1.00
H123   H     0.86555   0.14309   0.99011   0.00000  Uiso   1.00
H124   H     0.80285   0.02744   0.80592   0.00000  Uiso   1.00
H125   H     0.91534   0.04548   0.15412   0.00000  Uiso   1.00
H126   H     0.91284   0.36961   0.00131   0.00000  Uiso   1.00
H127   H     0.67913   0.87824   0.61598   0.00000  Uiso   1.00
H128   H     0.91636   0.91633   0.35020   0.00000  Uiso   1.00
H129   H     0.91108   0.59984   0.02796   0.00000  Uiso   1.00
O130   O     0.45154   0.73018   0.54379   0.00000  Uiso   1.00
O131   O     0.76278   0.78017   0.50705   0.00000  Uiso   1.00
O132   O     0.75585   0.67691   0.08429   0.00000  Uiso   1.00
N133   N     0.41429   0.78856   0.71309   0.00000  Uiso   1.00
N134   N     0.63607   0.82415   0.39952   0.00000  Uiso   1.00
N135   N     0.63115   0.46317   0.09830   0.00000  Uiso   1.00
N136   N     0.60672   0.86285   0.66253   0.00000  Uiso   1.00
N137   N     0.82850   0.89845   0.34897   0.00000  Uiso   1.00
N138   N     0.82358   0.53747   0.04774   0.00000  Uiso   1.00
