data_job_06000
_audit_creation_date              2018-12-19
_audit_creation_method            'Materials Studio'
_symmetry_space_group_name_H-M    'P1'
_symmetry_Int_Tables_number       1
_symmetry_cell_setting            triclinic
loop_
_symmetry_equiv_pos_as_xyz
  x,y,z
_cell_length_a                    16.4188
_cell_length_b                    16.0034
_cell_length_c                    15.8233
_cell_angle_alpha                 99.8844
_cell_angle_beta                  99.6843
_cell_angle_gamma                 100.0720
loop_
_atom_site_label
_atom_site_type_symbol
_atom_site_fract_x
_atom_site_fract_y
_atom_site_fract_z
_atom_site_U_iso_or_equiv
_atom_site_adp_type
_atom_site_occupancy
C1     C     0.25275   0.75730   0.87299   0.00000  Uiso   1.00
C2     C     0.25823   0.83478   0.94638   0.00000  Uiso   1.00
C3     C     0.20769   0.83799   0.00840   0.00000  Uiso   1.00
C4     C     0.22262   0.91483   0.07011   0.00000  Uiso   1.00
C5     C     0.22148   0.02435   0.18409   0.00000  Uiso   1.00
C6     C     0.23923   0.79036   0.78794   0.00000  Uiso   1.00
C7     C     0.17273   0.75621   0.71674   0.00000  Uiso   1.00
C8     C     0.17168   0.79565   0.64508   0.00000  Uiso   1.00
C9     C     0.14108   0.83616   0.51305   0.00000  Uiso   1.00
C10    C     0.34056   0.73638   0.88418   0.00000  Uiso   1.00
C11    C     0.35926   0.65684   0.89388   0.00000  Uiso   1.00
C12    C     0.44352   0.65084   0.90323   0.00000  Uiso   1.00
C13    C     0.57025   0.60754   0.92063   0.00000  Uiso   1.00
C14    C     0.36915   0.88806   0.87230   0.00000  Uiso   1.00
C15    C     0.32145   0.90581   0.94600   0.00000  Uiso   1.00
C16    C     0.33647   0.98266   0.00764   0.00000  Uiso   1.00
C17    C     0.28596   0.98598   0.06974   0.00000  Uiso   1.00
C18    C     0.30245   0.86138   0.78756   0.00000  Uiso   1.00
C19    C     0.30151   0.90088   0.71598   0.00000  Uiso   1.00
C20    C     0.23502   0.86681   0.64470   0.00000  Uiso   1.00
C21    C     0.40379   0.80741   0.88381   0.00000  Uiso   1.00
C22    C     0.48804   0.80152   0.89313   0.00000  Uiso   1.00
C23    C     0.50686   0.72199   0.90285   0.00000  Uiso   1.00
H24    H     0.20353   0.70201   0.87328   0.00000  Uiso   1.00
H25    H     0.15876   0.78301   0.00867   0.00000  Uiso   1.00
H26    H     0.12382   0.70124   0.71705   0.00000  Uiso   1.00
H27    H     0.31032   0.60190   0.89417   0.00000  Uiso   1.00
H28    H     0.13699   0.90415   0.15858   0.00000  Uiso   1.00
H29    H     0.06331   0.73172   0.54368   0.00000  Uiso   1.00
H30    H     0.45659   0.52222   0.91717   0.00000  Uiso   1.00
H31    H     0.41837   0.94336   0.87201   0.00000  Uiso   1.00
H32    H     0.38540   0.03761   0.00733   0.00000  Uiso   1.00
H33    H     0.35045   0.95584   0.71571   0.00000  Uiso   1.00
H34    H     0.53695   0.85649   0.89283   0.00000  Uiso   1.00
H35    H     0.32093   0.11080   0.15749   0.00000  Uiso   1.00
H36    H     0.24726   0.93836   0.54259   0.00000  Uiso   1.00
H37    H     0.64053   0.72887   0.91608   0.00000  Uiso   1.00
O38    O     0.20337   0.06513   0.24706   0.00000  Uiso   1.00
O39    O     0.10672   0.83889   0.44033   0.00000  Uiso   1.00
O40    O     0.62268   0.56404   0.93035   0.00000  Uiso   1.00
N41    N     0.18482   0.93985   0.13977   0.00000  Uiso   1.00
N42    N     0.11593   0.77864   0.56488   0.00000  Uiso   1.00
N43    N     0.48360   0.58277   0.91403   0.00000  Uiso   1.00
N44    N     0.28380   0.05104   0.13918   0.00000  Uiso   1.00
N45    N     0.21491   0.88983   0.56429   0.00000  Uiso   1.00
N46    N     0.58258   0.69396   0.91345   0.00000  Uiso   1.00
C47    C     0.86686   0.25176   0.75538   0.00000  Uiso   1.00
C48    C     0.93772   0.25672   0.83311   0.00000  Uiso   1.00
C49    C     0.99675   0.20436   0.83567   0.00000  Uiso   1.00
C50    C     0.05650   0.21911   0.91289   0.00000  Uiso   1.00
C51    C     0.16640   0.21692   0.02266   0.00000  Uiso   1.00
C52    C     0.78505   0.23827   0.78952   0.00000  Uiso   1.00
C53    C     0.71573   0.17040   0.75542   0.00000  Uiso   1.00
C54    C     0.64695   0.16964   0.79594   0.00000  Uiso   1.00
C55    C     0.51982   0.13884   0.83798   0.00000  Uiso   1.00
C56    C     0.87858   0.34206   0.73437   0.00000  Uiso   1.00
C57    C     0.88787   0.36146   0.65388   0.00000  Uiso   1.00
C58    C     0.89782   0.44809   0.64796   0.00000  Uiso   1.00
C59    C     0.91589   0.57845   0.60437   0.00000  Uiso   1.00
C60    C     0.86799   0.37109   0.88796   0.00000  Uiso   1.00
C61    C     0.93832   0.32153   0.90513   0.00000  Uiso   1.00
C62    C     0.99800   0.33638   0.98236   0.00000  Uiso   1.00
C63    C     0.05711   0.28405   0.98504   0.00000  Uiso   1.00
C64    C     0.78566   0.30308   0.86153   0.00000  Uiso   1.00
C65    C     0.71697   0.30242   0.90211   0.00000  Uiso   1.00
C66    C     0.64756   0.23457   0.86808   0.00000  Uiso   1.00
C67    C     0.87919   0.40688   0.80638   0.00000  Uiso   1.00
C68    C     0.88912   0.49349   0.80058   0.00000  Uiso   1.00
C69    C     0.89843   0.51302   0.72010   0.00000  Uiso   1.00
H70    H     0.86638   0.20130   0.69931   0.00000  Uiso   1.00
H71    H     0.99626   0.15420   0.77993   0.00000  Uiso   1.00
H72    H     0.71527   0.12026   0.69968   0.00000  Uiso   1.00
H73    H     0.88739   0.31129   0.59817   0.00000  Uiso   1.00
H74    H     0.14049   0.13054   0.90108   0.00000  Uiso   1.00
H75    H     0.54801   0.05899   0.73186   0.00000  Uiso   1.00
H76    H     0.91096   0.46182   0.51779   0.00000  Uiso   1.00
H77    H     0.86846   0.42155   0.94403   0.00000  Uiso   1.00
H78    H     0.99845   0.38654   0.03808   0.00000  Uiso   1.00
H79    H     0.71746   0.35259   0.95783   0.00000  Uiso   1.00
H80    H     0.88959   0.54363   0.85632   0.00000  Uiso   1.00
H81    H     0.14227   0.31911   0.11061   0.00000  Uiso   1.00
H82    H     0.54979   0.24756   0.94138   0.00000  Uiso   1.00
H83    H     0.91274   0.65040   0.72732   0.00000  Uiso   1.00
O84    O     0.22684   0.19780   0.06331   0.00000  Uiso   1.00
O85    O     0.44953   0.10394   0.84128   0.00000  Uiso   1.00
O86    O     0.92571   0.63245   0.56043   0.00000  Uiso   1.00
N87    N     0.12309   0.17974   0.93748   0.00000  Uiso   1.00
N88    N     0.56915   0.11283   0.77927   0.00000  Uiso   1.00
N89    N     0.90846   0.48945   0.57913   0.00000  Uiso   1.00
N90    N     0.12404   0.28121   0.05023   0.00000  Uiso   1.00
N91    N     0.57011   0.21430   0.89202   0.00000  Uiso   1.00
N92    N     0.90941   0.59092   0.69188   0.00000  Uiso   1.00
C93    C     0.75932   0.87156   0.25271   0.00000  Uiso   1.00
C94    C     0.83489   0.94395   0.25724   0.00000  Uiso   1.00
C95    C     0.83788   0.00480   0.20442   0.00000  Uiso   1.00
C96    C     0.91285   0.06574   0.21884   0.00000  Uiso   1.00
C97    C     0.01964   0.17811   0.21597   0.00000  Uiso   1.00
C98    C     0.79114   0.78725   0.23854   0.00000  Uiso   1.00
C99    C     0.75733   0.71636   0.17000   0.00000  Uiso   1.00
C100   C     0.79547   0.64539   0.16869   0.00000  Uiso   1.00
C101   C     0.83429   0.51447   0.13681   0.00000  Uiso   1.00
C102   C     0.73955   0.88347   0.34426   0.00000  Uiso   1.00
C103   C     0.66236   0.89345   0.36462   0.00000  Uiso   1.00
C104   C     0.65707   0.90346   0.45231   0.00000  Uiso   1.00
C105   C     0.61580   0.92192   0.58459   0.00000  Uiso   1.00
C106   C     0.88717   0.87156   0.37224   0.00000  Uiso   1.00
C107   C     0.90433   0.94394   0.32216   0.00000  Uiso   1.00
C108   C     0.97932   0.00480   0.33667   0.00000  Uiso   1.00
C109   C     0.98242   0.06574   0.28388   0.00000  Uiso   1.00
C110   C     0.86058   0.78725   0.30346   0.00000  Uiso   1.00
C111   C     0.89877   0.71636   0.30225   0.00000  Uiso   1.00
C112   C     0.86503   0.64539   0.23373   0.00000  Uiso   1.00
C113   C     0.80899   0.88347   0.40919   0.00000  Uiso   1.00
C114   C     0.80381   0.89345   0.49687   0.00000  Uiso   1.00
C115   C     0.72663   0.90346   0.51735   0.00000  Uiso   1.00
H116   H     0.70526   0.87155   0.20216   0.00000  Uiso   1.00
H117   H     0.78413   0.00478   0.15418   0.00000  Uiso   1.00
H118   H     0.70359   0.71638   0.11977   0.00000  Uiso   1.00
H119   H     0.60864   0.89344   0.31436   0.00000  Uiso   1.00
H120   H     0.90220   0.15246   0.12959   0.00000  Uiso   1.00
H121   H     0.73235   0.54435   0.05706   0.00000  Uiso   1.00
H122   H     0.53214   0.91772   0.46738   0.00000  Uiso   1.00
H123   H     0.94123   0.87155   0.42279   0.00000  Uiso   1.00
H124   H     0.03305   0.00479   0.38692   0.00000  Uiso   1.00
H125   H     0.95250   0.71638   0.35251   0.00000  Uiso   1.00
H126   H     0.85756   0.89345   0.54709   0.00000  Uiso   1.00
H127   H     0.10423   0.15246   0.31849   0.00000  Uiso   1.00
H128   H     0.93438   0.54435   0.24595   0.00000  Uiso   1.00
H129   H     0.73417   0.91773   0.65628   0.00000  Uiso   1.00
O130   O     0.05937   0.24008   0.19644   0.00000  Uiso   1.00
O131   O     0.83652   0.44226   0.10129   0.00000  Uiso   1.00
O132   O     0.57385   0.93212   0.63962   0.00000  Uiso   1.00
N133   N     0.93714   0.13419   0.17898   0.00000  Uiso   1.00
N134   N     0.77835   0.56564   0.11116   0.00000  Uiso   1.00
N135   N     0.59117   0.91469   0.49477   0.00000  Uiso   1.00
N136   N     0.04585   0.13419   0.28063   0.00000  Uiso   1.00
N137   N     0.88706   0.56565   0.21281   0.00000  Uiso   1.00
N138   N     0.69988   0.91470   0.59642   0.00000  Uiso   1.00
C139   C     0.74725   0.24270   0.12701   0.00000  Uiso   1.00
C140   C     0.74177   0.16522   0.05362   0.00000  Uiso   1.00
C141   C     0.79231   0.16201   0.99160   0.00000  Uiso   1.00
C142   C     0.77738   0.08517   0.92989   0.00000  Uiso   1.00
C143   C     0.77852   0.97565   0.81591   0.00000  Uiso   1.00
C144   C     0.76077   0.20964   0.21206   0.00000  Uiso   1.00
C145   C     0.82727   0.24379   0.28326   0.00000  Uiso   1.00
C146   C     0.82832   0.20435   0.35492   0.00000  Uiso   1.00
C147   C     0.85892   0.16384   0.48695   0.00000  Uiso   1.00
C148   C     0.65944   0.26362   0.11582   0.00000  Uiso   1.00
C149   C     0.64074   0.34316   0.10612   0.00000  Uiso   1.00
C150   C     0.55648   0.34916   0.09677   0.00000  Uiso   1.00
C151   C     0.42975   0.39246   0.07937   0.00000  Uiso   1.00
C152   C     0.63085   0.11194   0.12770   0.00000  Uiso   1.00
C153   C     0.67855   0.09419   0.05400   0.00000  Uiso   1.00
C154   C     0.66353   0.01734   0.99236   0.00000  Uiso   1.00
C155   C     0.71404   0.01402   0.93026   0.00000  Uiso   1.00
C156   C     0.69755   0.13862   0.21244   0.00000  Uiso   1.00
C157   C     0.69849   0.09912   0.28402   0.00000  Uiso   1.00
C158   C     0.76498   0.13319   0.35530   0.00000  Uiso   1.00
C159   C     0.59621   0.19259   0.11619   0.00000  Uiso   1.00
C160   C     0.51196   0.19848   0.10687   0.00000  Uiso   1.00
C161   C     0.49314   0.27801   0.09715   0.00000  Uiso   1.00
H162   H     0.79647   0.29799   0.12672   0.00000  Uiso   1.00
H163   H     0.84124   0.21699   0.99133   0.00000  Uiso   1.00
H164   H     0.87618   0.29876   0.28295   0.00000  Uiso   1.00
H165   H     0.68968   0.39810   0.10583   0.00000  Uiso   1.00
H166   H     0.86301   0.09585   0.84142   0.00000  Uiso   1.00
H167   H     0.93668   0.26828   0.45632   0.00000  Uiso   1.00
H168   H     0.54341   0.47778   0.08283   0.00000  Uiso   1.00
H169   H     0.58162   0.05664   0.12799   0.00000  Uiso   1.00
H170   H     0.61460   0.96239   0.99267   0.00000  Uiso   1.00
H171   H     0.64955   0.04416   0.28429   0.00000  Uiso   1.00
H172   H     0.46305   0.14351   0.10717   0.00000  Uiso   1.00
H173   H     0.67907   0.88920   0.84251   0.00000  Uiso   1.00
H174   H     0.75274   0.06164   0.45741   0.00000  Uiso   1.00
H175   H     0.35947   0.27113   0.08392   0.00000  Uiso   1.00
O176   O     0.79663   0.93487   0.75294   0.00000  Uiso   1.00
O177   O     0.89328   0.16111   0.55967   0.00000  Uiso   1.00
O178   O     0.37732   0.43596   0.06965   0.00000  Uiso   1.00
N179   N     0.81518   0.06015   0.86023   0.00000  Uiso   1.00
N180   N     0.88407   0.22136   0.43512   0.00000  Uiso   1.00
N181   N     0.51640   0.41723   0.08597   0.00000  Uiso   1.00
N182   N     0.71620   0.94896   0.86082   0.00000  Uiso   1.00
N183   N     0.78509   0.11017   0.43571   0.00000  Uiso   1.00
N184   N     0.41742   0.30604   0.08655   0.00000  Uiso   1.00
C185   C     0.13314   0.74824   0.24462   0.00000  Uiso   1.00
C186   C     0.06228   0.74328   0.16689   0.00000  Uiso   1.00
C187   C     0.00325   0.79564   0.16433   0.00000  Uiso   1.00
C188   C     0.94350   0.78089   0.08711   0.00000  Uiso   1.00
C189   C     0.83360   0.78308   0.97734   0.00000  Uiso   1.00
C190   C     0.21495   0.76173   0.21048   0.00000  Uiso   1.00
C191   C     0.28427   0.82960   0.24458   0.00000  Uiso   1.00
C192   C     0.35305   0.83036   0.20406   0.00000  Uiso   1.00
C193   C     0.48018   0.86116   0.16202   0.00000  Uiso   1.00
C194   C     0.12142   0.65794   0.26563   0.00000  Uiso   1.00
C195   C     0.11213   0.63854   0.34612   0.00000  Uiso   1.00
C196   C     0.10218   0.55191   0.35204   0.00000  Uiso   1.00
C197   C     0.08411   0.42155   0.39563   0.00000  Uiso   1.00
C198   C     0.13201   0.62891   0.11204   0.00000  Uiso   1.00
C199   C     0.06168   0.67847   0.09487   0.00000  Uiso   1.00
C200   C     0.00200   0.66362   0.01764   0.00000  Uiso   1.00
C201   C     0.94289   0.71595   0.01496   0.00000  Uiso   1.00
C202   C     0.21434   0.69692   0.13847   0.00000  Uiso   1.00
C203   C     0.28303   0.69758   0.09789   0.00000  Uiso   1.00
C204   C     0.35244   0.76543   0.13192   0.00000  Uiso   1.00
C205   C     0.12081   0.59312   0.19362   0.00000  Uiso   1.00
C206   C     0.11088   0.50651   0.19942   0.00000  Uiso   1.00
C207   C     0.10157   0.48698   0.27990   0.00000  Uiso   1.00
H208   H     0.13362   0.79870   0.30069   0.00000  Uiso   1.00
H209   H     0.00374   0.84580   0.22007   0.00000  Uiso   1.00
H210   H     0.28473   0.87974   0.30032   0.00000  Uiso   1.00
H211   H     0.11261   0.68871   0.40183   0.00000  Uiso   1.00
H212   H     0.85951   0.86946   0.09892   0.00000  Uiso   1.00
H213   H     0.45199   0.94101   0.26814   0.00000  Uiso   1.00
H214   H     0.08904   0.53818   0.48221   0.00000  Uiso   1.00
H215   H     0.13154   0.57845   0.05597   0.00000  Uiso   1.00
H216   H     0.00155   0.61346   0.96192   0.00000  Uiso   1.00
H217   H     0.28254   0.64741   0.04217   0.00000  Uiso   1.00
H218   H     0.11041   0.45637   0.14368   0.00000  Uiso   1.00
H219   H     0.85772   0.68089   0.88939   0.00000  Uiso   1.00
H220   H     0.45021   0.75244   0.05862   0.00000  Uiso   1.00
H221   H     0.08726   0.34960   0.27268   0.00000  Uiso   1.00
O222   O     0.77316   0.80220   0.93669   0.00000  Uiso   1.00
O223   O     0.55047   0.89606   0.15872   0.00000  Uiso   1.00
O224   O     0.07429   0.36755   0.43957   0.00000  Uiso   1.00
N225   N     0.87691   0.82026   0.06252   0.00000  Uiso   1.00
N226   N     0.43085   0.88716   0.22073   0.00000  Uiso   1.00
N227   N     0.09154   0.51055   0.42087   0.00000  Uiso   1.00
N228   N     0.87596   0.71879   0.94977   0.00000  Uiso   1.00
N229   N     0.42989   0.78570   0.10798   0.00000  Uiso   1.00
N230   N     0.09059   0.40908   0.30812   0.00000  Uiso   1.00
C231   C     0.24068   0.12844   0.74729   0.00000  Uiso   1.00
C232   C     0.16511   0.05605   0.74276   0.00000  Uiso   1.00
C233   C     0.16212   0.99520   0.79558   0.00000  Uiso   1.00
C234   C     0.08715   0.93426   0.78116   0.00000  Uiso   1.00
C235   C     0.98036   0.82189   0.78403   0.00000  Uiso   1.00
C236   C     0.20886   0.21275   0.76146   0.00000  Uiso   1.00
C237   C     0.24267   0.28364   0.83000   0.00000  Uiso   1.00
C238   C     0.20453   0.35461   0.83131   0.00000  Uiso   1.00
C239   C     0.16571   0.48553   0.86318   0.00000  Uiso   1.00
C240   C     0.26045   0.11653   0.65574   0.00000  Uiso   1.00
C241   C     0.33764   0.10655   0.63538   0.00000  Uiso   1.00
C242   C     0.34293   0.09654   0.54769   0.00000  Uiso   1.00
C243   C     0.38420   0.07808   0.41541   0.00000  Uiso   1.00
C244   C     0.11283   0.12844   0.62776   0.00000  Uiso   1.00
C245   C     0.09567   0.05606   0.67783   0.00000  Uiso   1.00
C246   C     0.02068   0.99520   0.66333   0.00000  Uiso   1.00
C247   C     0.01758   0.93426   0.71612   0.00000  Uiso   1.00
C248   C     0.13942   0.21275   0.69654   0.00000  Uiso   1.00
C249   C     0.10123   0.28364   0.69775   0.00000  Uiso   1.00
C250   C     0.13497   0.35461   0.76627   0.00000  Uiso   1.00
C251   C     0.19101   0.11653   0.59081   0.00000  Uiso   1.00
C252   C     0.19619   0.10655   0.50313   0.00000  Uiso   1.00
C253   C     0.27337   0.09654   0.48265   0.00000  Uiso   1.00
H254   H     0.29474   0.12845   0.79784   0.00000  Uiso   1.00
H255   H     0.21587   0.99522   0.84582   0.00000  Uiso   1.00
H256   H     0.29641   0.28362   0.88023   0.00000  Uiso   1.00
H257   H     0.39136   0.10656   0.68564   0.00000  Uiso   1.00
H258   H     0.09780   0.84754   0.87041   0.00000  Uiso   1.00
H259   H     0.26765   0.45565   0.94294   0.00000  Uiso   1.00
H260   H     0.46786   0.08228   0.53262   0.00000  Uiso   1.00
H261   H     0.05877   0.12845   0.57721   0.00000  Uiso   1.00
H262   H     0.96695   0.99521   0.61308   0.00000  Uiso   1.00
H263   H     0.04750   0.28362   0.64749   0.00000  Uiso   1.00
H264   H     0.14244   0.10655   0.45291   0.00000  Uiso   1.00
H265   H     0.89577   0.84754   0.68151   0.00000  Uiso   1.00
H266   H     0.06562   0.45565   0.75404   0.00000  Uiso   1.00
H267   H     0.26583   0.08227   0.34372   0.00000  Uiso   1.00
O268   O     0.94063   0.75992   0.80356   0.00000  Uiso   1.00
O269   O     0.16348   0.55774   0.89871   0.00000  Uiso   1.00
O270   O     0.42615   0.06788   0.36038   0.00000  Uiso   1.00
N271   N     0.06286   0.86581   0.82102   0.00000  Uiso   1.00
N272   N     0.22165   0.43436   0.88884   0.00000  Uiso   1.00
N273   N     0.40883   0.08531   0.50523   0.00000  Uiso   1.00
N274   N     0.95415   0.86581   0.71937   0.00000  Uiso   1.00
N275   N     0.11294   0.43435   0.78719   0.00000  Uiso   1.00
N276   N     0.30012   0.08530   0.40358   0.00000  Uiso   1.00
