data_job_01443
_audit_creation_date              2018-12-19
_audit_creation_method            'Materials Studio'
_symmetry_space_group_name_H-M    'P1'
_symmetry_Int_Tables_number       1
_symmetry_cell_setting            triclinic
loop_
_symmetry_equiv_pos_as_xyz
  x,y,z
_cell_length_a                    12.3816
_cell_length_b                    12.4858
_cell_length_c                    12.7006
_cell_angle_alpha                 110.6509
_cell_angle_beta                  81.7559
_cell_angle_gamma                 107.1986
loop_
_atom_site_label
_atom_site_type_symbol
_atom_site_fract_x
_atom_site_fract_y
_atom_site_fract_z
_atom_site_U_iso_or_equiv
_atom_site_adp_type
_atom_site_occupancy
C1     C     0.21232   0.24089   0.71943   0.00000  Uiso   1.00
C2     C     0.26081   0.16641   0.76321   0.00000  Uiso   1.00
C3     C     0.34464   0.11035   0.70901   0.00000  Uiso   1.00
C4     C     0.37737   0.04639   0.76293   0.00000  Uiso   1.00
C5     C     0.46014   0.93183   0.81501   0.00000  Uiso   1.00
C6     C     0.08492   0.18487   0.71556   0.00000  Uiso   1.00
C7     C     0.02086   0.14435   0.62130   0.00000  Uiso   1.00
C8     C     0.90553   0.09594   0.63511   0.00000  Uiso   1.00
C9     C     0.71521   0.01012   0.61324   0.00000  Uiso   1.00
C10    C     0.22891   0.36187   0.81117   0.00000  Uiso   1.00
C11    C     0.28589   0.47019   0.79729   0.00000  Uiso   1.00
C12    C     0.29177   0.57081   0.89160   0.00000  Uiso   1.00
C13    C     0.32501   0.75982   0.01817   0.00000  Uiso   1.00
C14    C     0.12139   0.22700   0.91157   0.00000  Uiso   1.00
C15    C     0.21142   0.15886   0.86757   0.00000  Uiso   1.00
C16    C     0.24404   0.09497   0.92159   0.00000  Uiso   1.00
C17    C     0.32790   0.03883   0.86748   0.00000  Uiso   1.00
C18    C     0.03553   0.17732   0.81992   0.00000  Uiso   1.00
C19    C     0.92027   0.12897   0.83387   0.00000  Uiso   1.00
C20    C     0.85605   0.08838   0.73966   0.00000  Uiso   1.00
C21    C     0.17952   0.35433   0.91554   0.00000  Uiso   1.00
C22    C     0.18530   0.45481   0.00987   0.00000  Uiso   1.00
C23    C     0.24229   0.56325   0.99614   0.00000  Uiso   1.00
H24    H     0.25076   0.24677   0.63818   0.00000  Uiso   1.00
H25    H     0.38283   0.11620   0.62824   0.00000  Uiso   1.00
H26    H     0.05910   0.15021   0.54055   0.00000  Uiso   1.00
H27    H     0.32410   0.47599   0.71652   0.00000  Uiso   1.00
H28    H     0.50744   0.96808   0.66324   0.00000  Uiso   1.00
H29    H     0.82484   0.03982   0.47834   0.00000  Uiso   1.00
H30    H     0.38363   0.72681   0.84940   0.00000  Uiso   1.00
H31    H     0.08294   0.22112   0.99282   0.00000  Uiso   1.00
H32    H     0.20580   0.08914   0.00235   0.00000  Uiso   1.00
H33    H     0.88208   0.12315   0.91465   0.00000  Uiso   1.00
H34    H     0.14707   0.44893   0.09062   0.00000  Uiso   1.00
H35    H     0.36376   0.94611   0.96687   0.00000  Uiso   1.00
H36    H     0.68116   0.01786   0.78197   0.00000  Uiso   1.00
H37    H     0.23995   0.70484   0.15304   0.00000  Uiso   1.00
O38    O     0.51942   0.87071   0.81490   0.00000  Uiso   1.00
O39    O     0.62388   0.96486   0.57233   0.00000  Uiso   1.00
O40    O     0.35701   0.86616   0.05916   0.00000  Uiso   1.00
N41    N     0.45678   0.98104   0.73340   0.00000  Uiso   1.00
N42    N     0.81859   0.04810   0.56053   0.00000  Uiso   1.00
N43    N     0.34099   0.69037   0.90743   0.00000  Uiso   1.00
N44    N     0.37947   0.96922   0.89678   0.00000  Uiso   1.00
N45    N     0.74128   0.03628   0.72391   0.00000  Uiso   1.00
N46    N     0.26368   0.67855   0.07082   0.00000  Uiso   1.00
C47    C     0.78768   0.75911   0.28057   0.00000  Uiso   1.00
C48    C     0.73919   0.83359   0.23679   0.00000  Uiso   1.00
C49    C     0.65536   0.88965   0.29099   0.00000  Uiso   1.00
C50    C     0.62263   0.95361   0.23707   0.00000  Uiso   1.00
C51    C     0.53986   0.06817   0.18499   0.00000  Uiso   1.00
C52    C     0.91508   0.81513   0.28444   0.00000  Uiso   1.00
C53    C     0.97914   0.85565   0.37870   0.00000  Uiso   1.00
C54    C     0.09447   0.90406   0.36489   0.00000  Uiso   1.00
C55    C     0.28479   0.98988   0.38676   0.00000  Uiso   1.00
C56    C     0.77109   0.63813   0.18883   0.00000  Uiso   1.00
C57    C     0.71411   0.52981   0.20271   0.00000  Uiso   1.00
C58    C     0.70823   0.42919   0.10840   0.00000  Uiso   1.00
C59    C     0.67499   0.24018   0.98183   0.00000  Uiso   1.00
C60    C     0.87861   0.77300   0.08843   0.00000  Uiso   1.00
C61    C     0.78858   0.84114   0.13243   0.00000  Uiso   1.00
C62    C     0.75596   0.90503   0.07841   0.00000  Uiso   1.00
C63    C     0.67210   0.96117   0.13252   0.00000  Uiso   1.00
C64    C     0.96447   0.82268   0.18008   0.00000  Uiso   1.00
C65    C     0.07973   0.87103   0.16613   0.00000  Uiso   1.00
C66    C     0.14395   0.91162   0.26034   0.00000  Uiso   1.00
C67    C     0.82048   0.64567   0.08446   0.00000  Uiso   1.00
C68    C     0.81470   0.54519   0.99013   0.00000  Uiso   1.00
C69    C     0.75771   0.43675   0.00386   0.00000  Uiso   1.00
H70    H     0.74924   0.75323   0.36182   0.00000  Uiso   1.00
H71    H     0.61717   0.88380   0.37176   0.00000  Uiso   1.00
H72    H     0.94090   0.84979   0.45945   0.00000  Uiso   1.00
H73    H     0.67590   0.52401   0.28348   0.00000  Uiso   1.00
H74    H     0.49256   0.03192   0.33676   0.00000  Uiso   1.00
H75    H     0.17516   0.96018   0.52166   0.00000  Uiso   1.00
H76    H     0.61637   0.27319   0.15060   0.00000  Uiso   1.00
H77    H     0.91706   0.77888   0.00718   0.00000  Uiso   1.00
H78    H     0.79420   0.91086   0.99765   0.00000  Uiso   1.00
H79    H     0.11792   0.87685   0.08535   0.00000  Uiso   1.00
H80    H     0.85293   0.55107   0.90938   0.00000  Uiso   1.00
H81    H     0.63624   0.05389   0.03313   0.00000  Uiso   1.00
H82    H     0.31884   0.98214   0.21803   0.00000  Uiso   1.00
H83    H     0.76005   0.29516   0.84696   0.00000  Uiso   1.00
O84    O     0.48058   0.12929   0.18510   0.00000  Uiso   1.00
O85    O     0.37612   0.03514   0.42767   0.00000  Uiso   1.00
O86    O     0.64299   0.13384   0.94084   0.00000  Uiso   1.00
N87    N     0.54322   0.01896   0.26660   0.00000  Uiso   1.00
N88    N     0.18141   0.95190   0.43947   0.00000  Uiso   1.00
N89    N     0.65901   0.30963   0.09257   0.00000  Uiso   1.00
N90    N     0.62053   0.03078   0.10322   0.00000  Uiso   1.00
N91    N     0.25872   0.96372   0.27609   0.00000  Uiso   1.00
N92    N     0.73632   0.32145   0.92918   0.00000  Uiso   1.00
