data_job_03895
_audit_creation_date              2018-12-19
_audit_creation_method            'Materials Studio'
_symmetry_space_group_name_H-M    'P1'
_symmetry_Int_Tables_number       1
_symmetry_cell_setting            triclinic
loop_
_symmetry_equiv_pos_as_xyz
  x,y,z
_cell_length_a                    8.7493
_cell_length_b                    39.9140
_cell_length_c                    19.4128
_cell_angle_alpha                 90.0000
_cell_angle_beta                  90.0000
_cell_angle_gamma                 90.0000
loop_
_atom_site_label
_atom_site_type_symbol
_atom_site_fract_x
_atom_site_fract_y
_atom_site_fract_z
_atom_site_U_iso_or_equiv
_atom_site_adp_type
_atom_site_occupancy
C1     C     0.65591   0.33244   0.19247   0.00000  Uiso   1.00
C2     C     0.73475   0.34224   0.25957   0.00000  Uiso   1.00
C3     C     0.68275   0.33489   0.32539   0.00000  Uiso   1.00
C4     C     0.77129   0.34606   0.38012   0.00000  Uiso   1.00
C5     C     0.87303   0.35857   0.48595   0.00000  Uiso   1.00
C6     C     0.63056   0.36501   0.15302   0.00000  Uiso   1.00
C7     C     0.49096   0.37680   0.12925   0.00000  Uiso   1.00
C8     C     0.49180   0.40715   0.09428   0.00000  Uiso   1.00
C9     C     0.43181   0.45499   0.03464   0.00000  Uiso   1.00
C10    C     0.77352   0.31264   0.15121   0.00000  Uiso   1.00
C11    C     0.75412   0.28040   0.12590   0.00000  Uiso   1.00
C12    C     0.87531   0.26666   0.08938   0.00000  Uiso   1.00
C13    C     0.03729   0.23319   0.02694   0.00000  Uiso   1.00
C14    C     0.90561   0.36536   0.17261   0.00000  Uiso   1.00
C15    C     0.87037   0.36012   0.24878   0.00000  Uiso   1.00
C16    C     0.95901   0.37131   0.30342   0.00000  Uiso   1.00
C17    C     0.90716   0.36397   0.36931   0.00000  Uiso   1.00
C18    C     0.76618   0.38289   0.14223   0.00000  Uiso   1.00
C19    C     0.76722   0.41322   0.10728   0.00000  Uiso   1.00
C20    C     0.62767   0.42506   0.08347   0.00000  Uiso   1.00
C21    C     0.90915   0.33052   0.14042   0.00000  Uiso   1.00
C22    C     0.03038   0.31682   0.10393   0.00000  Uiso   1.00
C23    C     0.01118   0.28457   0.07857   0.00000  Uiso   1.00
H24    H     0.55032   0.31853   0.20086   0.00000  Uiso   1.00
H25    H     0.57778   0.32105   0.33372   0.00000  Uiso   1.00
H26    H     0.38603   0.36296   0.13760   0.00000  Uiso   1.00
H27    H     0.64915   0.26657   0.13426   0.00000  Uiso   1.00
H28    H     0.66801   0.33175   0.47626   0.00000  Uiso   1.00
H29    H     0.26370   0.42011   0.06271   0.00000  Uiso   1.00
H30    H     0.81854   0.21686   0.05565   0.00000  Uiso   1.00
H31    H     0.01120   0.37928   0.16421   0.00000  Uiso   1.00
H32    H     0.06396   0.38514   0.29505   0.00000  Uiso   1.00
H33    H     0.87220   0.42705   0.09894   0.00000  Uiso   1.00
H34    H     0.13532   0.33066   0.09559   0.00000  Uiso   1.00
H35    H     0.06261   0.38377   0.44487   0.00000  Uiso   1.00
H36    H     0.65830   0.47213   0.03133   0.00000  Uiso   1.00
H37    H     0.21314   0.26888   0.02427   0.00000  Uiso   1.00
O38    O     0.89168   0.36053   0.54730   0.00000  Uiso   1.00
O39    O     0.36124   0.47644   0.00474   0.00000  Uiso   1.00
O40    O     0.08917   0.20979   0.99548   0.00000  Uiso   1.00
N41    N     0.75366   0.34318   0.45091   0.00000  Uiso   1.00
N42    N     0.37565   0.42579   0.06429   0.00000  Uiso   1.00
N43    N     0.89436   0.23578   0.05767   0.00000  Uiso   1.00
N44    N     0.96599   0.37117   0.43403   0.00000  Uiso   1.00
N45    N     0.58798   0.45378   0.04740   0.00000  Uiso   1.00
N46    N     0.10669   0.26377   0.04078   0.00000  Uiso   1.00
C47    C     0.84409   0.66756   0.19247   0.00000  Uiso   1.00
C48    C     0.76525   0.65776   0.25957   0.00000  Uiso   1.00
C49    C     0.81725   0.66511   0.32539   0.00000  Uiso   1.00
C50    C     0.72871   0.65394   0.38012   0.00000  Uiso   1.00
C51    C     0.62697   0.64143   0.48595   0.00000  Uiso   1.00
C52    C     0.86944   0.63499   0.15302   0.00000  Uiso   1.00
C53    C     0.00904   0.62320   0.12925   0.00000  Uiso   1.00
C54    C     0.00820   0.59285   0.09428   0.00000  Uiso   1.00
C55    C     0.06819   0.54501   0.03464   0.00000  Uiso   1.00
C56    C     0.72648   0.68736   0.15121   0.00000  Uiso   1.00
C57    C     0.74588   0.71960   0.12590   0.00000  Uiso   1.00
C58    C     0.62469   0.73334   0.08938   0.00000  Uiso   1.00
C59    C     0.46271   0.76681   0.02694   0.00000  Uiso   1.00
C60    C     0.59439   0.63464   0.17261   0.00000  Uiso   1.00
C61    C     0.62963   0.63988   0.24878   0.00000  Uiso   1.00
C62    C     0.54099   0.62869   0.30342   0.00000  Uiso   1.00
C63    C     0.59284   0.63603   0.36931   0.00000  Uiso   1.00
C64    C     0.73382   0.61711   0.14223   0.00000  Uiso   1.00
C65    C     0.73278   0.58678   0.10728   0.00000  Uiso   1.00
C66    C     0.87233   0.57494   0.08347   0.00000  Uiso   1.00
C67    C     0.59085   0.66948   0.14042   0.00000  Uiso   1.00
C68    C     0.46962   0.68318   0.10393   0.00000  Uiso   1.00
C69    C     0.48882   0.71543   0.07857   0.00000  Uiso   1.00
H70    H     0.94968   0.68147   0.20086   0.00000  Uiso   1.00
H71    H     0.92222   0.67895   0.33372   0.00000  Uiso   1.00
H72    H     0.11397   0.63704   0.13760   0.00000  Uiso   1.00
H73    H     0.85085   0.73343   0.13426   0.00000  Uiso   1.00
H74    H     0.83199   0.66825   0.47626   0.00000  Uiso   1.00
H75    H     0.23630   0.57989   0.06271   0.00000  Uiso   1.00
H76    H     0.68146   0.78314   0.05565   0.00000  Uiso   1.00
H77    H     0.48880   0.62072   0.16421   0.00000  Uiso   1.00
H78    H     0.43604   0.61486   0.29505   0.00000  Uiso   1.00
H79    H     0.62780   0.57295   0.09894   0.00000  Uiso   1.00
H80    H     0.36468   0.66934   0.09559   0.00000  Uiso   1.00
H81    H     0.43739   0.61623   0.44487   0.00000  Uiso   1.00
H82    H     0.84170   0.52787   0.03133   0.00000  Uiso   1.00
H83    H     0.28686   0.73112   0.02427   0.00000  Uiso   1.00
O84    O     0.60832   0.63947   0.54730   0.00000  Uiso   1.00
O85    O     0.13876   0.52356   0.00474   0.00000  Uiso   1.00
O86    O     0.41083   0.79021   0.99548   0.00000  Uiso   1.00
N87    N     0.74634   0.65682   0.45091   0.00000  Uiso   1.00
N88    N     0.12435   0.57421   0.06429   0.00000  Uiso   1.00
N89    N     0.60564   0.76422   0.05767   0.00000  Uiso   1.00
N90    N     0.53401   0.62883   0.43403   0.00000  Uiso   1.00
N91    N     0.91202   0.54622   0.04740   0.00000  Uiso   1.00
N92    N     0.39331   0.73623   0.04078   0.00000  Uiso   1.00
C93    C     0.84409   0.83244   0.30753   0.00000  Uiso   1.00
C94    C     0.76525   0.84224   0.24043   0.00000  Uiso   1.00
C95    C     0.81725   0.83489   0.17461   0.00000  Uiso   1.00
C96    C     0.72871   0.84606   0.11988   0.00000  Uiso   1.00
C97    C     0.62697   0.85857   0.01405   0.00000  Uiso   1.00
C98    C     0.86944   0.86501   0.34698   0.00000  Uiso   1.00
C99    C     0.00904   0.87680   0.37075   0.00000  Uiso   1.00
C100   C     0.00820   0.90715   0.40572   0.00000  Uiso   1.00
C101   C     0.06819   0.95499   0.46536   0.00000  Uiso   1.00
C102   C     0.72648   0.81264   0.34879   0.00000  Uiso   1.00
C103   C     0.74588   0.78040   0.37410   0.00000  Uiso   1.00
C104   C     0.62469   0.76666   0.41062   0.00000  Uiso   1.00
C105   C     0.46271   0.73319   0.47306   0.00000  Uiso   1.00
C106   C     0.59439   0.86536   0.32739   0.00000  Uiso   1.00
C107   C     0.62963   0.86012   0.25122   0.00000  Uiso   1.00
C108   C     0.54099   0.87131   0.19658   0.00000  Uiso   1.00
C109   C     0.59284   0.86397   0.13069   0.00000  Uiso   1.00
C110   C     0.73382   0.88289   0.35777   0.00000  Uiso   1.00
C111   C     0.73278   0.91322   0.39272   0.00000  Uiso   1.00
C112   C     0.87233   0.92506   0.41653   0.00000  Uiso   1.00
C113   C     0.59085   0.83052   0.35958   0.00000  Uiso   1.00
C114   C     0.46962   0.81682   0.39607   0.00000  Uiso   1.00
C115   C     0.48882   0.78457   0.42143   0.00000  Uiso   1.00
H116   H     0.94968   0.81853   0.29914   0.00000  Uiso   1.00
H117   H     0.92222   0.82105   0.16628   0.00000  Uiso   1.00
H118   H     0.11397   0.86296   0.36240   0.00000  Uiso   1.00
H119   H     0.85085   0.76657   0.36574   0.00000  Uiso   1.00
H120   H     0.83199   0.83175   0.02374   0.00000  Uiso   1.00
H121   H     0.23630   0.92011   0.43729   0.00000  Uiso   1.00
H122   H     0.68146   0.71686   0.44435   0.00000  Uiso   1.00
H123   H     0.48880   0.87928   0.33579   0.00000  Uiso   1.00
H124   H     0.43604   0.88514   0.20495   0.00000  Uiso   1.00
H125   H     0.62780   0.92705   0.40106   0.00000  Uiso   1.00
H126   H     0.36468   0.83066   0.40441   0.00000  Uiso   1.00
H127   H     0.43739   0.88377   0.05513   0.00000  Uiso   1.00
H128   H     0.84170   0.97213   0.46867   0.00000  Uiso   1.00
H129   H     0.28686   0.76888   0.47573   0.00000  Uiso   1.00
O130   O     0.60832   0.86053   0.95270   0.00000  Uiso   1.00
O131   O     0.13876   0.97644   0.49526   0.00000  Uiso   1.00
O132   O     0.41083   0.70979   0.50452   0.00000  Uiso   1.00
N133   N     0.74634   0.84318   0.04909   0.00000  Uiso   1.00
N134   N     0.12435   0.92579   0.43571   0.00000  Uiso   1.00
N135   N     0.60564   0.73578   0.44233   0.00000  Uiso   1.00
N136   N     0.53401   0.87117   0.06597   0.00000  Uiso   1.00
N137   N     0.91202   0.95378   0.45260   0.00000  Uiso   1.00
N138   N     0.39331   0.76377   0.45922   0.00000  Uiso   1.00
C139   C     0.65591   0.16756   0.30753   0.00000  Uiso   1.00
C140   C     0.73475   0.15776   0.24043   0.00000  Uiso   1.00
C141   C     0.68275   0.16511   0.17461   0.00000  Uiso   1.00
C142   C     0.77129   0.15394   0.11988   0.00000  Uiso   1.00
C143   C     0.87303   0.14143   0.01405   0.00000  Uiso   1.00
C144   C     0.63056   0.13499   0.34698   0.00000  Uiso   1.00
C145   C     0.49096   0.12320   0.37075   0.00000  Uiso   1.00
C146   C     0.49180   0.09285   0.40572   0.00000  Uiso   1.00
C147   C     0.43181   0.04501   0.46536   0.00000  Uiso   1.00
C148   C     0.77352   0.18736   0.34879   0.00000  Uiso   1.00
C149   C     0.75412   0.21960   0.37410   0.00000  Uiso   1.00
C150   C     0.87531   0.23334   0.41062   0.00000  Uiso   1.00
C151   C     0.03729   0.26681   0.47306   0.00000  Uiso   1.00
C152   C     0.90561   0.13464   0.32739   0.00000  Uiso   1.00
C153   C     0.87037   0.13988   0.25122   0.00000  Uiso   1.00
C154   C     0.95901   0.12869   0.19658   0.00000  Uiso   1.00
C155   C     0.90716   0.13603   0.13069   0.00000  Uiso   1.00
C156   C     0.76618   0.11711   0.35777   0.00000  Uiso   1.00
C157   C     0.76722   0.08678   0.39272   0.00000  Uiso   1.00
C158   C     0.62767   0.07494   0.41653   0.00000  Uiso   1.00
C159   C     0.90915   0.16948   0.35958   0.00000  Uiso   1.00
C160   C     0.03038   0.18318   0.39607   0.00000  Uiso   1.00
C161   C     0.01118   0.21543   0.42143   0.00000  Uiso   1.00
H162   H     0.55032   0.18147   0.29914   0.00000  Uiso   1.00
H163   H     0.57778   0.17895   0.16628   0.00000  Uiso   1.00
H164   H     0.38603   0.13704   0.36240   0.00000  Uiso   1.00
H165   H     0.64915   0.23343   0.36574   0.00000  Uiso   1.00
H166   H     0.66801   0.16825   0.02374   0.00000  Uiso   1.00
H167   H     0.26370   0.07989   0.43729   0.00000  Uiso   1.00
H168   H     0.81854   0.28314   0.44435   0.00000  Uiso   1.00
H169   H     0.01120   0.12072   0.33579   0.00000  Uiso   1.00
H170   H     0.06396   0.11486   0.20495   0.00000  Uiso   1.00
H171   H     0.87220   0.07295   0.40106   0.00000  Uiso   1.00
H172   H     0.13532   0.16934   0.40441   0.00000  Uiso   1.00
H173   H     0.06261   0.11623   0.05513   0.00000  Uiso   1.00
H174   H     0.65830   0.02787   0.46867   0.00000  Uiso   1.00
H175   H     0.21314   0.23112   0.47573   0.00000  Uiso   1.00
O176   O     0.89168   0.13947   0.95270   0.00000  Uiso   1.00
O177   O     0.36124   0.02356   0.49526   0.00000  Uiso   1.00
O178   O     0.08917   0.29021   0.50452   0.00000  Uiso   1.00
N179   N     0.75366   0.15682   0.04909   0.00000  Uiso   1.00
N180   N     0.37565   0.07421   0.43571   0.00000  Uiso   1.00
N181   N     0.89436   0.26422   0.44233   0.00000  Uiso   1.00
N182   N     0.96599   0.12883   0.06597   0.00000  Uiso   1.00
N183   N     0.58798   0.04622   0.45260   0.00000  Uiso   1.00
N184   N     0.10669   0.23623   0.45922   0.00000  Uiso   1.00
C185   C     0.34409   0.66756   0.80753   0.00000  Uiso   1.00
C186   C     0.26525   0.65776   0.74043   0.00000  Uiso   1.00
C187   C     0.31725   0.66511   0.67461   0.00000  Uiso   1.00
C188   C     0.22871   0.65394   0.61988   0.00000  Uiso   1.00
C189   C     0.12697   0.64143   0.51405   0.00000  Uiso   1.00
C190   C     0.36944   0.63499   0.84698   0.00000  Uiso   1.00
C191   C     0.50904   0.62320   0.87075   0.00000  Uiso   1.00
C192   C     0.50820   0.59285   0.90572   0.00000  Uiso   1.00
C193   C     0.56819   0.54501   0.96536   0.00000  Uiso   1.00
C194   C     0.22648   0.68736   0.84879   0.00000  Uiso   1.00
C195   C     0.24588   0.71960   0.87410   0.00000  Uiso   1.00
C196   C     0.12469   0.73334   0.91062   0.00000  Uiso   1.00
C197   C     0.96271   0.76681   0.97306   0.00000  Uiso   1.00
C198   C     0.09439   0.63464   0.82739   0.00000  Uiso   1.00
C199   C     0.12963   0.63988   0.75122   0.00000  Uiso   1.00
C200   C     0.04099   0.62869   0.69658   0.00000  Uiso   1.00
C201   C     0.09284   0.63603   0.63069   0.00000  Uiso   1.00
C202   C     0.23382   0.61711   0.85777   0.00000  Uiso   1.00
C203   C     0.23278   0.58678   0.89272   0.00000  Uiso   1.00
C204   C     0.37233   0.57494   0.91653   0.00000  Uiso   1.00
C205   C     0.09085   0.66948   0.85958   0.00000  Uiso   1.00
C206   C     0.96962   0.68318   0.89607   0.00000  Uiso   1.00
C207   C     0.98882   0.71543   0.92143   0.00000  Uiso   1.00
H208   H     0.44968   0.68147   0.79914   0.00000  Uiso   1.00
H209   H     0.42222   0.67895   0.66628   0.00000  Uiso   1.00
H210   H     0.61397   0.63704   0.86240   0.00000  Uiso   1.00
H211   H     0.35085   0.73343   0.86574   0.00000  Uiso   1.00
H212   H     0.33199   0.66825   0.52374   0.00000  Uiso   1.00
H213   H     0.73630   0.57989   0.93729   0.00000  Uiso   1.00
H214   H     0.18146   0.78314   0.94435   0.00000  Uiso   1.00
H215   H     0.98880   0.62072   0.83579   0.00000  Uiso   1.00
H216   H     0.93604   0.61486   0.70495   0.00000  Uiso   1.00
H217   H     0.12780   0.57295   0.90106   0.00000  Uiso   1.00
H218   H     0.86468   0.66934   0.90441   0.00000  Uiso   1.00
H219   H     0.93739   0.61623   0.55513   0.00000  Uiso   1.00
H220   H     0.34170   0.52787   0.96867   0.00000  Uiso   1.00
H221   H     0.78686   0.73112   0.97573   0.00000  Uiso   1.00
O222   O     0.10832   0.63947   0.45270   0.00000  Uiso   1.00
O223   O     0.63876   0.52356   0.99526   0.00000  Uiso   1.00
O224   O     0.91083   0.79021   0.00452   0.00000  Uiso   1.00
N225   N     0.24634   0.65682   0.54909   0.00000  Uiso   1.00
N226   N     0.62435   0.57421   0.93571   0.00000  Uiso   1.00
N227   N     0.10564   0.76422   0.94233   0.00000  Uiso   1.00
N228   N     0.03401   0.62883   0.56597   0.00000  Uiso   1.00
N229   N     0.41202   0.54622   0.95260   0.00000  Uiso   1.00
N230   N     0.89331   0.73623   0.95922   0.00000  Uiso   1.00
C231   C     0.15591   0.33244   0.80753   0.00000  Uiso   1.00
C232   C     0.23475   0.34224   0.74043   0.00000  Uiso   1.00
C233   C     0.18275   0.33489   0.67461   0.00000  Uiso   1.00
C234   C     0.27129   0.34606   0.61988   0.00000  Uiso   1.00
C235   C     0.37303   0.35857   0.51405   0.00000  Uiso   1.00
C236   C     0.13056   0.36501   0.84698   0.00000  Uiso   1.00
C237   C     0.99096   0.37680   0.87075   0.00000  Uiso   1.00
C238   C     0.99180   0.40715   0.90572   0.00000  Uiso   1.00
C239   C     0.93181   0.45499   0.96536   0.00000  Uiso   1.00
C240   C     0.27352   0.31264   0.84879   0.00000  Uiso   1.00
C241   C     0.25412   0.28040   0.87410   0.00000  Uiso   1.00
C242   C     0.37531   0.26666   0.91062   0.00000  Uiso   1.00
C243   C     0.53729   0.23319   0.97306   0.00000  Uiso   1.00
C244   C     0.40561   0.36536   0.82739   0.00000  Uiso   1.00
C245   C     0.37037   0.36012   0.75122   0.00000  Uiso   1.00
C246   C     0.45901   0.37131   0.69658   0.00000  Uiso   1.00
C247   C     0.40716   0.36397   0.63069   0.00000  Uiso   1.00
C248   C     0.26618   0.38289   0.85777   0.00000  Uiso   1.00
C249   C     0.26722   0.41322   0.89272   0.00000  Uiso   1.00
C250   C     0.12767   0.42506   0.91653   0.00000  Uiso   1.00
C251   C     0.40915   0.33052   0.85958   0.00000  Uiso   1.00
C252   C     0.53038   0.31682   0.89607   0.00000  Uiso   1.00
C253   C     0.51118   0.28457   0.92143   0.00000  Uiso   1.00
H254   H     0.05032   0.31853   0.79914   0.00000  Uiso   1.00
H255   H     0.07778   0.32105   0.66628   0.00000  Uiso   1.00
H256   H     0.88603   0.36296   0.86240   0.00000  Uiso   1.00
H257   H     0.14915   0.26657   0.86574   0.00000  Uiso   1.00
H258   H     0.16801   0.33175   0.52374   0.00000  Uiso   1.00
H259   H     0.76370   0.42011   0.93729   0.00000  Uiso   1.00
H260   H     0.31854   0.21686   0.94435   0.00000  Uiso   1.00
H261   H     0.51120   0.37928   0.83579   0.00000  Uiso   1.00
H262   H     0.56396   0.38514   0.70495   0.00000  Uiso   1.00
H263   H     0.37220   0.42705   0.90106   0.00000  Uiso   1.00
H264   H     0.63532   0.33066   0.90441   0.00000  Uiso   1.00
H265   H     0.56261   0.38377   0.55513   0.00000  Uiso   1.00
H266   H     0.15830   0.47213   0.96867   0.00000  Uiso   1.00
H267   H     0.71314   0.26888   0.97573   0.00000  Uiso   1.00
O268   O     0.39168   0.36053   0.45270   0.00000  Uiso   1.00
O269   O     0.86124   0.47644   0.99526   0.00000  Uiso   1.00
O270   O     0.58917   0.20979   0.00452   0.00000  Uiso   1.00
N271   N     0.25366   0.34318   0.54909   0.00000  Uiso   1.00
N272   N     0.87565   0.42579   0.93571   0.00000  Uiso   1.00
N273   N     0.39436   0.23578   0.94233   0.00000  Uiso   1.00
N274   N     0.46599   0.37117   0.56597   0.00000  Uiso   1.00
N275   N     0.08798   0.45378   0.95260   0.00000  Uiso   1.00
N276   N     0.60669   0.26377   0.95922   0.00000  Uiso   1.00
C277   C     0.15591   0.16756   0.69247   0.00000  Uiso   1.00
C278   C     0.23475   0.15776   0.75957   0.00000  Uiso   1.00
C279   C     0.18275   0.16511   0.82539   0.00000  Uiso   1.00
C280   C     0.27129   0.15394   0.88012   0.00000  Uiso   1.00
C281   C     0.37303   0.14143   0.98595   0.00000  Uiso   1.00
C282   C     0.13056   0.13499   0.65302   0.00000  Uiso   1.00
C283   C     0.99096   0.12320   0.62925   0.00000  Uiso   1.00
C284   C     0.99180   0.09285   0.59428   0.00000  Uiso   1.00
C285   C     0.93181   0.04501   0.53464   0.00000  Uiso   1.00
C286   C     0.27352   0.18736   0.65121   0.00000  Uiso   1.00
C287   C     0.25412   0.21960   0.62590   0.00000  Uiso   1.00
C288   C     0.37531   0.23334   0.58938   0.00000  Uiso   1.00
C289   C     0.53729   0.26681   0.52694   0.00000  Uiso   1.00
C290   C     0.40561   0.13464   0.67261   0.00000  Uiso   1.00
C291   C     0.37037   0.13988   0.74878   0.00000  Uiso   1.00
C292   C     0.45901   0.12869   0.80342   0.00000  Uiso   1.00
C293   C     0.40716   0.13603   0.86931   0.00000  Uiso   1.00
C294   C     0.26618   0.11711   0.64223   0.00000  Uiso   1.00
C295   C     0.26722   0.08678   0.60728   0.00000  Uiso   1.00
C296   C     0.12767   0.07494   0.58347   0.00000  Uiso   1.00
C297   C     0.40915   0.16948   0.64042   0.00000  Uiso   1.00
C298   C     0.53038   0.18318   0.60393   0.00000  Uiso   1.00
C299   C     0.51118   0.21543   0.57857   0.00000  Uiso   1.00
H300   H     0.05032   0.18147   0.70086   0.00000  Uiso   1.00
H301   H     0.07778   0.17895   0.83372   0.00000  Uiso   1.00
H302   H     0.88603   0.13704   0.63760   0.00000  Uiso   1.00
H303   H     0.14915   0.23343   0.63426   0.00000  Uiso   1.00
H304   H     0.16801   0.16825   0.97626   0.00000  Uiso   1.00
H305   H     0.76370   0.07989   0.56271   0.00000  Uiso   1.00
H306   H     0.31854   0.28314   0.55565   0.00000  Uiso   1.00
H307   H     0.51120   0.12072   0.66421   0.00000  Uiso   1.00
H308   H     0.56396   0.11486   0.79505   0.00000  Uiso   1.00
H309   H     0.37220   0.07295   0.59894   0.00000  Uiso   1.00
H310   H     0.63532   0.16934   0.59559   0.00000  Uiso   1.00
H311   H     0.56261   0.11623   0.94487   0.00000  Uiso   1.00
H312   H     0.15830   0.02787   0.53133   0.00000  Uiso   1.00
H313   H     0.71314   0.23112   0.52427   0.00000  Uiso   1.00
O314   O     0.39168   0.13947   0.04730   0.00000  Uiso   1.00
O315   O     0.86124   0.02356   0.50474   0.00000  Uiso   1.00
O316   O     0.58917   0.29021   0.49548   0.00000  Uiso   1.00
N317   N     0.25366   0.15682   0.95091   0.00000  Uiso   1.00
N318   N     0.87565   0.07421   0.56429   0.00000  Uiso   1.00
N319   N     0.39436   0.26422   0.55767   0.00000  Uiso   1.00
N320   N     0.46599   0.12883   0.93403   0.00000  Uiso   1.00
N321   N     0.08798   0.04622   0.54740   0.00000  Uiso   1.00
N322   N     0.60669   0.23623   0.54078   0.00000  Uiso   1.00
C323   C     0.34409   0.83244   0.69247   0.00000  Uiso   1.00
C324   C     0.26525   0.84224   0.75957   0.00000  Uiso   1.00
C325   C     0.31725   0.83489   0.82539   0.00000  Uiso   1.00
C326   C     0.22871   0.84606   0.88012   0.00000  Uiso   1.00
C327   C     0.12697   0.85857   0.98595   0.00000  Uiso   1.00
C328   C     0.36944   0.86501   0.65302   0.00000  Uiso   1.00
C329   C     0.50904   0.87680   0.62925   0.00000  Uiso   1.00
C330   C     0.50820   0.90715   0.59428   0.00000  Uiso   1.00
C331   C     0.56819   0.95499   0.53464   0.00000  Uiso   1.00
C332   C     0.22648   0.81264   0.65121   0.00000  Uiso   1.00
C333   C     0.24588   0.78040   0.62590   0.00000  Uiso   1.00
C334   C     0.12469   0.76666   0.58938   0.00000  Uiso   1.00
C335   C     0.96271   0.73319   0.52694   0.00000  Uiso   1.00
C336   C     0.09439   0.86536   0.67261   0.00000  Uiso   1.00
C337   C     0.12963   0.86012   0.74878   0.00000  Uiso   1.00
C338   C     0.04099   0.87131   0.80342   0.00000  Uiso   1.00
C339   C     0.09284   0.86397   0.86931   0.00000  Uiso   1.00
C340   C     0.23382   0.88289   0.64223   0.00000  Uiso   1.00
C341   C     0.23278   0.91322   0.60728   0.00000  Uiso   1.00
C342   C     0.37233   0.92506   0.58347   0.00000  Uiso   1.00
C343   C     0.09085   0.83052   0.64042   0.00000  Uiso   1.00
C344   C     0.96962   0.81682   0.60393   0.00000  Uiso   1.00
C345   C     0.98882   0.78457   0.57857   0.00000  Uiso   1.00
H346   H     0.44968   0.81853   0.70086   0.00000  Uiso   1.00
H347   H     0.42222   0.82105   0.83372   0.00000  Uiso   1.00
H348   H     0.61397   0.86296   0.63760   0.00000  Uiso   1.00
H349   H     0.35085   0.76657   0.63426   0.00000  Uiso   1.00
H350   H     0.33199   0.83175   0.97626   0.00000  Uiso   1.00
H351   H     0.73630   0.92011   0.56271   0.00000  Uiso   1.00
H352   H     0.18146   0.71686   0.55565   0.00000  Uiso   1.00
H353   H     0.98880   0.87928   0.66421   0.00000  Uiso   1.00
H354   H     0.93604   0.88514   0.79505   0.00000  Uiso   1.00
H355   H     0.12780   0.92705   0.59894   0.00000  Uiso   1.00
H356   H     0.86468   0.83066   0.59559   0.00000  Uiso   1.00
H357   H     0.93739   0.88377   0.94487   0.00000  Uiso   1.00
H358   H     0.34170   0.97213   0.53133   0.00000  Uiso   1.00
H359   H     0.78686   0.76888   0.52427   0.00000  Uiso   1.00
O360   O     0.10832   0.86053   0.04730   0.00000  Uiso   1.00
O361   O     0.63876   0.97644   0.50474   0.00000  Uiso   1.00
O362   O     0.91083   0.70979   0.49548   0.00000  Uiso   1.00
N363   N     0.24634   0.84318   0.95091   0.00000  Uiso   1.00
N364   N     0.62435   0.92579   0.56429   0.00000  Uiso   1.00
N365   N     0.10564   0.73578   0.55767   0.00000  Uiso   1.00
N366   N     0.03401   0.87117   0.93403   0.00000  Uiso   1.00
N367   N     0.41202   0.95378   0.54740   0.00000  Uiso   1.00
N368   N     0.89331   0.76377   0.54078   0.00000  Uiso   1.00
