data_job_05539
_audit_creation_date              2018-12-19
_audit_creation_method            'Materials Studio'
_symmetry_space_group_name_H-M    'P1'
_symmetry_Int_Tables_number       1
_symmetry_cell_setting            triclinic
loop_
_symmetry_equiv_pos_as_xyz
  x,y,z
_cell_length_a                    23.8916
_cell_length_b                    25.7182
_cell_length_c                    12.1267
_cell_angle_alpha                 90.0000
_cell_angle_beta                  90.0000
_cell_angle_gamma                 90.0000
loop_
_atom_site_label
_atom_site_type_symbol
_atom_site_fract_x
_atom_site_fract_y
_atom_site_fract_z
_atom_site_U_iso_or_equiv
_atom_site_adp_type
_atom_site_occupancy
C1     C     0.75000   0.50291   0.36596   0.00000  Uiso   1.00
C2     C     0.69901   0.50073   0.29047   0.00000  Uiso   1.00
C3     C     0.65614   0.46442   0.29626   0.00000  Uiso   1.00
C4     C     0.61322   0.46903   0.21971   0.00000  Uiso   1.00
C5     C     0.53405   0.45961   0.11453   0.00000  Uiso   1.00
C6     C     0.80098   0.50072   0.29044   0.00000  Uiso   1.00
C7     C     0.84385   0.46440   0.29622   0.00000  Uiso   1.00
C8     C     0.88677   0.46902   0.21965   0.00000  Uiso   1.00
C9     C     0.96594   0.45961   0.11449   0.00000  Uiso   1.00
C10    C     0.75001   0.55715   0.41674   0.00000  Uiso   1.00
C11    C     0.75005   0.56830   0.52871   0.00000  Uiso   1.00
C12    C     0.75007   0.62043   0.55848   0.00000  Uiso   1.00
C13    C     0.75011   0.69864   0.64941   0.00000  Uiso   1.00
C14    C     0.75000   0.57568   0.21971   0.00000  Uiso   1.00
C15    C     0.69901   0.54025   0.21103   0.00000  Uiso   1.00
C16    C     0.65614   0.54492   0.13445   0.00000  Uiso   1.00
C17    C     0.61321   0.50863   0.14013   0.00000  Uiso   1.00
C18    C     0.80098   0.54024   0.21100   0.00000  Uiso   1.00
C19    C     0.84385   0.54491   0.13441   0.00000  Uiso   1.00
C20    C     0.88677   0.50861   0.14007   0.00000  Uiso   1.00
C21    C     0.75001   0.59668   0.33730   0.00000  Uiso   1.00
C22    C     0.75004   0.64880   0.36690   0.00000  Uiso   1.00
C23    C     0.75007   0.66002   0.47890   0.00000  Uiso   1.00
H24    H     0.75000   0.47214   0.42780   0.00000  Uiso   1.00
H25    H     0.65616   0.43383   0.35774   0.00000  Uiso   1.00
H26    H     0.84384   0.43383   0.35771   0.00000  Uiso   1.00
H27    H     0.75005   0.53770   0.59016   0.00000  Uiso   1.00
H28    H     0.55212   0.40878   0.24501   0.00000  Uiso   1.00
H29    H     0.94787   0.40878   0.24497   0.00000  Uiso   1.00
H30    H     0.75009   0.62782   0.73514   0.00000  Uiso   1.00
H31    H     0.75000   0.60645   0.15786   0.00000  Uiso   1.00
H32    H     0.65615   0.57551   0.07298   0.00000  Uiso   1.00
H33    H     0.84384   0.57550   0.07295   0.00000  Uiso   1.00
H34    H     0.75004   0.67938   0.30540   0.00000  Uiso   1.00
H35    H     0.55212   0.52377   0.01388   0.00000  Uiso   1.00
H36    H     0.94787   0.52377   0.01385   0.00000  Uiso   1.00
H37    H     0.75009   0.74281   0.50402   0.00000  Uiso   1.00
O38    O     0.49039   0.44349   0.07846   0.00000  Uiso   1.00
O39    O     0.00961   0.44349   0.07843   0.00000  Uiso   1.00
O40    O     0.75012   0.73087   0.72152   0.00000  Uiso   1.00
N41    N     0.56500   0.44010   0.20227   0.00000  Uiso   1.00
N42    N     0.93500   0.44009   0.20223   0.00000  Uiso   1.00
N43    N     0.75010   0.64487   0.66050   0.00000  Uiso   1.00
N44    N     0.56499   0.50197   0.07791   0.00000  Uiso   1.00
N45    N     0.93499   0.50196   0.07786   0.00000  Uiso   1.00
N46    N     0.75010   0.70675   0.53613   0.00000  Uiso   1.00
C47    C     0.75000   0.99709   0.86596   0.00000  Uiso   1.00
C48    C     0.80099   0.99927   0.79047   0.00000  Uiso   1.00
C49    C     0.84386   0.03558   0.79626   0.00000  Uiso   1.00
C50    C     0.88678   0.03097   0.71971   0.00000  Uiso   1.00
C51    C     0.96595   0.04039   0.61453   0.00000  Uiso   1.00
C52    C     0.69902   0.99928   0.79044   0.00000  Uiso   1.00
C53    C     0.65615   0.03560   0.79622   0.00000  Uiso   1.00
C54    C     0.61323   0.03098   0.71965   0.00000  Uiso   1.00
C55    C     0.53406   0.04039   0.61449   0.00000  Uiso   1.00
C56    C     0.74999   0.94285   0.91674   0.00000  Uiso   1.00
C57    C     0.74995   0.93170   0.02871   0.00000  Uiso   1.00
C58    C     0.74993   0.87957   0.05848   0.00000  Uiso   1.00
C59    C     0.74989   0.80136   0.14941   0.00000  Uiso   1.00
C60    C     0.75000   0.92432   0.71971   0.00000  Uiso   1.00
C61    C     0.80099   0.95975   0.71103   0.00000  Uiso   1.00
C62    C     0.84386   0.95508   0.63445   0.00000  Uiso   1.00
C63    C     0.88679   0.99137   0.64013   0.00000  Uiso   1.00
C64    C     0.69902   0.95976   0.71100   0.00000  Uiso   1.00
C65    C     0.65615   0.95509   0.63441   0.00000  Uiso   1.00
C66    C     0.61323   0.99139   0.64007   0.00000  Uiso   1.00
C67    C     0.74999   0.90332   0.83730   0.00000  Uiso   1.00
C68    C     0.74996   0.85120   0.86690   0.00000  Uiso   1.00
C69    C     0.74993   0.83998   0.97890   0.00000  Uiso   1.00
H70    H     0.75000   0.02786   0.92780   0.00000  Uiso   1.00
H71    H     0.84384   0.06617   0.85774   0.00000  Uiso   1.00
H72    H     0.65616   0.06617   0.85771   0.00000  Uiso   1.00
H73    H     0.74995   0.96230   0.09016   0.00000  Uiso   1.00
H74    H     0.94788   0.09122   0.74501   0.00000  Uiso   1.00
H75    H     0.55213   0.09122   0.74497   0.00000  Uiso   1.00
H76    H     0.74991   0.87218   0.23514   0.00000  Uiso   1.00
H77    H     0.75000   0.89355   0.65786   0.00000  Uiso   1.00
H78    H     0.84385   0.92449   0.57298   0.00000  Uiso   1.00
H79    H     0.65616   0.92450   0.57295   0.00000  Uiso   1.00
H80    H     0.74996   0.82062   0.80540   0.00000  Uiso   1.00
H81    H     0.94788   0.97623   0.51388   0.00000  Uiso   1.00
H82    H     0.55213   0.97623   0.51385   0.00000  Uiso   1.00
H83    H     0.74991   0.75719   0.00402   0.00000  Uiso   1.00
O84    O     0.00961   0.05651   0.57846   0.00000  Uiso   1.00
O85    O     0.49039   0.05651   0.57843   0.00000  Uiso   1.00
O86    O     0.74988   0.76913   0.22152   0.00000  Uiso   1.00
N87    N     0.93500   0.05990   0.70227   0.00000  Uiso   1.00
N88    N     0.56500   0.05991   0.70223   0.00000  Uiso   1.00
N89    N     0.74990   0.85513   0.16050   0.00000  Uiso   1.00
N90    N     0.93501   0.99803   0.57791   0.00000  Uiso   1.00
N91    N     0.56501   0.99804   0.57786   0.00000  Uiso   1.00
N92    N     0.74990   0.79325   0.03613   0.00000  Uiso   1.00
C93    C     0.25000   0.50291   0.13404   0.00000  Uiso   1.00
C94    C     0.30099   0.50073   0.20953   0.00000  Uiso   1.00
C95    C     0.34386   0.46442   0.20374   0.00000  Uiso   1.00
C96    C     0.38678   0.46903   0.28029   0.00000  Uiso   1.00
C97    C     0.46595   0.45961   0.38547   0.00000  Uiso   1.00
C98    C     0.19902   0.50072   0.20956   0.00000  Uiso   1.00
C99    C     0.15615   0.46440   0.20378   0.00000  Uiso   1.00
C100   C     0.11323   0.46902   0.28035   0.00000  Uiso   1.00
C101   C     0.03406   0.45961   0.38551   0.00000  Uiso   1.00
C102   C     0.24999   0.55715   0.08326   0.00000  Uiso   1.00
C103   C     0.24995   0.56830   0.97129   0.00000  Uiso   1.00
C104   C     0.24993   0.62043   0.94152   0.00000  Uiso   1.00
C105   C     0.24989   0.69864   0.85059   0.00000  Uiso   1.00
C106   C     0.25000   0.57568   0.28029   0.00000  Uiso   1.00
C107   C     0.30099   0.54025   0.28897   0.00000  Uiso   1.00
C108   C     0.34386   0.54492   0.36555   0.00000  Uiso   1.00
C109   C     0.38679   0.50863   0.35987   0.00000  Uiso   1.00
C110   C     0.19902   0.54024   0.28900   0.00000  Uiso   1.00
C111   C     0.15615   0.54491   0.36559   0.00000  Uiso   1.00
C112   C     0.11323   0.50861   0.35993   0.00000  Uiso   1.00
C113   C     0.24999   0.59668   0.16270   0.00000  Uiso   1.00
C114   C     0.24996   0.64880   0.13310   0.00000  Uiso   1.00
C115   C     0.24993   0.66002   0.02110   0.00000  Uiso   1.00
H116   H     0.25000   0.47214   0.07220   0.00000  Uiso   1.00
H117   H     0.34384   0.43383   0.14226   0.00000  Uiso   1.00
H118   H     0.15616   0.43383   0.14229   0.00000  Uiso   1.00
H119   H     0.24995   0.53770   0.90984   0.00000  Uiso   1.00
H120   H     0.44788   0.40878   0.25499   0.00000  Uiso   1.00
H121   H     0.05213   0.40878   0.25503   0.00000  Uiso   1.00
H122   H     0.24991   0.62782   0.76486   0.00000  Uiso   1.00
H123   H     0.25000   0.60645   0.34214   0.00000  Uiso   1.00
H124   H     0.34385   0.57551   0.42702   0.00000  Uiso   1.00
H125   H     0.15616   0.57550   0.42705   0.00000  Uiso   1.00
H126   H     0.24996   0.67938   0.19460   0.00000  Uiso   1.00
H127   H     0.44788   0.52377   0.48612   0.00000  Uiso   1.00
H128   H     0.05213   0.52377   0.48615   0.00000  Uiso   1.00
H129   H     0.24991   0.74281   0.99598   0.00000  Uiso   1.00
O130   O     0.50961   0.44349   0.42154   0.00000  Uiso   1.00
O131   O     0.99039   0.44349   0.42157   0.00000  Uiso   1.00
O132   O     0.24988   0.73087   0.77848   0.00000  Uiso   1.00
N133   N     0.43500   0.44010   0.29773   0.00000  Uiso   1.00
N134   N     0.06500   0.44009   0.29777   0.00000  Uiso   1.00
N135   N     0.24990   0.64487   0.83950   0.00000  Uiso   1.00
N136   N     0.43501   0.50197   0.42209   0.00000  Uiso   1.00
N137   N     0.06501   0.50196   0.42214   0.00000  Uiso   1.00
N138   N     0.24990   0.70675   0.96387   0.00000  Uiso   1.00
C139   C     0.25000   0.99709   0.63404   0.00000  Uiso   1.00
C140   C     0.19901   0.99927   0.70953   0.00000  Uiso   1.00
C141   C     0.15614   0.03558   0.70374   0.00000  Uiso   1.00
C142   C     0.11322   0.03097   0.78029   0.00000  Uiso   1.00
C143   C     0.03405   0.04039   0.88547   0.00000  Uiso   1.00
C144   C     0.30098   0.99928   0.70956   0.00000  Uiso   1.00
C145   C     0.34385   0.03560   0.70378   0.00000  Uiso   1.00
C146   C     0.38677   0.03098   0.78035   0.00000  Uiso   1.00
C147   C     0.46594   0.04039   0.88551   0.00000  Uiso   1.00
C148   C     0.25001   0.94285   0.58326   0.00000  Uiso   1.00
C149   C     0.25005   0.93170   0.47129   0.00000  Uiso   1.00
C150   C     0.25007   0.87957   0.44152   0.00000  Uiso   1.00
C151   C     0.25011   0.80136   0.35059   0.00000  Uiso   1.00
C152   C     0.25000   0.92432   0.78029   0.00000  Uiso   1.00
C153   C     0.19901   0.95975   0.78897   0.00000  Uiso   1.00
C154   C     0.15614   0.95508   0.86555   0.00000  Uiso   1.00
C155   C     0.11321   0.99137   0.85987   0.00000  Uiso   1.00
C156   C     0.30098   0.95976   0.78900   0.00000  Uiso   1.00
C157   C     0.34385   0.95509   0.86559   0.00000  Uiso   1.00
C158   C     0.38677   0.99139   0.85993   0.00000  Uiso   1.00
C159   C     0.25001   0.90332   0.66270   0.00000  Uiso   1.00
C160   C     0.25004   0.85120   0.63310   0.00000  Uiso   1.00
C161   C     0.25007   0.83998   0.52110   0.00000  Uiso   1.00
H162   H     0.25000   0.02786   0.57220   0.00000  Uiso   1.00
H163   H     0.15616   0.06617   0.64226   0.00000  Uiso   1.00
H164   H     0.34384   0.06617   0.64229   0.00000  Uiso   1.00
H165   H     0.25005   0.96230   0.40984   0.00000  Uiso   1.00
H166   H     0.05212   0.09122   0.75499   0.00000  Uiso   1.00
H167   H     0.44787   0.09122   0.75503   0.00000  Uiso   1.00
H168   H     0.25009   0.87218   0.26486   0.00000  Uiso   1.00
H169   H     0.25000   0.89355   0.84214   0.00000  Uiso   1.00
H170   H     0.15615   0.92449   0.92702   0.00000  Uiso   1.00
H171   H     0.34384   0.92450   0.92705   0.00000  Uiso   1.00
H172   H     0.25004   0.82062   0.69460   0.00000  Uiso   1.00
H173   H     0.05212   0.97623   0.98612   0.00000  Uiso   1.00
H174   H     0.44787   0.97623   0.98615   0.00000  Uiso   1.00
H175   H     0.25009   0.75719   0.49598   0.00000  Uiso   1.00
O176   O     0.99039   0.05651   0.92154   0.00000  Uiso   1.00
O177   O     0.50961   0.05651   0.92157   0.00000  Uiso   1.00
O178   O     0.25012   0.76913   0.27848   0.00000  Uiso   1.00
N179   N     0.06500   0.05990   0.79773   0.00000  Uiso   1.00
N180   N     0.43500   0.05991   0.79777   0.00000  Uiso   1.00
N181   N     0.25010   0.85513   0.33950   0.00000  Uiso   1.00
N182   N     0.06499   0.99803   0.92209   0.00000  Uiso   1.00
N183   N     0.43499   0.99804   0.92214   0.00000  Uiso   1.00
N184   N     0.25010   0.79325   0.46387   0.00000  Uiso   1.00
C185   C     0.25000   0.49709   0.63404   0.00000  Uiso   1.00
C186   C     0.30099   0.49927   0.70953   0.00000  Uiso   1.00
C187   C     0.34386   0.53558   0.70374   0.00000  Uiso   1.00
C188   C     0.38678   0.53097   0.78029   0.00000  Uiso   1.00
C189   C     0.46595   0.54039   0.88547   0.00000  Uiso   1.00
C190   C     0.19902   0.49928   0.70956   0.00000  Uiso   1.00
C191   C     0.15615   0.53560   0.70378   0.00000  Uiso   1.00
C192   C     0.11323   0.53098   0.78035   0.00000  Uiso   1.00
C193   C     0.03406   0.54039   0.88551   0.00000  Uiso   1.00
C194   C     0.24999   0.44285   0.58326   0.00000  Uiso   1.00
C195   C     0.24995   0.43170   0.47129   0.00000  Uiso   1.00
C196   C     0.24993   0.37957   0.44152   0.00000  Uiso   1.00
C197   C     0.24989   0.30136   0.35059   0.00000  Uiso   1.00
C198   C     0.25000   0.42432   0.78029   0.00000  Uiso   1.00
C199   C     0.30099   0.45975   0.78897   0.00000  Uiso   1.00
C200   C     0.34386   0.45508   0.86555   0.00000  Uiso   1.00
C201   C     0.38679   0.49137   0.85987   0.00000  Uiso   1.00
C202   C     0.19902   0.45976   0.78900   0.00000  Uiso   1.00
C203   C     0.15615   0.45509   0.86559   0.00000  Uiso   1.00
C204   C     0.11323   0.49139   0.85993   0.00000  Uiso   1.00
C205   C     0.24999   0.40332   0.66270   0.00000  Uiso   1.00
C206   C     0.24996   0.35120   0.63310   0.00000  Uiso   1.00
C207   C     0.24993   0.33998   0.52110   0.00000  Uiso   1.00
H208   H     0.25000   0.52786   0.57220   0.00000  Uiso   1.00
H209   H     0.34384   0.56617   0.64226   0.00000  Uiso   1.00
H210   H     0.15616   0.56617   0.64229   0.00000  Uiso   1.00
H211   H     0.24995   0.46230   0.40984   0.00000  Uiso   1.00
H212   H     0.44788   0.59122   0.75499   0.00000  Uiso   1.00
H213   H     0.05213   0.59122   0.75503   0.00000  Uiso   1.00
H214   H     0.24991   0.37218   0.26486   0.00000  Uiso   1.00
H215   H     0.25000   0.39355   0.84214   0.00000  Uiso   1.00
H216   H     0.34385   0.42449   0.92702   0.00000  Uiso   1.00
H217   H     0.15616   0.42450   0.92705   0.00000  Uiso   1.00
H218   H     0.24996   0.32062   0.69460   0.00000  Uiso   1.00
H219   H     0.44788   0.47623   0.98612   0.00000  Uiso   1.00
H220   H     0.05213   0.47623   0.98615   0.00000  Uiso   1.00
H221   H     0.24991   0.25719   0.49598   0.00000  Uiso   1.00
O222   O     0.50961   0.55651   0.92154   0.00000  Uiso   1.00
O223   O     0.99039   0.55651   0.92157   0.00000  Uiso   1.00
O224   O     0.24988   0.26913   0.27848   0.00000  Uiso   1.00
N225   N     0.43500   0.55990   0.79773   0.00000  Uiso   1.00
N226   N     0.06500   0.55991   0.79777   0.00000  Uiso   1.00
N227   N     0.24990   0.35513   0.33950   0.00000  Uiso   1.00
N228   N     0.43501   0.49803   0.92209   0.00000  Uiso   1.00
N229   N     0.06501   0.49804   0.92214   0.00000  Uiso   1.00
N230   N     0.24990   0.29325   0.46387   0.00000  Uiso   1.00
C231   C     0.25000   0.00291   0.13404   0.00000  Uiso   1.00
C232   C     0.19901   0.00073   0.20953   0.00000  Uiso   1.00
C233   C     0.15614   0.96442   0.20374   0.00000  Uiso   1.00
C234   C     0.11322   0.96903   0.28029   0.00000  Uiso   1.00
C235   C     0.03405   0.95961   0.38547   0.00000  Uiso   1.00
C236   C     0.30098   0.00072   0.20956   0.00000  Uiso   1.00
C237   C     0.34385   0.96440   0.20378   0.00000  Uiso   1.00
C238   C     0.38677   0.96902   0.28035   0.00000  Uiso   1.00
C239   C     0.46594   0.95961   0.38551   0.00000  Uiso   1.00
C240   C     0.25001   0.05715   0.08326   0.00000  Uiso   1.00
C241   C     0.25005   0.06830   0.97129   0.00000  Uiso   1.00
C242   C     0.25007   0.12043   0.94152   0.00000  Uiso   1.00
C243   C     0.25011   0.19864   0.85059   0.00000  Uiso   1.00
C244   C     0.25000   0.07568   0.28029   0.00000  Uiso   1.00
C245   C     0.19901   0.04025   0.28897   0.00000  Uiso   1.00
C246   C     0.15614   0.04492   0.36555   0.00000  Uiso   1.00
C247   C     0.11321   0.00863   0.35987   0.00000  Uiso   1.00
C248   C     0.30098   0.04024   0.28900   0.00000  Uiso   1.00
C249   C     0.34385   0.04491   0.36559   0.00000  Uiso   1.00
C250   C     0.38677   0.00861   0.35993   0.00000  Uiso   1.00
C251   C     0.25001   0.09668   0.16270   0.00000  Uiso   1.00
C252   C     0.25004   0.14880   0.13310   0.00000  Uiso   1.00
C253   C     0.25007   0.16002   0.02110   0.00000  Uiso   1.00
H254   H     0.25000   0.97214   0.07220   0.00000  Uiso   1.00
H255   H     0.15616   0.93383   0.14226   0.00000  Uiso   1.00
H256   H     0.34384   0.93383   0.14229   0.00000  Uiso   1.00
H257   H     0.25005   0.03770   0.90984   0.00000  Uiso   1.00
H258   H     0.05212   0.90878   0.25499   0.00000  Uiso   1.00
H259   H     0.44787   0.90878   0.25503   0.00000  Uiso   1.00
H260   H     0.25009   0.12782   0.76486   0.00000  Uiso   1.00
H261   H     0.25000   0.10645   0.34214   0.00000  Uiso   1.00
H262   H     0.15615   0.07551   0.42702   0.00000  Uiso   1.00
H263   H     0.34384   0.07550   0.42705   0.00000  Uiso   1.00
H264   H     0.25004   0.17938   0.19460   0.00000  Uiso   1.00
H265   H     0.05212   0.02377   0.48612   0.00000  Uiso   1.00
H266   H     0.44787   0.02377   0.48615   0.00000  Uiso   1.00
H267   H     0.25009   0.24281   0.99598   0.00000  Uiso   1.00
O268   O     0.99039   0.94349   0.42154   0.00000  Uiso   1.00
O269   O     0.50961   0.94349   0.42157   0.00000  Uiso   1.00
O270   O     0.25012   0.23087   0.77848   0.00000  Uiso   1.00
N271   N     0.06500   0.94010   0.29773   0.00000  Uiso   1.00
N272   N     0.43500   0.94009   0.29777   0.00000  Uiso   1.00
N273   N     0.25010   0.14487   0.83950   0.00000  Uiso   1.00
N274   N     0.06499   0.00197   0.42209   0.00000  Uiso   1.00
N275   N     0.43499   0.00196   0.42214   0.00000  Uiso   1.00
N276   N     0.25010   0.20675   0.96387   0.00000  Uiso   1.00
C277   C     0.75000   0.49709   0.86596   0.00000  Uiso   1.00
C278   C     0.69901   0.49927   0.79047   0.00000  Uiso   1.00
C279   C     0.65614   0.53558   0.79626   0.00000  Uiso   1.00
C280   C     0.61322   0.53097   0.71971   0.00000  Uiso   1.00
C281   C     0.53405   0.54039   0.61453   0.00000  Uiso   1.00
C282   C     0.80098   0.49928   0.79044   0.00000  Uiso   1.00
C283   C     0.84385   0.53560   0.79622   0.00000  Uiso   1.00
C284   C     0.88677   0.53098   0.71965   0.00000  Uiso   1.00
C285   C     0.96594   0.54039   0.61449   0.00000  Uiso   1.00
C286   C     0.75001   0.44285   0.91674   0.00000  Uiso   1.00
C287   C     0.75005   0.43170   0.02871   0.00000  Uiso   1.00
C288   C     0.75007   0.37957   0.05848   0.00000  Uiso   1.00
C289   C     0.75011   0.30136   0.14941   0.00000  Uiso   1.00
C290   C     0.75000   0.42432   0.71971   0.00000  Uiso   1.00
C291   C     0.69901   0.45975   0.71103   0.00000  Uiso   1.00
C292   C     0.65614   0.45508   0.63445   0.00000  Uiso   1.00
C293   C     0.61321   0.49137   0.64013   0.00000  Uiso   1.00
C294   C     0.80098   0.45976   0.71100   0.00000  Uiso   1.00
C295   C     0.84385   0.45509   0.63441   0.00000  Uiso   1.00
C296   C     0.88677   0.49139   0.64007   0.00000  Uiso   1.00
C297   C     0.75001   0.40332   0.83730   0.00000  Uiso   1.00
C298   C     0.75004   0.35120   0.86690   0.00000  Uiso   1.00
C299   C     0.75007   0.33998   0.97890   0.00000  Uiso   1.00
H300   H     0.75000   0.52786   0.92780   0.00000  Uiso   1.00
H301   H     0.65616   0.56617   0.85774   0.00000  Uiso   1.00
H302   H     0.84384   0.56617   0.85771   0.00000  Uiso   1.00
H303   H     0.75005   0.46230   0.09016   0.00000  Uiso   1.00
H304   H     0.55212   0.59122   0.74501   0.00000  Uiso   1.00
H305   H     0.94787   0.59122   0.74497   0.00000  Uiso   1.00
H306   H     0.75009   0.37218   0.23514   0.00000  Uiso   1.00
H307   H     0.75000   0.39355   0.65786   0.00000  Uiso   1.00
H308   H     0.65615   0.42449   0.57298   0.00000  Uiso   1.00
H309   H     0.84384   0.42450   0.57295   0.00000  Uiso   1.00
H310   H     0.75004   0.32062   0.80540   0.00000  Uiso   1.00
H311   H     0.55212   0.47623   0.51388   0.00000  Uiso   1.00
H312   H     0.94787   0.47623   0.51385   0.00000  Uiso   1.00
H313   H     0.75009   0.25719   0.00402   0.00000  Uiso   1.00
O314   O     0.49039   0.55651   0.57846   0.00000  Uiso   1.00
O315   O     0.00961   0.55651   0.57843   0.00000  Uiso   1.00
O316   O     0.75012   0.26913   0.22152   0.00000  Uiso   1.00
N317   N     0.56500   0.55990   0.70227   0.00000  Uiso   1.00
N318   N     0.93500   0.55991   0.70223   0.00000  Uiso   1.00
N319   N     0.75010   0.35513   0.16050   0.00000  Uiso   1.00
N320   N     0.56499   0.49803   0.57791   0.00000  Uiso   1.00
N321   N     0.93499   0.49804   0.57786   0.00000  Uiso   1.00
N322   N     0.75010   0.29325   0.03613   0.00000  Uiso   1.00
C323   C     0.75000   0.00291   0.36596   0.00000  Uiso   1.00
C324   C     0.80099   0.00073   0.29047   0.00000  Uiso   1.00
C325   C     0.84386   0.96442   0.29626   0.00000  Uiso   1.00
C326   C     0.88678   0.96903   0.21971   0.00000  Uiso   1.00
C327   C     0.96595   0.95961   0.11453   0.00000  Uiso   1.00
C328   C     0.69902   0.00072   0.29044   0.00000  Uiso   1.00
C329   C     0.65615   0.96440   0.29622   0.00000  Uiso   1.00
C330   C     0.61323   0.96902   0.21965   0.00000  Uiso   1.00
C331   C     0.53406   0.95961   0.11449   0.00000  Uiso   1.00
C332   C     0.74999   0.05715   0.41674   0.00000  Uiso   1.00
C333   C     0.74995   0.06830   0.52871   0.00000  Uiso   1.00
C334   C     0.74993   0.12043   0.55848   0.00000  Uiso   1.00
C335   C     0.74989   0.19864   0.64941   0.00000  Uiso   1.00
C336   C     0.75000   0.07568   0.21971   0.00000  Uiso   1.00
C337   C     0.80099   0.04025   0.21103   0.00000  Uiso   1.00
C338   C     0.84386   0.04492   0.13445   0.00000  Uiso   1.00
C339   C     0.88679   0.00863   0.14013   0.00000  Uiso   1.00
C340   C     0.69902   0.04024   0.21100   0.00000  Uiso   1.00
C341   C     0.65615   0.04491   0.13441   0.00000  Uiso   1.00
C342   C     0.61323   0.00861   0.14007   0.00000  Uiso   1.00
C343   C     0.74999   0.09668   0.33730   0.00000  Uiso   1.00
C344   C     0.74996   0.14880   0.36690   0.00000  Uiso   1.00
C345   C     0.74993   0.16002   0.47890   0.00000  Uiso   1.00
H346   H     0.75000   0.97214   0.42780   0.00000  Uiso   1.00
H347   H     0.84384   0.93383   0.35774   0.00000  Uiso   1.00
H348   H     0.65616   0.93383   0.35771   0.00000  Uiso   1.00
H349   H     0.74995   0.03770   0.59016   0.00000  Uiso   1.00
H350   H     0.94788   0.90878   0.24501   0.00000  Uiso   1.00
H351   H     0.55213   0.90878   0.24497   0.00000  Uiso   1.00
H352   H     0.74991   0.12782   0.73514   0.00000  Uiso   1.00
H353   H     0.75000   0.10645   0.15786   0.00000  Uiso   1.00
H354   H     0.84385   0.07551   0.07298   0.00000  Uiso   1.00
H355   H     0.65616   0.07550   0.07295   0.00000  Uiso   1.00
H356   H     0.74996   0.17938   0.30540   0.00000  Uiso   1.00
H357   H     0.94788   0.02377   0.01388   0.00000  Uiso   1.00
H358   H     0.55213   0.02377   0.01385   0.00000  Uiso   1.00
H359   H     0.74991   0.24281   0.50402   0.00000  Uiso   1.00
O360   O     0.00961   0.94349   0.07846   0.00000  Uiso   1.00
O361   O     0.49039   0.94349   0.07843   0.00000  Uiso   1.00
O362   O     0.74988   0.23087   0.72152   0.00000  Uiso   1.00
N363   N     0.93500   0.94010   0.20227   0.00000  Uiso   1.00
N364   N     0.56500   0.94009   0.20223   0.00000  Uiso   1.00
N365   N     0.74990   0.14487   0.66050   0.00000  Uiso   1.00
N366   N     0.93501   0.00197   0.07791   0.00000  Uiso   1.00
N367   N     0.56501   0.00196   0.07786   0.00000  Uiso   1.00
N368   N     0.74990   0.20675   0.53613   0.00000  Uiso   1.00
