data_job_03402
_audit_creation_date              2018-12-19
_audit_creation_method            'Materials Studio'
_symmetry_space_group_name_H-M    'P1'
_symmetry_Int_Tables_number       1
_symmetry_cell_setting            triclinic
loop_
_symmetry_equiv_pos_as_xyz
  x,y,z
_cell_length_a                    15.6909
_cell_length_b                    7.1677
_cell_length_c                    11.4708
_cell_angle_alpha                 90.0000
_cell_angle_beta                  73.6257
_cell_angle_gamma                 90.0000
loop_
_atom_site_label
_atom_site_type_symbol
_atom_site_fract_x
_atom_site_fract_y
_atom_site_fract_z
_atom_site_U_iso_or_equiv
_atom_site_adp_type
_atom_site_occupancy
C1     C     0.74345   0.86098   0.88230   0.00000  Uiso   1.00
C2     C     0.83916   0.93024   0.85041   0.00000  Uiso   1.00
C3     C     0.91153   0.82900   0.86267   0.00000  Uiso   1.00
C4     C     0.99361   0.91721   0.82852   0.00000  Uiso   1.00
C5     C     0.14079   0.99696   0.78587   0.00000  Uiso   1.00
C6     C     0.68873   0.00118   0.97298   0.00000  Uiso   1.00
C7     C     0.63461   0.95956   0.08829   0.00000  Uiso   1.00
C8     C     0.59005   0.10749   0.15731   0.00000  Uiso   1.00
C9     C     0.50364   0.29735   0.30492   0.00000  Uiso   1.00
C10    C     0.71418   0.88228   0.76703   0.00000  Uiso   1.00
C11    C     0.68145   0.74071   0.70917   0.00000  Uiso   1.00
C12    C     0.65831   0.78855   0.60480   0.00000  Uiso   1.00
C13    C     0.61142   0.79381   0.43263   0.00000  Uiso   1.00
C14    C     0.76054   0.19768   0.79985   0.00000  Uiso   1.00
C15    C     0.84843   0.11313   0.80563   0.00000  Uiso   1.00
C16    C     0.93043   0.20151   0.77145   0.00000  Uiso   1.00
C17    C     0.00291   0.10042   0.78365   0.00000  Uiso   1.00
C18    C     0.69800   0.18405   0.92820   0.00000  Uiso   1.00
C19    C     0.65351   0.33208   0.99706   0.00000  Uiso   1.00
C20    C     0.59935   0.29071   0.11244   0.00000  Uiso   1.00
C21    C     0.72346   0.06516   0.72224   0.00000  Uiso   1.00
C22    C     0.70036   0.11323   0.61794   0.00000  Uiso   1.00
C23    C     0.66760   0.97177   0.55994   0.00000  Uiso   1.00
H24    H     0.73623   0.71861   0.91718   0.00000  Uiso   1.00
H25    H     0.90432   0.68747   0.89735   0.00000  Uiso   1.00
H26    H     0.62744   0.81802   0.12292   0.00000  Uiso   1.00
H27    H     0.67428   0.59921   0.74386   0.00000  Uiso   1.00
H28    H     0.09476   0.73363   0.85565   0.00000  Uiso   1.00
H29    H     0.51093   0.00889   0.33126   0.00000  Uiso   1.00
H30    H     0.60969   0.54747   0.53194   0.00000  Uiso   1.00
H31    H     0.76776   0.34007   0.76498   0.00000  Uiso   1.00
H32    H     0.93759   0.34304   0.73679   0.00000  Uiso   1.00
H33    H     0.66071   0.47358   0.96237   0.00000  Uiso   1.00
H34    H     0.70755   0.25477   0.58331   0.00000  Uiso   1.00
H35    H     0.12177   0.26571   0.72534   0.00000  Uiso   1.00
H36    H     0.53792   0.54097   0.20096   0.00000  Uiso   1.00
H37    H     0.63669   0.07955   0.40164   0.00000  Uiso   1.00
O38    O     0.21941   0.99043   0.77474   0.00000  Uiso   1.00
O39    O     0.45342   0.35155   0.39872   0.00000  Uiso   1.00
O40    O     0.58301   0.74618   0.35003   0.00000  Uiso   1.00
N41    N     0.07782   0.85844   0.82883   0.00000  Uiso   1.00
N42    N     0.53197   0.11579   0.27351   0.00000  Uiso   1.00
N43    N     0.62429   0.68441   0.52623   0.00000  Uiso   1.00
N44    N     0.09235   0.14475   0.75871   0.00000  Uiso   1.00
N45    N     0.54650   0.40210   0.20339   0.00000  Uiso   1.00
N46    N     0.63882   0.97072   0.45611   0.00000  Uiso   1.00
C47    C     0.25655   0.86098   0.11770   0.00000  Uiso   1.00
C48    C     0.16084   0.93024   0.14959   0.00000  Uiso   1.00
C49    C     0.08847   0.82900   0.13733   0.00000  Uiso   1.00
C50    C     0.00639   0.91721   0.17148   0.00000  Uiso   1.00
C51    C     0.85921   0.99696   0.21413   0.00000  Uiso   1.00
C52    C     0.31127   0.00118   0.02702   0.00000  Uiso   1.00
C53    C     0.36539   0.95956   0.91171   0.00000  Uiso   1.00
C54    C     0.40995   0.10749   0.84269   0.00000  Uiso   1.00
C55    C     0.49636   0.29735   0.69508   0.00000  Uiso   1.00
C56    C     0.28582   0.88228   0.23297   0.00000  Uiso   1.00
C57    C     0.31855   0.74071   0.29083   0.00000  Uiso   1.00
C58    C     0.34169   0.78855   0.39520   0.00000  Uiso   1.00
C59    C     0.38858   0.79381   0.56737   0.00000  Uiso   1.00
C60    C     0.23946   0.19768   0.20015   0.00000  Uiso   1.00
C61    C     0.15157   0.11313   0.19437   0.00000  Uiso   1.00
C62    C     0.06957   0.20151   0.22855   0.00000  Uiso   1.00
C63    C     0.99709   0.10042   0.21635   0.00000  Uiso   1.00
C64    C     0.30200   0.18405   0.07180   0.00000  Uiso   1.00
C65    C     0.34649   0.33208   0.00294   0.00000  Uiso   1.00
C66    C     0.40065   0.29071   0.88756   0.00000  Uiso   1.00
C67    C     0.27654   0.06516   0.27776   0.00000  Uiso   1.00
C68    C     0.29964   0.11323   0.38206   0.00000  Uiso   1.00
C69    C     0.33240   0.97177   0.44006   0.00000  Uiso   1.00
H70    H     0.26377   0.71861   0.08282   0.00000  Uiso   1.00
H71    H     0.09568   0.68747   0.10265   0.00000  Uiso   1.00
H72    H     0.37256   0.81802   0.87708   0.00000  Uiso   1.00
H73    H     0.32572   0.59921   0.25614   0.00000  Uiso   1.00
H74    H     0.90524   0.73363   0.14435   0.00000  Uiso   1.00
H75    H     0.48907   0.00889   0.66874   0.00000  Uiso   1.00
H76    H     0.39031   0.54747   0.46806   0.00000  Uiso   1.00
H77    H     0.23224   0.34007   0.23502   0.00000  Uiso   1.00
H78    H     0.06241   0.34304   0.26321   0.00000  Uiso   1.00
H79    H     0.33929   0.47358   0.03763   0.00000  Uiso   1.00
H80    H     0.29245   0.25477   0.41669   0.00000  Uiso   1.00
H81    H     0.87823   0.26571   0.27466   0.00000  Uiso   1.00
H82    H     0.46208   0.54097   0.79904   0.00000  Uiso   1.00
H83    H     0.36331   0.07955   0.59836   0.00000  Uiso   1.00
O84    O     0.78059   0.99043   0.22526   0.00000  Uiso   1.00
O85    O     0.54658   0.35155   0.60128   0.00000  Uiso   1.00
O86    O     0.41699   0.74618   0.64997   0.00000  Uiso   1.00
N87    N     0.92218   0.85844   0.17117   0.00000  Uiso   1.00
N88    N     0.46803   0.11579   0.72649   0.00000  Uiso   1.00
N89    N     0.37571   0.68441   0.47377   0.00000  Uiso   1.00
N90    N     0.90765   0.14475   0.24129   0.00000  Uiso   1.00
N91    N     0.45350   0.40210   0.79661   0.00000  Uiso   1.00
N92    N     0.36118   0.97072   0.54389   0.00000  Uiso   1.00
