data_job_00040
_audit_creation_date              2018-12-19
_audit_creation_method            'Materials Studio'
_symmetry_space_group_name_H-M    'P1'
_symmetry_Int_Tables_number       1
_symmetry_cell_setting            triclinic
loop_
_symmetry_equiv_pos_as_xyz
  x,y,z
_cell_length_a                    7.5862
_cell_length_b                    11.8749
_cell_length_c                    12.7849
_cell_angle_alpha                 106.4520
_cell_angle_beta                  89.9796
_cell_angle_gamma                 89.9872
loop_
_atom_site_label
_atom_site_type_symbol
_atom_site_fract_x
_atom_site_fract_y
_atom_site_fract_z
_atom_site_U_iso_or_equiv
_atom_site_adp_type
_atom_site_occupancy
C1     C     0.42000   0.15919   0.79197   0.00000  Uiso   1.00
C2     C     0.34244   0.24899   0.89119   0.00000  Uiso   1.00
C3     C     0.43821   0.32438   0.97456   0.00000  Uiso   1.00
C4     C     0.34274   0.39998   0.05811   0.00000  Uiso   1.00
C5     C     0.25038   0.53936   0.21220   0.00000  Uiso   1.00
C6     C     0.34228   0.04088   0.79232   0.00000  Uiso   1.00
C7     C     0.43792   0.94131   0.79255   0.00000  Uiso   1.00
C8     C     0.34230   0.84172   0.79286   0.00000  Uiso   1.00
C9     C     0.24970   0.65798   0.79336   0.00000  Uiso   1.00
C10    C     0.34238   0.18782   0.69249   0.00000  Uiso   1.00
C11    C     0.43810   0.21177   0.60876   0.00000  Uiso   1.00
C12    C     0.34256   0.23587   0.52501   0.00000  Uiso   1.00
C13    C     0.25011   0.28028   0.37051   0.00000  Uiso   1.00
C14    C     0.08013   0.15937   0.79210   0.00000  Uiso   1.00
C15    C     0.15784   0.24908   0.89126   0.00000  Uiso   1.00
C16    C     0.06219   0.32459   0.97471   0.00000  Uiso   1.00
C17    C     0.15780   0.40009   0.05818   0.00000  Uiso   1.00
C18    C     0.15768   0.04098   0.79239   0.00000  Uiso   1.00
C19    C     0.06190   0.94151   0.79269   0.00000  Uiso   1.00
C20    C     0.15737   0.84181   0.79293   0.00000  Uiso   1.00
C21    C     0.15777   0.18792   0.69256   0.00000  Uiso   1.00
C22    C     0.06207   0.21198   0.60891   0.00000  Uiso   1.00
C23    C     0.15762   0.23596   0.52508   0.00000  Uiso   1.00
H24    H     0.56372   0.15910   0.79191   0.00000  Uiso   1.00
H25    H     0.58107   0.32427   0.97448   0.00000  Uiso   1.00
H26    H     0.58078   0.94125   0.79248   0.00000  Uiso   1.00
H27    H     0.58095   0.21168   0.60873   0.00000  Uiso   1.00
H28    H     0.51890   0.50741   0.17694   0.00000  Uiso   1.00
H29    H     0.51828   0.69978   0.79315   0.00000  Uiso   1.00
H30    H     0.51864   0.27002   0.40568   0.00000  Uiso   1.00
H31    H     0.93641   0.15945   0.79216   0.00000  Uiso   1.00
H32    H     0.91933   0.32464   0.97474   0.00000  Uiso   1.00
H33    H     0.91904   0.94162   0.79274   0.00000  Uiso   1.00
H34    H     0.91922   0.21205   0.60900   0.00000  Uiso   1.00
H35    H     0.98181   0.50770   0.17716   0.00000  Uiso   1.00
H36    H     0.98119   0.70007   0.79336   0.00000  Uiso   1.00
H37    H     0.98155   0.27032   0.40589   0.00000  Uiso   1.00
O38    O     0.25044   0.61619   0.29717   0.00000  Uiso   1.00
O39    O     0.24963   0.55661   0.79363   0.00000  Uiso   1.00
O40    O     0.25011   0.30476   0.28528   0.00000  Uiso   1.00
N41    N     0.39484   0.48482   0.15192   0.00000  Uiso   1.00
N42    N     0.39426   0.72974   0.79312   0.00000  Uiso   1.00
N43    N     0.39460   0.26284   0.43085   0.00000  Uiso   1.00
N44    N     0.10583   0.48498   0.15204   0.00000  Uiso   1.00
N45    N     0.10526   0.72990   0.79323   0.00000  Uiso   1.00
N46    N     0.10560   0.26300   0.43097   0.00000  Uiso   1.00
C47    C     0.58000   0.84081   0.20803   0.00000  Uiso   1.00
C48    C     0.65756   0.75101   0.10881   0.00000  Uiso   1.00
C49    C     0.56179   0.67562   0.02544   0.00000  Uiso   1.00
C50    C     0.65726   0.60002   0.94189   0.00000  Uiso   1.00
C51    C     0.74962   0.46064   0.78780   0.00000  Uiso   1.00
C52    C     0.65772   0.95912   0.20768   0.00000  Uiso   1.00
C53    C     0.56208   0.05869   0.20745   0.00000  Uiso   1.00
C54    C     0.65770   0.15828   0.20714   0.00000  Uiso   1.00
C55    C     0.75030   0.34202   0.20664   0.00000  Uiso   1.00
C56    C     0.65762   0.81218   0.30751   0.00000  Uiso   1.00
C57    C     0.56190   0.78823   0.39124   0.00000  Uiso   1.00
C58    C     0.65744   0.76413   0.47499   0.00000  Uiso   1.00
C59    C     0.74989   0.71972   0.62949   0.00000  Uiso   1.00
C60    C     0.91987   0.84063   0.20790   0.00000  Uiso   1.00
C61    C     0.84216   0.75092   0.10874   0.00000  Uiso   1.00
C62    C     0.93781   0.67541   0.02529   0.00000  Uiso   1.00
C63    C     0.84220   0.59991   0.94182   0.00000  Uiso   1.00
C64    C     0.84232   0.95902   0.20761   0.00000  Uiso   1.00
C65    C     0.93810   0.05849   0.20731   0.00000  Uiso   1.00
C66    C     0.84263   0.15819   0.20707   0.00000  Uiso   1.00
C67    C     0.84223   0.81208   0.30744   0.00000  Uiso   1.00
C68    C     0.93793   0.78802   0.39109   0.00000  Uiso   1.00
C69    C     0.84238   0.76404   0.47492   0.00000  Uiso   1.00
H70    H     0.43628   0.84090   0.20809   0.00000  Uiso   1.00
H71    H     0.41893   0.67573   0.02552   0.00000  Uiso   1.00
H72    H     0.41922   0.05875   0.20752   0.00000  Uiso   1.00
H73    H     0.41905   0.78832   0.39127   0.00000  Uiso   1.00
H74    H     0.48110   0.49259   0.82306   0.00000  Uiso   1.00
H75    H     0.48172   0.30022   0.20685   0.00000  Uiso   1.00
H76    H     0.48136   0.72998   0.59432   0.00000  Uiso   1.00
H77    H     0.06359   0.84055   0.20784   0.00000  Uiso   1.00
H78    H     0.08067   0.67536   0.02526   0.00000  Uiso   1.00
H79    H     0.08096   0.05838   0.20726   0.00000  Uiso   1.00
H80    H     0.08078   0.78795   0.39100   0.00000  Uiso   1.00
H81    H     0.01819   0.49230   0.82284   0.00000  Uiso   1.00
H82    H     0.01881   0.29993   0.20664   0.00000  Uiso   1.00
H83    H     0.01845   0.72968   0.59411   0.00000  Uiso   1.00
O84    O     0.74956   0.38381   0.70283   0.00000  Uiso   1.00
O85    O     0.75037   0.44339   0.20637   0.00000  Uiso   1.00
O86    O     0.74989   0.69524   0.71472   0.00000  Uiso   1.00
N87    N     0.60516   0.51518   0.84808   0.00000  Uiso   1.00
N88    N     0.60574   0.27026   0.20688   0.00000  Uiso   1.00
N89    N     0.60540   0.73716   0.56915   0.00000  Uiso   1.00
N90    N     0.89417   0.51502   0.84796   0.00000  Uiso   1.00
N91    N     0.89474   0.27010   0.20677   0.00000  Uiso   1.00
N92    N     0.89440   0.73700   0.56903   0.00000  Uiso   1.00
