data_job_01470
_audit_creation_date              2018-12-19
_audit_creation_method            'Materials Studio'
_symmetry_space_group_name_H-M    'P1'
_symmetry_Int_Tables_number       1
_symmetry_cell_setting            triclinic
loop_
_symmetry_equiv_pos_as_xyz
  x,y,z
_cell_length_a                    12.6711
_cell_length_b                    12.6711
_cell_length_c                    31.1592
_cell_angle_alpha                 90.0000
_cell_angle_beta                  90.0000
_cell_angle_gamma                 90.0000
loop_
_atom_site_label
_atom_site_type_symbol
_atom_site_fract_x
_atom_site_fract_y
_atom_site_fract_z
_atom_site_U_iso_or_equiv
_atom_site_adp_type
_atom_site_occupancy
C1     C     0.62019   0.62821   0.10601   0.00000  Uiso   1.00
C2     C     0.53717   0.54776   0.09241   0.00000  Uiso   1.00
C3     C     0.44117   0.57085   0.07314   0.00000  Uiso   1.00
C4     C     0.37618   0.48611   0.06316   0.00000  Uiso   1.00
C5     C     0.24269   0.37702   0.04068   0.00000  Uiso   1.00
C6     C     0.63944   0.60929   0.15371   0.00000  Uiso   1.00
C7     C     0.62943   0.68412   0.18598   0.00000  Uiso   1.00
C8     C     0.65055   0.65117   0.22760   0.00000  Uiso   1.00
C9     C     0.67591   0.63762   0.30029   0.00000  Uiso   1.00
C10    C     0.72185   0.59632   0.08326   0.00000  Uiso   1.00
C11    C     0.78116   0.66025   0.05632   0.00000  Uiso   1.00
C12    C     0.87168   0.61640   0.03864   0.00000  Uiso   1.00
C13    C     0.02499   0.58272   0.00195   0.00000  Uiso   1.00
C14    C     0.67551   0.43666   0.12255   0.00000  Uiso   1.00
C15    C     0.56722   0.44372   0.10139   0.00000  Uiso   1.00
C16    C     0.50237   0.35892   0.09143   0.00000  Uiso   1.00
C17    C     0.40628   0.38188   0.07215   0.00000  Uiso   1.00
C18    C     0.66949   0.50525   0.16269   0.00000  Uiso   1.00
C19    C     0.69064   0.47219   0.20427   0.00000  Uiso   1.00
C20    C     0.68066   0.54694   0.23660   0.00000  Uiso   1.00
C21    C     0.75190   0.49228   0.09224   0.00000  Uiso   1.00
C22    C     0.84235   0.44832   0.07461   0.00000  Uiso   1.00
C23    C     0.90178   0.51217   0.04763   0.00000  Uiso   1.00
H24    H     0.59680   0.70921   0.09902   0.00000  Uiso   1.00
H25    H     0.41794   0.65138   0.06620   0.00000  Uiso   1.00
H26    H     0.60619   0.76462   0.17902   0.00000  Uiso   1.00
H27    H     0.75788   0.74076   0.04937   0.00000  Uiso   1.00
H28    H     0.23287   0.54137   0.03378   0.00000  Uiso   1.00
H29    H     0.62985   0.78017   0.27166   0.00000  Uiso   1.00
H30    H     0.94973   0.72986   0.99828   0.00000  Uiso   1.00
H31    H     0.69890   0.35566   0.12954   0.00000  Uiso   1.00
H32    H     0.52564   0.27842   0.09839   0.00000  Uiso   1.00
H33    H     0.71389   0.39167   0.21121   0.00000  Uiso   1.00
H34    H     0.86558   0.36781   0.08156   0.00000  Uiso   1.00
H35    H     0.32029   0.23867   0.05991   0.00000  Uiso   1.00
H36    H     0.71727   0.47747   0.29779   0.00000  Uiso   1.00
H37    H     0.03714   0.42715   0.02441   0.00000  Uiso   1.00
O38    O     0.16075   0.34559   0.02581   0.00000  Uiso   1.00
O39    O     0.68158   0.65890   0.33790   0.00000  Uiso   1.00
O40    O     0.10125   0.59288   0.97924   0.00000  Uiso   1.00
N41    N     0.27723   0.48073   0.04419   0.00000  Uiso   1.00
N42    N     0.64836   0.70399   0.26660   0.00000  Uiso   1.00
N43    N     0.94744   0.65696   0.01103   0.00000  Uiso   1.00
N44    N     0.32427   0.31785   0.05825   0.00000  Uiso   1.00
N45    N     0.69540   0.54111   0.28066   0.00000  Uiso   1.00
N46    N     0.99447   0.49408   0.02508   0.00000  Uiso   1.00
C47    C     0.37981   0.37179   0.60601   0.00000  Uiso   1.00
C48    C     0.46283   0.45224   0.59241   0.00000  Uiso   1.00
C49    C     0.55883   0.42915   0.57314   0.00000  Uiso   1.00
C50    C     0.62382   0.51389   0.56316   0.00000  Uiso   1.00
C51    C     0.75731   0.62298   0.54068   0.00000  Uiso   1.00
C52    C     0.36056   0.39071   0.65371   0.00000  Uiso   1.00
C53    C     0.37057   0.31588   0.68598   0.00000  Uiso   1.00
C54    C     0.34945   0.34883   0.72760   0.00000  Uiso   1.00
C55    C     0.32409   0.36238   0.80029   0.00000  Uiso   1.00
C56    C     0.27815   0.40368   0.58326   0.00000  Uiso   1.00
C57    C     0.21884   0.33975   0.55632   0.00000  Uiso   1.00
C58    C     0.12832   0.38360   0.53864   0.00000  Uiso   1.00
C59    C     0.97501   0.41728   0.50195   0.00000  Uiso   1.00
C60    C     0.32449   0.56334   0.62255   0.00000  Uiso   1.00
C61    C     0.43278   0.55628   0.60139   0.00000  Uiso   1.00
C62    C     0.49763   0.64108   0.59143   0.00000  Uiso   1.00
C63    C     0.59372   0.61812   0.57215   0.00000  Uiso   1.00
C64    C     0.33051   0.49475   0.66269   0.00000  Uiso   1.00
C65    C     0.30936   0.52781   0.70427   0.00000  Uiso   1.00
C66    C     0.31934   0.45306   0.73660   0.00000  Uiso   1.00
C67    C     0.24810   0.50772   0.59224   0.00000  Uiso   1.00
C68    C     0.15765   0.55168   0.57461   0.00000  Uiso   1.00
C69    C     0.09822   0.48783   0.54763   0.00000  Uiso   1.00
H70    H     0.40320   0.29079   0.59902   0.00000  Uiso   1.00
H71    H     0.58206   0.34862   0.56620   0.00000  Uiso   1.00
H72    H     0.39381   0.23538   0.67902   0.00000  Uiso   1.00
H73    H     0.24212   0.25924   0.54937   0.00000  Uiso   1.00
H74    H     0.76713   0.45863   0.53378   0.00000  Uiso   1.00
H75    H     0.37015   0.21983   0.77166   0.00000  Uiso   1.00
H76    H     0.05027   0.27014   0.49828   0.00000  Uiso   1.00
H77    H     0.30110   0.64434   0.62954   0.00000  Uiso   1.00
H78    H     0.47436   0.72158   0.59839   0.00000  Uiso   1.00
H79    H     0.28611   0.60833   0.71121   0.00000  Uiso   1.00
H80    H     0.13442   0.63219   0.58156   0.00000  Uiso   1.00
H81    H     0.67971   0.76133   0.55991   0.00000  Uiso   1.00
H82    H     0.28273   0.52253   0.79779   0.00000  Uiso   1.00
H83    H     0.96286   0.57285   0.52441   0.00000  Uiso   1.00
O84    O     0.83925   0.65441   0.52581   0.00000  Uiso   1.00
O85    O     0.31842   0.34110   0.83790   0.00000  Uiso   1.00
O86    O     0.89875   0.40712   0.47924   0.00000  Uiso   1.00
N87    N     0.72277   0.51927   0.54419   0.00000  Uiso   1.00
N88    N     0.35164   0.29601   0.76660   0.00000  Uiso   1.00
N89    N     0.05256   0.34304   0.51103   0.00000  Uiso   1.00
N90    N     0.67573   0.68215   0.55825   0.00000  Uiso   1.00
N91    N     0.30460   0.45889   0.78066   0.00000  Uiso   1.00
N92    N     0.00553   0.50592   0.52508   0.00000  Uiso   1.00
C93    C     0.87179   0.12019   0.85601   0.00000  Uiso   1.00
C94    C     0.95224   0.03717   0.84241   0.00000  Uiso   1.00
C95    C     0.92915   0.94117   0.82314   0.00000  Uiso   1.00
C96    C     0.01389   0.87618   0.81316   0.00000  Uiso   1.00
C97    C     0.12298   0.74269   0.79068   0.00000  Uiso   1.00
C98    C     0.89071   0.13944   0.90371   0.00000  Uiso   1.00
C99    C     0.81588   0.12943   0.93598   0.00000  Uiso   1.00
C100   C     0.84883   0.15055   0.97760   0.00000  Uiso   1.00
C101   C     0.86238   0.17591   0.05029   0.00000  Uiso   1.00
C102   C     0.90368   0.22185   0.83326   0.00000  Uiso   1.00
C103   C     0.83975   0.28116   0.80632   0.00000  Uiso   1.00
C104   C     0.88360   0.37168   0.78864   0.00000  Uiso   1.00
C105   C     0.91728   0.52499   0.75195   0.00000  Uiso   1.00
C106   C     0.06334   0.17551   0.87255   0.00000  Uiso   1.00
C107   C     0.05628   0.06722   0.85139   0.00000  Uiso   1.00
C108   C     0.14108   0.00237   0.84143   0.00000  Uiso   1.00
C109   C     0.11812   0.90628   0.82215   0.00000  Uiso   1.00
C110   C     0.99475   0.16949   0.91269   0.00000  Uiso   1.00
C111   C     0.02781   0.19064   0.95427   0.00000  Uiso   1.00
C112   C     0.95306   0.18066   0.98660   0.00000  Uiso   1.00
C113   C     0.00772   0.25190   0.84224   0.00000  Uiso   1.00
C114   C     0.05168   0.34235   0.82461   0.00000  Uiso   1.00
C115   C     0.98783   0.40178   0.79763   0.00000  Uiso   1.00
H116   H     0.79079   0.09680   0.84902   0.00000  Uiso   1.00
H117   H     0.84862   0.91794   0.81620   0.00000  Uiso   1.00
H118   H     0.73538   0.10619   0.92902   0.00000  Uiso   1.00
H119   H     0.75924   0.25788   0.79937   0.00000  Uiso   1.00
H120   H     0.95863   0.73287   0.78378   0.00000  Uiso   1.00
H121   H     0.71983   0.12985   0.02166   0.00000  Uiso   1.00
H122   H     0.77014   0.44973   0.74828   0.00000  Uiso   1.00
H123   H     0.14434   0.19890   0.87954   0.00000  Uiso   1.00
H124   H     0.22158   0.02564   0.84839   0.00000  Uiso   1.00
H125   H     0.10833   0.21389   0.96121   0.00000  Uiso   1.00
H126   H     0.13219   0.36558   0.83156   0.00000  Uiso   1.00
H127   H     0.26133   0.82029   0.80991   0.00000  Uiso   1.00
H128   H     0.02253   0.21727   0.04779   0.00000  Uiso   1.00
H129   H     0.07285   0.53714   0.77441   0.00000  Uiso   1.00
O130   O     0.15441   0.66075   0.77581   0.00000  Uiso   1.00
O131   O     0.84110   0.18158   0.08790   0.00000  Uiso   1.00
O132   O     0.90712   0.60125   0.72924   0.00000  Uiso   1.00
N133   N     0.01927   0.77723   0.79419   0.00000  Uiso   1.00
N134   N     0.79601   0.14836   0.01660   0.00000  Uiso   1.00
N135   N     0.84304   0.44744   0.76103   0.00000  Uiso   1.00
N136   N     0.18215   0.82427   0.80825   0.00000  Uiso   1.00
N137   N     0.95889   0.19540   0.03066   0.00000  Uiso   1.00
N138   N     0.00592   0.49447   0.77508   0.00000  Uiso   1.00
C139   C     0.12821   0.87981   0.35601   0.00000  Uiso   1.00
C140   C     0.04776   0.96283   0.34241   0.00000  Uiso   1.00
C141   C     0.07085   0.05883   0.32314   0.00000  Uiso   1.00
C142   C     0.98611   0.12382   0.31316   0.00000  Uiso   1.00
C143   C     0.87702   0.25731   0.29068   0.00000  Uiso   1.00
C144   C     0.10929   0.86056   0.40371   0.00000  Uiso   1.00
C145   C     0.18412   0.87057   0.43598   0.00000  Uiso   1.00
C146   C     0.15117   0.84945   0.47760   0.00000  Uiso   1.00
C147   C     0.13762   0.82409   0.55029   0.00000  Uiso   1.00
C148   C     0.09632   0.77815   0.33326   0.00000  Uiso   1.00
C149   C     0.16025   0.71884   0.30632   0.00000  Uiso   1.00
C150   C     0.11640   0.62832   0.28864   0.00000  Uiso   1.00
C151   C     0.08272   0.47501   0.25195   0.00000  Uiso   1.00
C152   C     0.93666   0.82449   0.37255   0.00000  Uiso   1.00
C153   C     0.94372   0.93278   0.35139   0.00000  Uiso   1.00
C154   C     0.85892   0.99763   0.34143   0.00000  Uiso   1.00
C155   C     0.88188   0.09372   0.32215   0.00000  Uiso   1.00
C156   C     0.00525   0.83051   0.41269   0.00000  Uiso   1.00
C157   C     0.97219   0.80936   0.45427   0.00000  Uiso   1.00
C158   C     0.04694   0.81934   0.48660   0.00000  Uiso   1.00
C159   C     0.99228   0.74810   0.34224   0.00000  Uiso   1.00
C160   C     0.94832   0.65765   0.32461   0.00000  Uiso   1.00
C161   C     0.01217   0.59822   0.29763   0.00000  Uiso   1.00
H162   H     0.20921   0.90320   0.34902   0.00000  Uiso   1.00
H163   H     0.15138   0.08206   0.31620   0.00000  Uiso   1.00
H164   H     0.26462   0.89381   0.42902   0.00000  Uiso   1.00
H165   H     0.24076   0.74212   0.29937   0.00000  Uiso   1.00
H166   H     0.04137   0.26713   0.28378   0.00000  Uiso   1.00
H167   H     0.28017   0.87015   0.52166   0.00000  Uiso   1.00
H168   H     0.22986   0.55027   0.24828   0.00000  Uiso   1.00
H169   H     0.85566   0.80110   0.37954   0.00000  Uiso   1.00
H170   H     0.77842   0.97436   0.34839   0.00000  Uiso   1.00
H171   H     0.89167   0.78611   0.46121   0.00000  Uiso   1.00
H172   H     0.86781   0.63442   0.33156   0.00000  Uiso   1.00
H173   H     0.73867   0.17971   0.30991   0.00000  Uiso   1.00
H174   H     0.97747   0.78273   0.54779   0.00000  Uiso   1.00
H175   H     0.92715   0.46286   0.27441   0.00000  Uiso   1.00
O176   O     0.84559   0.33925   0.27581   0.00000  Uiso   1.00
O177   O     0.15890   0.81842   0.58790   0.00000  Uiso   1.00
O178   O     0.09288   0.39875   0.22924   0.00000  Uiso   1.00
N179   N     0.98073   0.22277   0.29419   0.00000  Uiso   1.00
N180   N     0.20399   0.85164   0.51660   0.00000  Uiso   1.00
N181   N     0.15696   0.55256   0.26103   0.00000  Uiso   1.00
N182   N     0.81785   0.17573   0.30825   0.00000  Uiso   1.00
N183   N     0.04111   0.80460   0.53066   0.00000  Uiso   1.00
N184   N     0.99408   0.50553   0.27508   0.00000  Uiso   1.00
C185   C     0.87981   0.12821   0.64399   0.00000  Uiso   1.00
C186   C     0.96283   0.04776   0.65759   0.00000  Uiso   1.00
C187   C     0.05883   0.07085   0.67686   0.00000  Uiso   1.00
C188   C     0.12382   0.98611   0.68684   0.00000  Uiso   1.00
C189   C     0.25731   0.87702   0.70932   0.00000  Uiso   1.00
C190   C     0.86056   0.10929   0.59629   0.00000  Uiso   1.00
C191   C     0.87057   0.18412   0.56402   0.00000  Uiso   1.00
C192   C     0.84945   0.15117   0.52240   0.00000  Uiso   1.00
C193   C     0.82409   0.13762   0.44971   0.00000  Uiso   1.00
C194   C     0.77815   0.09632   0.66674   0.00000  Uiso   1.00
C195   C     0.71884   0.16025   0.69368   0.00000  Uiso   1.00
C196   C     0.62832   0.11640   0.71136   0.00000  Uiso   1.00
C197   C     0.47501   0.08272   0.74805   0.00000  Uiso   1.00
C198   C     0.82449   0.93666   0.62745   0.00000  Uiso   1.00
C199   C     0.93278   0.94372   0.64861   0.00000  Uiso   1.00
C200   C     0.99763   0.85892   0.65857   0.00000  Uiso   1.00
C201   C     0.09372   0.88188   0.67785   0.00000  Uiso   1.00
C202   C     0.83051   0.00525   0.58731   0.00000  Uiso   1.00
C203   C     0.80936   0.97219   0.54573   0.00000  Uiso   1.00
C204   C     0.81934   0.04694   0.51340   0.00000  Uiso   1.00
C205   C     0.74810   0.99228   0.65776   0.00000  Uiso   1.00
C206   C     0.65765   0.94832   0.67539   0.00000  Uiso   1.00
C207   C     0.59822   0.01217   0.70237   0.00000  Uiso   1.00
H208   H     0.90320   0.20921   0.65098   0.00000  Uiso   1.00
H209   H     0.08206   0.15138   0.68380   0.00000  Uiso   1.00
H210   H     0.89381   0.26462   0.57098   0.00000  Uiso   1.00
H211   H     0.74212   0.24076   0.70063   0.00000  Uiso   1.00
H212   H     0.26713   0.04137   0.71622   0.00000  Uiso   1.00
H213   H     0.87015   0.28017   0.47834   0.00000  Uiso   1.00
H214   H     0.55027   0.22986   0.75172   0.00000  Uiso   1.00
H215   H     0.80110   0.85566   0.62046   0.00000  Uiso   1.00
H216   H     0.97436   0.77842   0.65161   0.00000  Uiso   1.00
H217   H     0.78611   0.89167   0.53879   0.00000  Uiso   1.00
H218   H     0.63442   0.86781   0.66844   0.00000  Uiso   1.00
H219   H     0.17971   0.73867   0.69009   0.00000  Uiso   1.00
H220   H     0.78273   0.97747   0.45221   0.00000  Uiso   1.00
H221   H     0.46286   0.92715   0.72559   0.00000  Uiso   1.00
O222   O     0.33925   0.84559   0.72419   0.00000  Uiso   1.00
O223   O     0.81842   0.15890   0.41210   0.00000  Uiso   1.00
O224   O     0.39875   0.09288   0.77076   0.00000  Uiso   1.00
N225   N     0.22277   0.98073   0.70581   0.00000  Uiso   1.00
N226   N     0.85164   0.20399   0.48340   0.00000  Uiso   1.00
N227   N     0.55256   0.15696   0.73897   0.00000  Uiso   1.00
N228   N     0.17573   0.81785   0.69175   0.00000  Uiso   1.00
N229   N     0.80460   0.04111   0.46934   0.00000  Uiso   1.00
N230   N     0.50553   0.99408   0.72492   0.00000  Uiso   1.00
C231   C     0.12019   0.87179   0.14399   0.00000  Uiso   1.00
C232   C     0.03717   0.95224   0.15759   0.00000  Uiso   1.00
C233   C     0.94117   0.92915   0.17686   0.00000  Uiso   1.00
C234   C     0.87618   0.01389   0.18684   0.00000  Uiso   1.00
C235   C     0.74269   0.12298   0.20932   0.00000  Uiso   1.00
C236   C     0.13944   0.89071   0.09629   0.00000  Uiso   1.00
C237   C     0.12943   0.81588   0.06402   0.00000  Uiso   1.00
C238   C     0.15055   0.84883   0.02240   0.00000  Uiso   1.00
C239   C     0.17591   0.86238   0.94971   0.00000  Uiso   1.00
C240   C     0.22185   0.90368   0.16674   0.00000  Uiso   1.00
C241   C     0.28116   0.83975   0.19368   0.00000  Uiso   1.00
C242   C     0.37168   0.88360   0.21136   0.00000  Uiso   1.00
C243   C     0.52499   0.91728   0.24805   0.00000  Uiso   1.00
C244   C     0.17551   0.06334   0.12745   0.00000  Uiso   1.00
C245   C     0.06722   0.05628   0.14861   0.00000  Uiso   1.00
C246   C     0.00237   0.14108   0.15857   0.00000  Uiso   1.00
C247   C     0.90628   0.11812   0.17785   0.00000  Uiso   1.00
C248   C     0.16949   0.99475   0.08731   0.00000  Uiso   1.00
C249   C     0.19064   0.02781   0.04573   0.00000  Uiso   1.00
C250   C     0.18066   0.95306   0.01340   0.00000  Uiso   1.00
C251   C     0.25190   0.00772   0.15776   0.00000  Uiso   1.00
C252   C     0.34235   0.05168   0.17539   0.00000  Uiso   1.00
C253   C     0.40178   0.98783   0.20237   0.00000  Uiso   1.00
H254   H     0.09680   0.79079   0.15098   0.00000  Uiso   1.00
H255   H     0.91794   0.84862   0.18380   0.00000  Uiso   1.00
H256   H     0.10619   0.73538   0.07098   0.00000  Uiso   1.00
H257   H     0.25788   0.75924   0.20063   0.00000  Uiso   1.00
H258   H     0.73287   0.95863   0.21622   0.00000  Uiso   1.00
H259   H     0.12985   0.71983   0.97834   0.00000  Uiso   1.00
H260   H     0.44973   0.77014   0.25172   0.00000  Uiso   1.00
H261   H     0.19890   0.14434   0.12046   0.00000  Uiso   1.00
H262   H     0.02564   0.22158   0.15161   0.00000  Uiso   1.00
H263   H     0.21389   0.10833   0.03879   0.00000  Uiso   1.00
H264   H     0.36558   0.13219   0.16844   0.00000  Uiso   1.00
H265   H     0.82029   0.26133   0.19009   0.00000  Uiso   1.00
H266   H     0.21727   0.02253   0.95221   0.00000  Uiso   1.00
H267   H     0.53714   0.07285   0.22559   0.00000  Uiso   1.00
O268   O     0.66075   0.15441   0.22419   0.00000  Uiso   1.00
O269   O     0.18158   0.84110   0.91210   0.00000  Uiso   1.00
O270   O     0.60125   0.90712   0.27076   0.00000  Uiso   1.00
N271   N     0.77723   0.01927   0.20581   0.00000  Uiso   1.00
N272   N     0.14836   0.79601   0.98340   0.00000  Uiso   1.00
N273   N     0.44744   0.84304   0.23897   0.00000  Uiso   1.00
N274   N     0.82427   0.18215   0.19175   0.00000  Uiso   1.00
N275   N     0.19540   0.95889   0.96934   0.00000  Uiso   1.00
N276   N     0.49447   0.00592   0.22492   0.00000  Uiso   1.00
C277   C     0.62821   0.62019   0.89399   0.00000  Uiso   1.00
C278   C     0.54776   0.53717   0.90759   0.00000  Uiso   1.00
C279   C     0.57085   0.44117   0.92686   0.00000  Uiso   1.00
C280   C     0.48611   0.37618   0.93684   0.00000  Uiso   1.00
C281   C     0.37702   0.24269   0.95932   0.00000  Uiso   1.00
C282   C     0.60929   0.63944   0.84629   0.00000  Uiso   1.00
C283   C     0.68412   0.62943   0.81402   0.00000  Uiso   1.00
C284   C     0.65117   0.65055   0.77240   0.00000  Uiso   1.00
C285   C     0.63762   0.67591   0.69971   0.00000  Uiso   1.00
C286   C     0.59632   0.72185   0.91674   0.00000  Uiso   1.00
C287   C     0.66025   0.78116   0.94368   0.00000  Uiso   1.00
C288   C     0.61640   0.87168   0.96136   0.00000  Uiso   1.00
C289   C     0.58272   0.02499   0.99805   0.00000  Uiso   1.00
C290   C     0.43666   0.67551   0.87745   0.00000  Uiso   1.00
C291   C     0.44372   0.56722   0.89861   0.00000  Uiso   1.00
C292   C     0.35892   0.50237   0.90857   0.00000  Uiso   1.00
C293   C     0.38188   0.40628   0.92785   0.00000  Uiso   1.00
C294   C     0.50525   0.66949   0.83731   0.00000  Uiso   1.00
C295   C     0.47219   0.69064   0.79573   0.00000  Uiso   1.00
C296   C     0.54694   0.68066   0.76340   0.00000  Uiso   1.00
C297   C     0.49228   0.75190   0.90776   0.00000  Uiso   1.00
C298   C     0.44832   0.84235   0.92539   0.00000  Uiso   1.00
C299   C     0.51217   0.90178   0.95237   0.00000  Uiso   1.00
H300   H     0.70921   0.59680   0.90098   0.00000  Uiso   1.00
H301   H     0.65138   0.41794   0.93380   0.00000  Uiso   1.00
H302   H     0.76462   0.60619   0.82098   0.00000  Uiso   1.00
H303   H     0.74076   0.75788   0.95063   0.00000  Uiso   1.00
H304   H     0.54137   0.23287   0.96622   0.00000  Uiso   1.00
H305   H     0.78017   0.62985   0.72834   0.00000  Uiso   1.00
H306   H     0.72986   0.94973   0.00172   0.00000  Uiso   1.00
H307   H     0.35566   0.69890   0.87046   0.00000  Uiso   1.00
H308   H     0.27842   0.52564   0.90161   0.00000  Uiso   1.00
H309   H     0.39167   0.71389   0.78879   0.00000  Uiso   1.00
H310   H     0.36781   0.86558   0.91844   0.00000  Uiso   1.00
H311   H     0.23867   0.32029   0.94009   0.00000  Uiso   1.00
H312   H     0.47747   0.71727   0.70221   0.00000  Uiso   1.00
H313   H     0.42715   0.03714   0.97559   0.00000  Uiso   1.00
O314   O     0.34559   0.16075   0.97419   0.00000  Uiso   1.00
O315   O     0.65890   0.68158   0.66210   0.00000  Uiso   1.00
O316   O     0.59288   0.10125   0.02076   0.00000  Uiso   1.00
N317   N     0.48073   0.27723   0.95581   0.00000  Uiso   1.00
N318   N     0.70399   0.64836   0.73340   0.00000  Uiso   1.00
N319   N     0.65696   0.94744   0.98897   0.00000  Uiso   1.00
N320   N     0.31785   0.32427   0.94175   0.00000  Uiso   1.00
N321   N     0.54111   0.69540   0.71934   0.00000  Uiso   1.00
N322   N     0.49408   0.99447   0.97492   0.00000  Uiso   1.00
C323   C     0.37179   0.37981   0.39399   0.00000  Uiso   1.00
C324   C     0.45224   0.46283   0.40759   0.00000  Uiso   1.00
C325   C     0.42915   0.55883   0.42686   0.00000  Uiso   1.00
C326   C     0.51389   0.62382   0.43684   0.00000  Uiso   1.00
C327   C     0.62298   0.75731   0.45932   0.00000  Uiso   1.00
C328   C     0.39071   0.36056   0.34629   0.00000  Uiso   1.00
C329   C     0.31588   0.37057   0.31402   0.00000  Uiso   1.00
C330   C     0.34883   0.34945   0.27240   0.00000  Uiso   1.00
C331   C     0.36238   0.32409   0.19971   0.00000  Uiso   1.00
C332   C     0.40368   0.27815   0.41674   0.00000  Uiso   1.00
C333   C     0.33975   0.21884   0.44368   0.00000  Uiso   1.00
C334   C     0.38360   0.12832   0.46136   0.00000  Uiso   1.00
C335   C     0.41728   0.97501   0.49805   0.00000  Uiso   1.00
C336   C     0.56334   0.32449   0.37745   0.00000  Uiso   1.00
C337   C     0.55628   0.43278   0.39861   0.00000  Uiso   1.00
C338   C     0.64108   0.49763   0.40857   0.00000  Uiso   1.00
C339   C     0.61812   0.59372   0.42785   0.00000  Uiso   1.00
C340   C     0.49475   0.33051   0.33731   0.00000  Uiso   1.00
C341   C     0.52781   0.30936   0.29573   0.00000  Uiso   1.00
C342   C     0.45306   0.31934   0.26340   0.00000  Uiso   1.00
C343   C     0.50772   0.24810   0.40776   0.00000  Uiso   1.00
C344   C     0.55168   0.15765   0.42539   0.00000  Uiso   1.00
C345   C     0.48783   0.09822   0.45237   0.00000  Uiso   1.00
H346   H     0.29079   0.40320   0.40098   0.00000  Uiso   1.00
H347   H     0.34862   0.58206   0.43380   0.00000  Uiso   1.00
H348   H     0.23538   0.39381   0.32098   0.00000  Uiso   1.00
H349   H     0.25924   0.24212   0.45063   0.00000  Uiso   1.00
H350   H     0.45863   0.76713   0.46622   0.00000  Uiso   1.00
H351   H     0.21983   0.37015   0.22834   0.00000  Uiso   1.00
H352   H     0.27014   0.05027   0.50172   0.00000  Uiso   1.00
H353   H     0.64434   0.30110   0.37046   0.00000  Uiso   1.00
H354   H     0.72158   0.47436   0.40161   0.00000  Uiso   1.00
H355   H     0.60833   0.28611   0.28879   0.00000  Uiso   1.00
H356   H     0.63219   0.13442   0.41844   0.00000  Uiso   1.00
H357   H     0.76133   0.67971   0.44009   0.00000  Uiso   1.00
H358   H     0.52253   0.28273   0.20221   0.00000  Uiso   1.00
H359   H     0.57285   0.96286   0.47559   0.00000  Uiso   1.00
O360   O     0.65441   0.83925   0.47419   0.00000  Uiso   1.00
O361   O     0.34110   0.31842   0.16210   0.00000  Uiso   1.00
O362   O     0.40712   0.89875   0.52076   0.00000  Uiso   1.00
N363   N     0.51927   0.72277   0.45581   0.00000  Uiso   1.00
N364   N     0.29601   0.35164   0.23340   0.00000  Uiso   1.00
N365   N     0.34304   0.05256   0.48897   0.00000  Uiso   1.00
N366   N     0.68215   0.67573   0.44175   0.00000  Uiso   1.00
N367   N     0.45889   0.30460   0.21934   0.00000  Uiso   1.00
N368   N     0.50592   0.00553   0.47492   0.00000  Uiso   1.00
