data_job_01551
_audit_creation_date              2018-12-19
_audit_creation_method            'Materials Studio'
_symmetry_space_group_name_H-M    'P1'
_symmetry_Int_Tables_number       1
_symmetry_cell_setting            triclinic
loop_
_symmetry_equiv_pos_as_xyz
  x,y,z
_cell_length_a                    19.5501
_cell_length_b                    14.4326
_cell_length_c                    15.5922
_cell_angle_alpha                 90.0000
_cell_angle_beta                  90.0000
_cell_angle_gamma                 90.0000
loop_
_atom_site_label
_atom_site_type_symbol
_atom_site_fract_x
_atom_site_fract_y
_atom_site_fract_z
_atom_site_U_iso_or_equiv
_atom_site_adp_type
_atom_site_occupancy
C1     C     0.57134   0.42976   0.31278   0.00000  Uiso   1.00
C2     C     0.60605   0.33521   0.30959   0.00000  Uiso   1.00
C3     C     0.65624   0.30406   0.36554   0.00000  Uiso   1.00
C4     C     0.68153   0.21540   0.35185   0.00000  Uiso   1.00
C5     C     0.73912   0.07703   0.35710   0.00000  Uiso   1.00
C6     C     0.58280   0.47355   0.22494   0.00000  Uiso   1.00
C7     C     0.61342   0.55873   0.20972   0.00000  Uiso   1.00
C8     C     0.61914   0.58653   0.12478   0.00000  Uiso   1.00
C9     C     0.64058   0.66297   0.99861   0.00000  Uiso   1.00
C10    C     0.49479   0.41058   0.31896   0.00000  Uiso   1.00
C11    C     0.45142   0.44284   0.38279   0.00000  Uiso   1.00
C12    C     0.38303   0.41764   0.37699   0.00000  Uiso   1.00
C13    C     0.26784   0.39631   0.39681   0.00000  Uiso   1.00
C14    C     0.52701   0.32769   0.18897   0.00000  Uiso   1.00
C15    C     0.58197   0.27977   0.24234   0.00000  Uiso   1.00
C16    C     0.60720   0.19112   0.22856   0.00000  Uiso   1.00
C17    C     0.65741   0.15985   0.28449   0.00000  Uiso   1.00
C18    C     0.55872   0.41811   0.15769   0.00000  Uiso   1.00
C19    C     0.56438   0.44579   0.07275   0.00000  Uiso   1.00
C20    C     0.59502   0.53099   0.05741   0.00000  Uiso   1.00
C21    C     0.47071   0.35514   0.25172   0.00000  Uiso   1.00
C22    C     0.40238   0.32989   0.24581   0.00000  Uiso   1.00
C23    C     0.35891   0.36210   0.30962   0.00000  Uiso   1.00
H24    H     0.59008   0.47293   0.36512   0.00000  Uiso   1.00
H25    H     0.67486   0.34699   0.41756   0.00000  Uiso   1.00
H26    H     0.63205   0.60162   0.26177   0.00000  Uiso   1.00
H27    H     0.47007   0.48574   0.43481   0.00000  Uiso   1.00
H28    H     0.75826   0.18292   0.44603   0.00000  Uiso   1.00
H29    H     0.66796   0.71985   0.11754   0.00000  Uiso   1.00
H30    H     0.32640   0.47549   0.48242   0.00000  Uiso   1.00
H31    H     0.50826   0.28452   0.13662   0.00000  Uiso   1.00
H32    H     0.58856   0.14823   0.17652   0.00000  Uiso   1.00
H33    H     0.54574   0.40287   0.02073   0.00000  Uiso   1.00
H34    H     0.38377   0.28699   0.19377   0.00000  Uiso   1.00
H35    H     0.68821   0.02161   0.25038   0.00000  Uiso   1.00
H36    H     0.59791   0.55854   0.92189   0.00000  Uiso   1.00
H37    H     0.25635   0.31417   0.28678   0.00000  Uiso   1.00
O38    O     0.77754   0.01602   0.37856   0.00000  Uiso   1.00
O39    O     0.65906   0.72045   0.94760   0.00000  Uiso   1.00
O40    O     0.21095   0.39986   0.42632   0.00000  Uiso   1.00
N41    N     0.73074   0.16365   0.39452   0.00000  Uiso   1.00
N42    N     0.64633   0.66564   0.08740   0.00000  Uiso   1.00
N43    N     0.32699   0.43720   0.42852   0.00000  Uiso   1.00
N44    N     0.69305   0.07685   0.28924   0.00000  Uiso   1.00
N45    N     0.60864   0.57884   0.98213   0.00000  Uiso   1.00
N46    N     0.28930   0.35040   0.32325   0.00000  Uiso   1.00
C47    C     0.92866   0.57024   0.81278   0.00000  Uiso   1.00
C48    C     0.89395   0.66479   0.80959   0.00000  Uiso   1.00
C49    C     0.84376   0.69594   0.86554   0.00000  Uiso   1.00
C50    C     0.81847   0.78460   0.85185   0.00000  Uiso   1.00
C51    C     0.76088   0.92297   0.85710   0.00000  Uiso   1.00
C52    C     0.91720   0.52645   0.72494   0.00000  Uiso   1.00
C53    C     0.88658   0.44127   0.70972   0.00000  Uiso   1.00
C54    C     0.88086   0.41347   0.62478   0.00000  Uiso   1.00
C55    C     0.85942   0.33703   0.49861   0.00000  Uiso   1.00
C56    C     0.00521   0.58942   0.81896   0.00000  Uiso   1.00
C57    C     0.04858   0.55716   0.88279   0.00000  Uiso   1.00
C58    C     0.11697   0.58236   0.87699   0.00000  Uiso   1.00
C59    C     0.23216   0.60369   0.89681   0.00000  Uiso   1.00
C60    C     0.97299   0.67231   0.68897   0.00000  Uiso   1.00
C61    C     0.91803   0.72023   0.74234   0.00000  Uiso   1.00
C62    C     0.89280   0.80888   0.72856   0.00000  Uiso   1.00
C63    C     0.84259   0.84015   0.78449   0.00000  Uiso   1.00
C64    C     0.94128   0.58189   0.65769   0.00000  Uiso   1.00
C65    C     0.93562   0.55421   0.57275   0.00000  Uiso   1.00
C66    C     0.90498   0.46901   0.55741   0.00000  Uiso   1.00
C67    C     0.02929   0.64486   0.75172   0.00000  Uiso   1.00
C68    C     0.09762   0.67011   0.74581   0.00000  Uiso   1.00
C69    C     0.14109   0.63790   0.80962   0.00000  Uiso   1.00
H70    H     0.90992   0.52707   0.86512   0.00000  Uiso   1.00
H71    H     0.82514   0.65301   0.91756   0.00000  Uiso   1.00
H72    H     0.86795   0.39838   0.76177   0.00000  Uiso   1.00
H73    H     0.02993   0.51426   0.93481   0.00000  Uiso   1.00
H74    H     0.74174   0.81708   0.94603   0.00000  Uiso   1.00
H75    H     0.83204   0.28015   0.61754   0.00000  Uiso   1.00
H76    H     0.17360   0.52451   0.98242   0.00000  Uiso   1.00
H77    H     0.99174   0.71548   0.63662   0.00000  Uiso   1.00
H78    H     0.91144   0.85177   0.67652   0.00000  Uiso   1.00
H79    H     0.95426   0.59713   0.52073   0.00000  Uiso   1.00
H80    H     0.11623   0.71301   0.69377   0.00000  Uiso   1.00
H81    H     0.81179   0.97839   0.75038   0.00000  Uiso   1.00
H82    H     0.90209   0.44146   0.42189   0.00000  Uiso   1.00
H83    H     0.24365   0.68583   0.78678   0.00000  Uiso   1.00
O84    O     0.72246   0.98398   0.87856   0.00000  Uiso   1.00
O85    O     0.84094   0.27955   0.44760   0.00000  Uiso   1.00
O86    O     0.28905   0.60014   0.92632   0.00000  Uiso   1.00
N87    N     0.76926   0.83635   0.89452   0.00000  Uiso   1.00
N88    N     0.85367   0.33436   0.58740   0.00000  Uiso   1.00
N89    N     0.17301   0.56280   0.92852   0.00000  Uiso   1.00
N90    N     0.80695   0.92315   0.78924   0.00000  Uiso   1.00
N91    N     0.89136   0.42116   0.48213   0.00000  Uiso   1.00
N92    N     0.21070   0.64960   0.82325   0.00000  Uiso   1.00
C93    C     0.42866   0.92976   0.18722   0.00000  Uiso   1.00
C94    C     0.39395   0.83521   0.19041   0.00000  Uiso   1.00
C95    C     0.34376   0.80406   0.13446   0.00000  Uiso   1.00
C96    C     0.31847   0.71540   0.14815   0.00000  Uiso   1.00
C97    C     0.26088   0.57703   0.14290   0.00000  Uiso   1.00
C98    C     0.41720   0.97355   0.27506   0.00000  Uiso   1.00
C99    C     0.38658   0.05873   0.29028   0.00000  Uiso   1.00
C100   C     0.38086   0.08653   0.37522   0.00000  Uiso   1.00
C101   C     0.35942   0.16297   0.50139   0.00000  Uiso   1.00
C102   C     0.50521   0.91058   0.18104   0.00000  Uiso   1.00
C103   C     0.54858   0.94284   0.11721   0.00000  Uiso   1.00
C104   C     0.61697   0.91764   0.12301   0.00000  Uiso   1.00
C105   C     0.73216   0.89631   0.10319   0.00000  Uiso   1.00
C106   C     0.47299   0.82769   0.31103   0.00000  Uiso   1.00
C107   C     0.41803   0.77977   0.25766   0.00000  Uiso   1.00
C108   C     0.39280   0.69112   0.27144   0.00000  Uiso   1.00
C109   C     0.34259   0.65985   0.21551   0.00000  Uiso   1.00
C110   C     0.44128   0.91811   0.34231   0.00000  Uiso   1.00
C111   C     0.43562   0.94579   0.42725   0.00000  Uiso   1.00
C112   C     0.40498   0.03099   0.44259   0.00000  Uiso   1.00
C113   C     0.52929   0.85514   0.24828   0.00000  Uiso   1.00
C114   C     0.59762   0.82989   0.25419   0.00000  Uiso   1.00
C115   C     0.64109   0.86210   0.19038   0.00000  Uiso   1.00
H116   H     0.40992   0.97293   0.13488   0.00000  Uiso   1.00
H117   H     0.32514   0.84699   0.08244   0.00000  Uiso   1.00
H118   H     0.36795   0.10162   0.23823   0.00000  Uiso   1.00
H119   H     0.52993   0.98574   0.06519   0.00000  Uiso   1.00
H120   H     0.24174   0.68292   0.05397   0.00000  Uiso   1.00
H121   H     0.33204   0.21985   0.38246   0.00000  Uiso   1.00
H122   H     0.67360   0.97549   0.01758   0.00000  Uiso   1.00
H123   H     0.49174   0.78452   0.36338   0.00000  Uiso   1.00
H124   H     0.41144   0.64823   0.32348   0.00000  Uiso   1.00
H125   H     0.45426   0.90287   0.47927   0.00000  Uiso   1.00
H126   H     0.61623   0.78699   0.30623   0.00000  Uiso   1.00
H127   H     0.31179   0.52161   0.24962   0.00000  Uiso   1.00
H128   H     0.40209   0.05854   0.57811   0.00000  Uiso   1.00
H129   H     0.74365   0.81417   0.21322   0.00000  Uiso   1.00
O130   O     0.22246   0.51602   0.12144   0.00000  Uiso   1.00
O131   O     0.34094   0.22045   0.55240   0.00000  Uiso   1.00
O132   O     0.78905   0.89986   0.07368   0.00000  Uiso   1.00
N133   N     0.26926   0.66365   0.10548   0.00000  Uiso   1.00
N134   N     0.35367   0.16564   0.41260   0.00000  Uiso   1.00
N135   N     0.67301   0.93720   0.07148   0.00000  Uiso   1.00
N136   N     0.30695   0.57685   0.21076   0.00000  Uiso   1.00
N137   N     0.39136   0.07884   0.51787   0.00000  Uiso   1.00
N138   N     0.71070   0.85040   0.17675   0.00000  Uiso   1.00
C139   C     0.07134   0.07024   0.68722   0.00000  Uiso   1.00
C140   C     0.10605   0.16479   0.69041   0.00000  Uiso   1.00
C141   C     0.15624   0.19594   0.63446   0.00000  Uiso   1.00
C142   C     0.18153   0.28460   0.64815   0.00000  Uiso   1.00
C143   C     0.23912   0.42297   0.64290   0.00000  Uiso   1.00
C144   C     0.08280   0.02645   0.77506   0.00000  Uiso   1.00
C145   C     0.11342   0.94127   0.79028   0.00000  Uiso   1.00
C146   C     0.11914   0.91347   0.87522   0.00000  Uiso   1.00
C147   C     0.14058   0.83703   0.00139   0.00000  Uiso   1.00
C148   C     0.99479   0.08942   0.68104   0.00000  Uiso   1.00
C149   C     0.95142   0.05716   0.61721   0.00000  Uiso   1.00
C150   C     0.88303   0.08236   0.62301   0.00000  Uiso   1.00
C151   C     0.76784   0.10369   0.60319   0.00000  Uiso   1.00
C152   C     0.02701   0.17231   0.81103   0.00000  Uiso   1.00
C153   C     0.08197   0.22023   0.75766   0.00000  Uiso   1.00
C154   C     0.10720   0.30888   0.77144   0.00000  Uiso   1.00
C155   C     0.15741   0.34015   0.71551   0.00000  Uiso   1.00
C156   C     0.05872   0.08189   0.84231   0.00000  Uiso   1.00
C157   C     0.06438   0.05421   0.92725   0.00000  Uiso   1.00
C158   C     0.09502   0.96901   0.94259   0.00000  Uiso   1.00
C159   C     0.97071   0.14486   0.74828   0.00000  Uiso   1.00
C160   C     0.90238   0.17011   0.75419   0.00000  Uiso   1.00
C161   C     0.85891   0.13790   0.69038   0.00000  Uiso   1.00
H162   H     0.09008   0.02707   0.63488   0.00000  Uiso   1.00
H163   H     0.17486   0.15301   0.58244   0.00000  Uiso   1.00
H164   H     0.13205   0.89838   0.73823   0.00000  Uiso   1.00
H165   H     0.97007   0.01426   0.56519   0.00000  Uiso   1.00
H166   H     0.25826   0.31708   0.55397   0.00000  Uiso   1.00
H167   H     0.16796   0.78015   0.88246   0.00000  Uiso   1.00
H168   H     0.82640   0.02451   0.51758   0.00000  Uiso   1.00
H169   H     0.00826   0.21548   0.86338   0.00000  Uiso   1.00
H170   H     0.08856   0.35177   0.82348   0.00000  Uiso   1.00
H171   H     0.04574   0.09713   0.97927   0.00000  Uiso   1.00
H172   H     0.88377   0.21301   0.80623   0.00000  Uiso   1.00
H173   H     0.18821   0.47839   0.74962   0.00000  Uiso   1.00
H174   H     0.09791   0.94146   0.07811   0.00000  Uiso   1.00
H175   H     0.75635   0.18583   0.71322   0.00000  Uiso   1.00
O176   O     0.27754   0.48398   0.62144   0.00000  Uiso   1.00
O177   O     0.15906   0.77955   0.05240   0.00000  Uiso   1.00
O178   O     0.71095   0.10014   0.57368   0.00000  Uiso   1.00
N179   N     0.23074   0.33635   0.60548   0.00000  Uiso   1.00
N180   N     0.14633   0.83436   0.91260   0.00000  Uiso   1.00
N181   N     0.82699   0.06280   0.57148   0.00000  Uiso   1.00
N182   N     0.19305   0.42315   0.71076   0.00000  Uiso   1.00
N183   N     0.10864   0.92116   0.01787   0.00000  Uiso   1.00
N184   N     0.78930   0.14960   0.67675   0.00000  Uiso   1.00
C185   C     0.42866   0.57024   0.68722   0.00000  Uiso   1.00
C186   C     0.39395   0.66479   0.69041   0.00000  Uiso   1.00
C187   C     0.34376   0.69594   0.63446   0.00000  Uiso   1.00
C188   C     0.31847   0.78460   0.64815   0.00000  Uiso   1.00
C189   C     0.26088   0.92297   0.64290   0.00000  Uiso   1.00
C190   C     0.41720   0.52645   0.77506   0.00000  Uiso   1.00
C191   C     0.38658   0.44127   0.79028   0.00000  Uiso   1.00
C192   C     0.38086   0.41347   0.87522   0.00000  Uiso   1.00
C193   C     0.35942   0.33703   0.00139   0.00000  Uiso   1.00
C194   C     0.50521   0.58942   0.68104   0.00000  Uiso   1.00
C195   C     0.54858   0.55716   0.61721   0.00000  Uiso   1.00
C196   C     0.61697   0.58236   0.62301   0.00000  Uiso   1.00
C197   C     0.73216   0.60369   0.60319   0.00000  Uiso   1.00
C198   C     0.47299   0.67231   0.81103   0.00000  Uiso   1.00
C199   C     0.41803   0.72023   0.75766   0.00000  Uiso   1.00
C200   C     0.39280   0.80888   0.77144   0.00000  Uiso   1.00
C201   C     0.34259   0.84015   0.71551   0.00000  Uiso   1.00
C202   C     0.44128   0.58189   0.84231   0.00000  Uiso   1.00
C203   C     0.43562   0.55421   0.92725   0.00000  Uiso   1.00
C204   C     0.40498   0.46901   0.94259   0.00000  Uiso   1.00
C205   C     0.52929   0.64486   0.74828   0.00000  Uiso   1.00
C206   C     0.59762   0.67011   0.75419   0.00000  Uiso   1.00
C207   C     0.64109   0.63790   0.69038   0.00000  Uiso   1.00
H208   H     0.40992   0.52707   0.63488   0.00000  Uiso   1.00
H209   H     0.32514   0.65301   0.58244   0.00000  Uiso   1.00
H210   H     0.36795   0.39838   0.73823   0.00000  Uiso   1.00
H211   H     0.52993   0.51426   0.56519   0.00000  Uiso   1.00
H212   H     0.24174   0.81708   0.55397   0.00000  Uiso   1.00
H213   H     0.33204   0.28015   0.88246   0.00000  Uiso   1.00
H214   H     0.67360   0.52451   0.51758   0.00000  Uiso   1.00
H215   H     0.49174   0.71548   0.86338   0.00000  Uiso   1.00
H216   H     0.41144   0.85177   0.82348   0.00000  Uiso   1.00
H217   H     0.45426   0.59713   0.97927   0.00000  Uiso   1.00
H218   H     0.61623   0.71301   0.80623   0.00000  Uiso   1.00
H219   H     0.31179   0.97839   0.74962   0.00000  Uiso   1.00
H220   H     0.40209   0.44146   0.07811   0.00000  Uiso   1.00
H221   H     0.74365   0.68583   0.71322   0.00000  Uiso   1.00
O222   O     0.22246   0.98398   0.62144   0.00000  Uiso   1.00
O223   O     0.34094   0.27955   0.05240   0.00000  Uiso   1.00
O224   O     0.78905   0.60014   0.57368   0.00000  Uiso   1.00
N225   N     0.26926   0.83635   0.60548   0.00000  Uiso   1.00
N226   N     0.35367   0.33436   0.91260   0.00000  Uiso   1.00
N227   N     0.67301   0.56280   0.57148   0.00000  Uiso   1.00
N228   N     0.30695   0.92315   0.71076   0.00000  Uiso   1.00
N229   N     0.39136   0.42116   0.01787   0.00000  Uiso   1.00
N230   N     0.71070   0.64960   0.67675   0.00000  Uiso   1.00
C231   C     0.07134   0.42976   0.18722   0.00000  Uiso   1.00
C232   C     0.10605   0.33521   0.19041   0.00000  Uiso   1.00
C233   C     0.15624   0.30406   0.13446   0.00000  Uiso   1.00
C234   C     0.18153   0.21540   0.14815   0.00000  Uiso   1.00
C235   C     0.23912   0.07703   0.14290   0.00000  Uiso   1.00
C236   C     0.08280   0.47355   0.27506   0.00000  Uiso   1.00
C237   C     0.11342   0.55873   0.29028   0.00000  Uiso   1.00
C238   C     0.11914   0.58653   0.37522   0.00000  Uiso   1.00
C239   C     0.14058   0.66297   0.50139   0.00000  Uiso   1.00
C240   C     0.99479   0.41058   0.18104   0.00000  Uiso   1.00
C241   C     0.95142   0.44284   0.11721   0.00000  Uiso   1.00
C242   C     0.88303   0.41764   0.12301   0.00000  Uiso   1.00
C243   C     0.76784   0.39631   0.10319   0.00000  Uiso   1.00
C244   C     0.02701   0.32769   0.31103   0.00000  Uiso   1.00
C245   C     0.08197   0.27977   0.25766   0.00000  Uiso   1.00
C246   C     0.10720   0.19112   0.27144   0.00000  Uiso   1.00
C247   C     0.15741   0.15985   0.21551   0.00000  Uiso   1.00
C248   C     0.05872   0.41811   0.34231   0.00000  Uiso   1.00
C249   C     0.06438   0.44579   0.42725   0.00000  Uiso   1.00
C250   C     0.09502   0.53099   0.44259   0.00000  Uiso   1.00
C251   C     0.97071   0.35514   0.24828   0.00000  Uiso   1.00
C252   C     0.90238   0.32989   0.25419   0.00000  Uiso   1.00
C253   C     0.85891   0.36210   0.19038   0.00000  Uiso   1.00
H254   H     0.09008   0.47293   0.13488   0.00000  Uiso   1.00
H255   H     0.17486   0.34699   0.08244   0.00000  Uiso   1.00
H256   H     0.13205   0.60162   0.23823   0.00000  Uiso   1.00
H257   H     0.97007   0.48574   0.06519   0.00000  Uiso   1.00
H258   H     0.25826   0.18292   0.05397   0.00000  Uiso   1.00
H259   H     0.16796   0.71985   0.38246   0.00000  Uiso   1.00
H260   H     0.82640   0.47549   0.01758   0.00000  Uiso   1.00
H261   H     0.00826   0.28452   0.36338   0.00000  Uiso   1.00
H262   H     0.08856   0.14823   0.32348   0.00000  Uiso   1.00
H263   H     0.04574   0.40287   0.47927   0.00000  Uiso   1.00
H264   H     0.88377   0.28699   0.30623   0.00000  Uiso   1.00
H265   H     0.18821   0.02161   0.24962   0.00000  Uiso   1.00
H266   H     0.09791   0.55854   0.57811   0.00000  Uiso   1.00
H267   H     0.75635   0.31417   0.21322   0.00000  Uiso   1.00
O268   O     0.27754   0.01602   0.12144   0.00000  Uiso   1.00
O269   O     0.15906   0.72045   0.55240   0.00000  Uiso   1.00
O270   O     0.71095   0.39986   0.07368   0.00000  Uiso   1.00
N271   N     0.23074   0.16365   0.10548   0.00000  Uiso   1.00
N272   N     0.14633   0.66564   0.41260   0.00000  Uiso   1.00
N273   N     0.82699   0.43720   0.07148   0.00000  Uiso   1.00
N274   N     0.19305   0.07685   0.21076   0.00000  Uiso   1.00
N275   N     0.10864   0.57884   0.51787   0.00000  Uiso   1.00
N276   N     0.78930   0.35040   0.17675   0.00000  Uiso   1.00
C277   C     0.57134   0.07024   0.81278   0.00000  Uiso   1.00
C278   C     0.60605   0.16479   0.80959   0.00000  Uiso   1.00
C279   C     0.65624   0.19594   0.86554   0.00000  Uiso   1.00
C280   C     0.68153   0.28460   0.85185   0.00000  Uiso   1.00
C281   C     0.73912   0.42297   0.85710   0.00000  Uiso   1.00
C282   C     0.58280   0.02645   0.72494   0.00000  Uiso   1.00
C283   C     0.61342   0.94127   0.70972   0.00000  Uiso   1.00
C284   C     0.61914   0.91347   0.62478   0.00000  Uiso   1.00
C285   C     0.64058   0.83703   0.49861   0.00000  Uiso   1.00
C286   C     0.49479   0.08942   0.81896   0.00000  Uiso   1.00
C287   C     0.45142   0.05716   0.88279   0.00000  Uiso   1.00
C288   C     0.38303   0.08236   0.87699   0.00000  Uiso   1.00
C289   C     0.26784   0.10369   0.89681   0.00000  Uiso   1.00
C290   C     0.52701   0.17231   0.68897   0.00000  Uiso   1.00
C291   C     0.58197   0.22023   0.74234   0.00000  Uiso   1.00
C292   C     0.60720   0.30888   0.72856   0.00000  Uiso   1.00
C293   C     0.65741   0.34015   0.78449   0.00000  Uiso   1.00
C294   C     0.55872   0.08189   0.65769   0.00000  Uiso   1.00
C295   C     0.56438   0.05421   0.57275   0.00000  Uiso   1.00
C296   C     0.59502   0.96901   0.55741   0.00000  Uiso   1.00
C297   C     0.47071   0.14486   0.75172   0.00000  Uiso   1.00
C298   C     0.40238   0.17011   0.74581   0.00000  Uiso   1.00
C299   C     0.35891   0.13790   0.80962   0.00000  Uiso   1.00
H300   H     0.59008   0.02707   0.86512   0.00000  Uiso   1.00
H301   H     0.67486   0.15301   0.91756   0.00000  Uiso   1.00
H302   H     0.63205   0.89838   0.76177   0.00000  Uiso   1.00
H303   H     0.47007   0.01426   0.93481   0.00000  Uiso   1.00
H304   H     0.75826   0.31708   0.94603   0.00000  Uiso   1.00
H305   H     0.66796   0.78015   0.61754   0.00000  Uiso   1.00
H306   H     0.32640   0.02451   0.98242   0.00000  Uiso   1.00
H307   H     0.50826   0.21548   0.63662   0.00000  Uiso   1.00
H308   H     0.58856   0.35177   0.67652   0.00000  Uiso   1.00
H309   H     0.54574   0.09713   0.52073   0.00000  Uiso   1.00
H310   H     0.38377   0.21301   0.69377   0.00000  Uiso   1.00
H311   H     0.68821   0.47839   0.75038   0.00000  Uiso   1.00
H312   H     0.59791   0.94146   0.42189   0.00000  Uiso   1.00
H313   H     0.25635   0.18583   0.78678   0.00000  Uiso   1.00
O314   O     0.77754   0.48398   0.87856   0.00000  Uiso   1.00
O315   O     0.65906   0.77955   0.44760   0.00000  Uiso   1.00
O316   O     0.21095   0.10014   0.92632   0.00000  Uiso   1.00
N317   N     0.73074   0.33635   0.89452   0.00000  Uiso   1.00
N318   N     0.64633   0.83436   0.58740   0.00000  Uiso   1.00
N319   N     0.32699   0.06280   0.92852   0.00000  Uiso   1.00
N320   N     0.69305   0.42315   0.78924   0.00000  Uiso   1.00
N321   N     0.60864   0.92116   0.48213   0.00000  Uiso   1.00
N322   N     0.28930   0.14960   0.82325   0.00000  Uiso   1.00
C323   C     0.92866   0.92976   0.31278   0.00000  Uiso   1.00
C324   C     0.89395   0.83521   0.30959   0.00000  Uiso   1.00
C325   C     0.84376   0.80406   0.36554   0.00000  Uiso   1.00
C326   C     0.81847   0.71540   0.35185   0.00000  Uiso   1.00
C327   C     0.76088   0.57703   0.35710   0.00000  Uiso   1.00
C328   C     0.91720   0.97355   0.22494   0.00000  Uiso   1.00
C329   C     0.88658   0.05873   0.20972   0.00000  Uiso   1.00
C330   C     0.88086   0.08653   0.12478   0.00000  Uiso   1.00
C331   C     0.85942   0.16297   0.99861   0.00000  Uiso   1.00
C332   C     0.00521   0.91058   0.31896   0.00000  Uiso   1.00
C333   C     0.04858   0.94284   0.38279   0.00000  Uiso   1.00
C334   C     0.11697   0.91764   0.37699   0.00000  Uiso   1.00
C335   C     0.23216   0.89631   0.39681   0.00000  Uiso   1.00
C336   C     0.97299   0.82769   0.18897   0.00000  Uiso   1.00
C337   C     0.91803   0.77977   0.24234   0.00000  Uiso   1.00
C338   C     0.89280   0.69112   0.22856   0.00000  Uiso   1.00
C339   C     0.84259   0.65985   0.28449   0.00000  Uiso   1.00
C340   C     0.94128   0.91811   0.15769   0.00000  Uiso   1.00
C341   C     0.93562   0.94579   0.07275   0.00000  Uiso   1.00
C342   C     0.90498   0.03099   0.05741   0.00000  Uiso   1.00
C343   C     0.02929   0.85514   0.25172   0.00000  Uiso   1.00
C344   C     0.09762   0.82989   0.24581   0.00000  Uiso   1.00
C345   C     0.14109   0.86210   0.30962   0.00000  Uiso   1.00
H346   H     0.90992   0.97293   0.36512   0.00000  Uiso   1.00
H347   H     0.82514   0.84699   0.41756   0.00000  Uiso   1.00
H348   H     0.86795   0.10162   0.26177   0.00000  Uiso   1.00
H349   H     0.02993   0.98574   0.43481   0.00000  Uiso   1.00
H350   H     0.74174   0.68292   0.44603   0.00000  Uiso   1.00
H351   H     0.83204   0.21985   0.11754   0.00000  Uiso   1.00
H352   H     0.17360   0.97549   0.48242   0.00000  Uiso   1.00
H353   H     0.99174   0.78452   0.13662   0.00000  Uiso   1.00
H354   H     0.91144   0.64823   0.17652   0.00000  Uiso   1.00
H355   H     0.95426   0.90287   0.02073   0.00000  Uiso   1.00
H356   H     0.11623   0.78699   0.19377   0.00000  Uiso   1.00
H357   H     0.81179   0.52161   0.25038   0.00000  Uiso   1.00
H358   H     0.90209   0.05854   0.92189   0.00000  Uiso   1.00
H359   H     0.24365   0.81417   0.28678   0.00000  Uiso   1.00
O360   O     0.72246   0.51602   0.37856   0.00000  Uiso   1.00
O361   O     0.84094   0.22045   0.94760   0.00000  Uiso   1.00
O362   O     0.28905   0.89986   0.42632   0.00000  Uiso   1.00
N363   N     0.76926   0.66365   0.39452   0.00000  Uiso   1.00
N364   N     0.85367   0.16564   0.08740   0.00000  Uiso   1.00
N365   N     0.17301   0.93720   0.42852   0.00000  Uiso   1.00
N366   N     0.80695   0.57685   0.28924   0.00000  Uiso   1.00
N367   N     0.89136   0.07884   0.98213   0.00000  Uiso   1.00
N368   N     0.21070   0.85040   0.32325   0.00000  Uiso   1.00
