data_job_03983
_audit_creation_date              2018-12-19
_audit_creation_method            'Materials Studio'
_symmetry_space_group_name_H-M    'P1'
_symmetry_Int_Tables_number       1
_symmetry_cell_setting            triclinic
loop_
_symmetry_equiv_pos_as_xyz
  x,y,z
_cell_length_a                    17.6742
_cell_length_b                    16.7582
_cell_length_c                    40.1911
_cell_angle_alpha                 90.0000
_cell_angle_beta                  90.0000
_cell_angle_gamma                 90.0000
loop_
_atom_site_label
_atom_site_type_symbol
_atom_site_fract_x
_atom_site_fract_y
_atom_site_fract_z
_atom_site_U_iso_or_equiv
_atom_site_adp_type
_atom_site_occupancy
C1     C     0.04604   0.46583   0.16628   0.00000  Uiso   1.00
C2     C     0.00330   0.40029   0.18471   0.00000  Uiso   1.00
C3     C     0.93615   0.41003   0.20214   0.00000  Uiso   1.00
C4     C     0.90603   0.34270   0.21729   0.00000  Uiso   1.00
C5     C     0.83425   0.25226   0.24626   0.00000  Uiso   1.00
C6     C     0.12570   0.46651   0.18085   0.00000  Uiso   1.00
C7     C     0.16146   0.53194   0.19503   0.00000  Uiso   1.00
C8     C     0.23438   0.52035   0.20693   0.00000  Uiso   1.00
C9     C     0.35264   0.53274   0.22989   0.00000  Uiso   1.00
C10    C     0.05430   0.43687   0.13050   0.00000  Uiso   1.00
C11    C     0.03004   0.47738   0.10233   0.00000  Uiso   1.00
C12    C     0.04287   0.44085   0.07184   0.00000  Uiso   1.00
C13    C     0.05026   0.40721   0.01661   0.00000  Uiso   1.00
C14    C     0.11197   0.32893   0.16221   0.00000  Uiso   1.00
C15    C     0.03912   0.32593   0.18250   0.00000  Uiso   1.00
C16    C     0.00909   0.25857   0.19764   0.00000  Uiso   1.00
C17    C     0.94190   0.26821   0.21508   0.00000  Uiso   1.00
C18    C     0.16151   0.39216   0.17864   0.00000  Uiso   1.00
C19    C     0.23440   0.38048   0.19053   0.00000  Uiso   1.00
C20    C     0.27026   0.44587   0.20472   0.00000  Uiso   1.00
C21    C     0.09011   0.36251   0.12829   0.00000  Uiso   1.00
C22    C     0.10298   0.32592   0.09783   0.00000  Uiso   1.00
C23    C     0.07874   0.36636   0.06963   0.00000  Uiso   1.00
H24    H     0.01817   0.52372   0.16800   0.00000  Uiso   1.00
H25    H     0.90846   0.46759   0.20384   0.00000  Uiso   1.00
H26    H     0.13373   0.58947   0.19673   0.00000  Uiso   1.00
H27    H     0.00233   0.53492   0.10405   0.00000  Uiso   1.00
H28    H     0.80263   0.37257   0.24261   0.00000  Uiso   1.00
H29    H     0.27765   0.62958   0.22761   0.00000  Uiso   1.00
H30    H     0.00057   0.51455   0.03218   0.00000  Uiso   1.00
H31    H     0.13985   0.27104   0.16049   0.00000  Uiso   1.00
H32    H     0.03682   0.20104   0.19592   0.00000  Uiso   1.00
H33    H     0.26210   0.32293   0.18881   0.00000  Uiso   1.00
H34    H     0.13070   0.26838   0.09613   0.00000  Uiso   1.00
H35    H     0.90682   0.15623   0.23619   0.00000  Uiso   1.00
H36    H     0.38184   0.41324   0.22118   0.00000  Uiso   1.00
H37    H     0.10475   0.29821   0.02575   0.00000  Uiso   1.00
O38    O     0.78477   0.22291   0.26285   0.00000  Uiso   1.00
O39    O     0.40797   0.56011   0.24316   0.00000  Uiso   1.00
O40    O     0.04444   0.40919   0.98676   0.00000  Uiso   1.00
N41    N     0.84129   0.33126   0.23623   0.00000  Uiso   1.00
N42    N     0.28539   0.57154   0.22221   0.00000  Uiso   1.00
N43    N     0.02636   0.46401   0.03950   0.00000  Uiso   1.00
N44    N     0.89735   0.21484   0.23278   0.00000  Uiso   1.00
N45    N     0.34145   0.45513   0.21875   0.00000  Uiso   1.00
N46    N     0.08242   0.34760   0.03604   0.00000  Uiso   1.00
C47    C     0.45396   0.03417   0.66628   0.00000  Uiso   1.00
C48    C     0.49670   0.09971   0.68471   0.00000  Uiso   1.00
C49    C     0.56385   0.08997   0.70214   0.00000  Uiso   1.00
C50    C     0.59397   0.15730   0.71729   0.00000  Uiso   1.00
C51    C     0.66575   0.24774   0.74626   0.00000  Uiso   1.00
C52    C     0.37430   0.03349   0.68085   0.00000  Uiso   1.00
C53    C     0.33854   0.96806   0.69503   0.00000  Uiso   1.00
C54    C     0.26562   0.97965   0.70693   0.00000  Uiso   1.00
C55    C     0.14736   0.96726   0.72989   0.00000  Uiso   1.00
C56    C     0.44570   0.06313   0.63050   0.00000  Uiso   1.00
C57    C     0.46996   0.02262   0.60233   0.00000  Uiso   1.00
C58    C     0.45713   0.05915   0.57184   0.00000  Uiso   1.00
C59    C     0.44974   0.09279   0.51661   0.00000  Uiso   1.00
C60    C     0.38803   0.17107   0.66221   0.00000  Uiso   1.00
C61    C     0.46088   0.17407   0.68250   0.00000  Uiso   1.00
C62    C     0.49091   0.24143   0.69764   0.00000  Uiso   1.00
C63    C     0.55810   0.23179   0.71508   0.00000  Uiso   1.00
C64    C     0.33849   0.10784   0.67864   0.00000  Uiso   1.00
C65    C     0.26560   0.11952   0.69053   0.00000  Uiso   1.00
C66    C     0.22974   0.05413   0.70472   0.00000  Uiso   1.00
C67    C     0.40989   0.13749   0.62829   0.00000  Uiso   1.00
C68    C     0.39702   0.17408   0.59783   0.00000  Uiso   1.00
C69    C     0.42126   0.13364   0.56963   0.00000  Uiso   1.00
H70    H     0.48183   0.97628   0.66800   0.00000  Uiso   1.00
H71    H     0.59154   0.03241   0.70384   0.00000  Uiso   1.00
H72    H     0.36627   0.91053   0.69673   0.00000  Uiso   1.00
H73    H     0.49767   0.96508   0.60405   0.00000  Uiso   1.00
H74    H     0.69737   0.12743   0.74261   0.00000  Uiso   1.00
H75    H     0.22235   0.87042   0.72761   0.00000  Uiso   1.00
H76    H     0.49943   0.98545   0.53218   0.00000  Uiso   1.00
H77    H     0.36015   0.22896   0.66049   0.00000  Uiso   1.00
H78    H     0.46318   0.29896   0.69592   0.00000  Uiso   1.00
H79    H     0.23790   0.17707   0.68881   0.00000  Uiso   1.00
H80    H     0.36930   0.23162   0.59613   0.00000  Uiso   1.00
H81    H     0.59318   0.34377   0.73619   0.00000  Uiso   1.00
H82    H     0.11816   0.08676   0.72118   0.00000  Uiso   1.00
H83    H     0.39525   0.20179   0.52575   0.00000  Uiso   1.00
O84    O     0.71523   0.27709   0.76285   0.00000  Uiso   1.00
O85    O     0.09203   0.93989   0.74316   0.00000  Uiso   1.00
O86    O     0.45556   0.09081   0.48676   0.00000  Uiso   1.00
N87    N     0.65871   0.16874   0.73623   0.00000  Uiso   1.00
N88    N     0.21461   0.92846   0.72221   0.00000  Uiso   1.00
N89    N     0.47364   0.03599   0.53950   0.00000  Uiso   1.00
N90    N     0.60265   0.28516   0.73278   0.00000  Uiso   1.00
N91    N     0.15855   0.04487   0.71875   0.00000  Uiso   1.00
N92    N     0.41758   0.15240   0.53604   0.00000  Uiso   1.00
C93    C     0.95396   0.46583   0.33372   0.00000  Uiso   1.00
C94    C     0.99670   0.40029   0.31529   0.00000  Uiso   1.00
C95    C     0.06385   0.41003   0.29786   0.00000  Uiso   1.00
C96    C     0.09397   0.34270   0.28271   0.00000  Uiso   1.00
C97    C     0.16575   0.25226   0.25374   0.00000  Uiso   1.00
C98    C     0.87430   0.46651   0.31915   0.00000  Uiso   1.00
C99    C     0.83854   0.53194   0.30497   0.00000  Uiso   1.00
C100   C     0.76562   0.52035   0.29307   0.00000  Uiso   1.00
C101   C     0.64736   0.53274   0.27011   0.00000  Uiso   1.00
C102   C     0.94570   0.43687   0.36950   0.00000  Uiso   1.00
C103   C     0.96996   0.47738   0.39767   0.00000  Uiso   1.00
C104   C     0.95713   0.44085   0.42816   0.00000  Uiso   1.00
C105   C     0.94974   0.40721   0.48339   0.00000  Uiso   1.00
C106   C     0.88803   0.32893   0.33779   0.00000  Uiso   1.00
C107   C     0.96088   0.32593   0.31750   0.00000  Uiso   1.00
C108   C     0.99091   0.25857   0.30236   0.00000  Uiso   1.00
C109   C     0.05810   0.26821   0.28492   0.00000  Uiso   1.00
C110   C     0.83849   0.39216   0.32136   0.00000  Uiso   1.00
C111   C     0.76560   0.38048   0.30947   0.00000  Uiso   1.00
C112   C     0.72974   0.44587   0.29528   0.00000  Uiso   1.00
C113   C     0.90989   0.36251   0.37171   0.00000  Uiso   1.00
C114   C     0.89702   0.32592   0.40217   0.00000  Uiso   1.00
C115   C     0.92126   0.36636   0.43037   0.00000  Uiso   1.00
H116   H     0.98183   0.52372   0.33200   0.00000  Uiso   1.00
H117   H     0.09154   0.46759   0.29616   0.00000  Uiso   1.00
H118   H     0.86627   0.58947   0.30327   0.00000  Uiso   1.00
H119   H     0.99767   0.53492   0.39595   0.00000  Uiso   1.00
H120   H     0.19737   0.37257   0.25739   0.00000  Uiso   1.00
H121   H     0.72235   0.62958   0.27239   0.00000  Uiso   1.00
H122   H     0.99943   0.51455   0.46782   0.00000  Uiso   1.00
H123   H     0.86015   0.27104   0.33951   0.00000  Uiso   1.00
H124   H     0.96318   0.20104   0.30408   0.00000  Uiso   1.00
H125   H     0.73790   0.32293   0.31119   0.00000  Uiso   1.00
H126   H     0.86930   0.26838   0.40387   0.00000  Uiso   1.00
H127   H     0.09318   0.15623   0.26381   0.00000  Uiso   1.00
H128   H     0.61816   0.41324   0.27882   0.00000  Uiso   1.00
H129   H     0.89525   0.29821   0.47425   0.00000  Uiso   1.00
O130   O     0.21523   0.22291   0.23715   0.00000  Uiso   1.00
O131   O     0.59203   0.56011   0.25684   0.00000  Uiso   1.00
O132   O     0.95556   0.40919   0.51324   0.00000  Uiso   1.00
N133   N     0.15871   0.33126   0.26377   0.00000  Uiso   1.00
N134   N     0.71461   0.57154   0.27779   0.00000  Uiso   1.00
N135   N     0.97364   0.46401   0.46050   0.00000  Uiso   1.00
N136   N     0.10265   0.21484   0.26722   0.00000  Uiso   1.00
N137   N     0.65855   0.45513   0.28125   0.00000  Uiso   1.00
N138   N     0.91758   0.34760   0.46396   0.00000  Uiso   1.00
C139   C     0.54604   0.03417   0.83372   0.00000  Uiso   1.00
C140   C     0.50330   0.09971   0.81529   0.00000  Uiso   1.00
C141   C     0.43615   0.08997   0.79786   0.00000  Uiso   1.00
C142   C     0.40603   0.15730   0.78271   0.00000  Uiso   1.00
C143   C     0.33425   0.24774   0.75374   0.00000  Uiso   1.00
C144   C     0.62570   0.03349   0.81915   0.00000  Uiso   1.00
C145   C     0.66146   0.96806   0.80497   0.00000  Uiso   1.00
C146   C     0.73438   0.97965   0.79307   0.00000  Uiso   1.00
C147   C     0.85264   0.96726   0.77011   0.00000  Uiso   1.00
C148   C     0.55430   0.06313   0.86950   0.00000  Uiso   1.00
C149   C     0.53004   0.02262   0.89767   0.00000  Uiso   1.00
C150   C     0.54287   0.05915   0.92816   0.00000  Uiso   1.00
C151   C     0.55026   0.09279   0.98339   0.00000  Uiso   1.00
C152   C     0.61197   0.17107   0.83779   0.00000  Uiso   1.00
C153   C     0.53912   0.17407   0.81750   0.00000  Uiso   1.00
C154   C     0.50909   0.24143   0.80236   0.00000  Uiso   1.00
C155   C     0.44190   0.23179   0.78492   0.00000  Uiso   1.00
C156   C     0.66151   0.10784   0.82136   0.00000  Uiso   1.00
C157   C     0.73440   0.11952   0.80947   0.00000  Uiso   1.00
C158   C     0.77026   0.05413   0.79528   0.00000  Uiso   1.00
C159   C     0.59011   0.13749   0.87171   0.00000  Uiso   1.00
C160   C     0.60298   0.17408   0.90217   0.00000  Uiso   1.00
C161   C     0.57874   0.13364   0.93037   0.00000  Uiso   1.00
H162   H     0.51817   0.97628   0.83200   0.00000  Uiso   1.00
H163   H     0.40846   0.03241   0.79616   0.00000  Uiso   1.00
H164   H     0.63373   0.91053   0.80327   0.00000  Uiso   1.00
H165   H     0.50233   0.96508   0.89595   0.00000  Uiso   1.00
H166   H     0.30263   0.12743   0.75739   0.00000  Uiso   1.00
H167   H     0.77765   0.87042   0.77239   0.00000  Uiso   1.00
H168   H     0.50057   0.98545   0.96782   0.00000  Uiso   1.00
H169   H     0.63985   0.22896   0.83951   0.00000  Uiso   1.00
H170   H     0.53682   0.29896   0.80408   0.00000  Uiso   1.00
H171   H     0.76210   0.17707   0.81119   0.00000  Uiso   1.00
H172   H     0.63070   0.23162   0.90387   0.00000  Uiso   1.00
H173   H     0.40682   0.34377   0.76381   0.00000  Uiso   1.00
H174   H     0.88184   0.08676   0.77882   0.00000  Uiso   1.00
H175   H     0.60475   0.20179   0.97425   0.00000  Uiso   1.00
O176   O     0.28477   0.27709   0.73715   0.00000  Uiso   1.00
O177   O     0.90797   0.93989   0.75684   0.00000  Uiso   1.00
O178   O     0.54444   0.09081   0.01324   0.00000  Uiso   1.00
N179   N     0.34129   0.16874   0.76377   0.00000  Uiso   1.00
N180   N     0.78539   0.92846   0.77779   0.00000  Uiso   1.00
N181   N     0.52636   0.03599   0.96050   0.00000  Uiso   1.00
N182   N     0.39735   0.28516   0.76722   0.00000  Uiso   1.00
N183   N     0.84145   0.04487   0.78125   0.00000  Uiso   1.00
N184   N     0.58242   0.15240   0.96396   0.00000  Uiso   1.00
C185   C     0.95396   0.53417   0.83372   0.00000  Uiso   1.00
C186   C     0.99670   0.59971   0.81529   0.00000  Uiso   1.00
C187   C     0.06385   0.58997   0.79786   0.00000  Uiso   1.00
C188   C     0.09397   0.65730   0.78271   0.00000  Uiso   1.00
C189   C     0.16575   0.74774   0.75374   0.00000  Uiso   1.00
C190   C     0.87430   0.53349   0.81915   0.00000  Uiso   1.00
C191   C     0.83854   0.46806   0.80497   0.00000  Uiso   1.00
C192   C     0.76562   0.47965   0.79307   0.00000  Uiso   1.00
C193   C     0.64736   0.46726   0.77011   0.00000  Uiso   1.00
C194   C     0.94570   0.56313   0.86950   0.00000  Uiso   1.00
C195   C     0.96996   0.52262   0.89767   0.00000  Uiso   1.00
C196   C     0.95713   0.55915   0.92816   0.00000  Uiso   1.00
C197   C     0.94974   0.59279   0.98339   0.00000  Uiso   1.00
C198   C     0.88803   0.67107   0.83779   0.00000  Uiso   1.00
C199   C     0.96088   0.67407   0.81750   0.00000  Uiso   1.00
C200   C     0.99091   0.74143   0.80236   0.00000  Uiso   1.00
C201   C     0.05810   0.73179   0.78492   0.00000  Uiso   1.00
C202   C     0.83849   0.60784   0.82136   0.00000  Uiso   1.00
C203   C     0.76560   0.61952   0.80947   0.00000  Uiso   1.00
C204   C     0.72974   0.55413   0.79528   0.00000  Uiso   1.00
C205   C     0.90989   0.63749   0.87171   0.00000  Uiso   1.00
C206   C     0.89702   0.67408   0.90217   0.00000  Uiso   1.00
C207   C     0.92126   0.63364   0.93037   0.00000  Uiso   1.00
H208   H     0.98183   0.47628   0.83200   0.00000  Uiso   1.00
H209   H     0.09154   0.53241   0.79616   0.00000  Uiso   1.00
H210   H     0.86627   0.41053   0.80327   0.00000  Uiso   1.00
H211   H     0.99767   0.46508   0.89595   0.00000  Uiso   1.00
H212   H     0.19737   0.62743   0.75739   0.00000  Uiso   1.00
H213   H     0.72235   0.37042   0.77239   0.00000  Uiso   1.00
H214   H     0.99943   0.48545   0.96782   0.00000  Uiso   1.00
H215   H     0.86015   0.72896   0.83951   0.00000  Uiso   1.00
H216   H     0.96318   0.79896   0.80408   0.00000  Uiso   1.00
H217   H     0.73790   0.67707   0.81119   0.00000  Uiso   1.00
H218   H     0.86930   0.73162   0.90387   0.00000  Uiso   1.00
H219   H     0.09318   0.84377   0.76381   0.00000  Uiso   1.00
H220   H     0.61816   0.58676   0.77882   0.00000  Uiso   1.00
H221   H     0.89525   0.70179   0.97425   0.00000  Uiso   1.00
O222   O     0.21523   0.77709   0.73715   0.00000  Uiso   1.00
O223   O     0.59203   0.43989   0.75684   0.00000  Uiso   1.00
O224   O     0.95556   0.59081   0.01324   0.00000  Uiso   1.00
N225   N     0.15871   0.66874   0.76377   0.00000  Uiso   1.00
N226   N     0.71461   0.42846   0.77779   0.00000  Uiso   1.00
N227   N     0.97364   0.53599   0.96050   0.00000  Uiso   1.00
N228   N     0.10265   0.78516   0.76722   0.00000  Uiso   1.00
N229   N     0.65855   0.54487   0.78125   0.00000  Uiso   1.00
N230   N     0.91758   0.65240   0.96396   0.00000  Uiso   1.00
C231   C     0.54604   0.96583   0.33372   0.00000  Uiso   1.00
C232   C     0.50330   0.90029   0.31529   0.00000  Uiso   1.00
C233   C     0.43615   0.91003   0.29786   0.00000  Uiso   1.00
C234   C     0.40603   0.84270   0.28271   0.00000  Uiso   1.00
C235   C     0.33425   0.75226   0.25374   0.00000  Uiso   1.00
C236   C     0.62570   0.96651   0.31915   0.00000  Uiso   1.00
C237   C     0.66146   0.03194   0.30497   0.00000  Uiso   1.00
C238   C     0.73438   0.02035   0.29307   0.00000  Uiso   1.00
C239   C     0.85264   0.03274   0.27011   0.00000  Uiso   1.00
C240   C     0.55430   0.93687   0.36950   0.00000  Uiso   1.00
C241   C     0.53004   0.97738   0.39767   0.00000  Uiso   1.00
C242   C     0.54287   0.94085   0.42816   0.00000  Uiso   1.00
C243   C     0.55026   0.90721   0.48339   0.00000  Uiso   1.00
C244   C     0.61197   0.82893   0.33779   0.00000  Uiso   1.00
C245   C     0.53912   0.82593   0.31750   0.00000  Uiso   1.00
C246   C     0.50909   0.75857   0.30236   0.00000  Uiso   1.00
C247   C     0.44190   0.76821   0.28492   0.00000  Uiso   1.00
C248   C     0.66151   0.89216   0.32136   0.00000  Uiso   1.00
C249   C     0.73440   0.88048   0.30947   0.00000  Uiso   1.00
C250   C     0.77026   0.94587   0.29528   0.00000  Uiso   1.00
C251   C     0.59011   0.86251   0.37171   0.00000  Uiso   1.00
C252   C     0.60298   0.82592   0.40217   0.00000  Uiso   1.00
C253   C     0.57874   0.86636   0.43037   0.00000  Uiso   1.00
H254   H     0.51817   0.02372   0.33200   0.00000  Uiso   1.00
H255   H     0.40846   0.96759   0.29616   0.00000  Uiso   1.00
H256   H     0.63373   0.08947   0.30327   0.00000  Uiso   1.00
H257   H     0.50233   0.03492   0.39595   0.00000  Uiso   1.00
H258   H     0.30263   0.87257   0.25739   0.00000  Uiso   1.00
H259   H     0.77765   0.12958   0.27239   0.00000  Uiso   1.00
H260   H     0.50057   0.01455   0.46782   0.00000  Uiso   1.00
H261   H     0.63985   0.77104   0.33951   0.00000  Uiso   1.00
H262   H     0.53682   0.70104   0.30408   0.00000  Uiso   1.00
H263   H     0.76210   0.82293   0.31119   0.00000  Uiso   1.00
H264   H     0.63070   0.76838   0.40387   0.00000  Uiso   1.00
H265   H     0.40682   0.65623   0.26381   0.00000  Uiso   1.00
H266   H     0.88184   0.91324   0.27882   0.00000  Uiso   1.00
H267   H     0.60475   0.79821   0.47425   0.00000  Uiso   1.00
O268   O     0.28477   0.72291   0.23715   0.00000  Uiso   1.00
O269   O     0.90797   0.06011   0.25684   0.00000  Uiso   1.00
O270   O     0.54444   0.90919   0.51324   0.00000  Uiso   1.00
N271   N     0.34129   0.83126   0.26377   0.00000  Uiso   1.00
N272   N     0.78539   0.07154   0.27779   0.00000  Uiso   1.00
N273   N     0.52636   0.96401   0.46050   0.00000  Uiso   1.00
N274   N     0.39735   0.71484   0.26722   0.00000  Uiso   1.00
N275   N     0.84145   0.95513   0.28125   0.00000  Uiso   1.00
N276   N     0.58242   0.84760   0.46396   0.00000  Uiso   1.00
C277   C     0.04604   0.53417   0.66628   0.00000  Uiso   1.00
C278   C     0.00330   0.59971   0.68471   0.00000  Uiso   1.00
C279   C     0.93615   0.58997   0.70214   0.00000  Uiso   1.00
C280   C     0.90603   0.65730   0.71729   0.00000  Uiso   1.00
C281   C     0.83425   0.74774   0.74626   0.00000  Uiso   1.00
C282   C     0.12570   0.53349   0.68085   0.00000  Uiso   1.00
C283   C     0.16146   0.46806   0.69503   0.00000  Uiso   1.00
C284   C     0.23438   0.47965   0.70693   0.00000  Uiso   1.00
C285   C     0.35264   0.46726   0.72989   0.00000  Uiso   1.00
C286   C     0.05430   0.56313   0.63050   0.00000  Uiso   1.00
C287   C     0.03004   0.52262   0.60233   0.00000  Uiso   1.00
C288   C     0.04287   0.55915   0.57184   0.00000  Uiso   1.00
C289   C     0.05026   0.59279   0.51661   0.00000  Uiso   1.00
C290   C     0.11197   0.67107   0.66221   0.00000  Uiso   1.00
C291   C     0.03912   0.67407   0.68250   0.00000  Uiso   1.00
C292   C     0.00909   0.74143   0.69764   0.00000  Uiso   1.00
C293   C     0.94190   0.73179   0.71508   0.00000  Uiso   1.00
C294   C     0.16151   0.60784   0.67864   0.00000  Uiso   1.00
C295   C     0.23440   0.61952   0.69053   0.00000  Uiso   1.00
C296   C     0.27026   0.55413   0.70472   0.00000  Uiso   1.00
C297   C     0.09011   0.63749   0.62829   0.00000  Uiso   1.00
C298   C     0.10298   0.67408   0.59783   0.00000  Uiso   1.00
C299   C     0.07874   0.63364   0.56963   0.00000  Uiso   1.00
H300   H     0.01817   0.47628   0.66800   0.00000  Uiso   1.00
H301   H     0.90846   0.53241   0.70384   0.00000  Uiso   1.00
H302   H     0.13373   0.41053   0.69673   0.00000  Uiso   1.00
H303   H     0.00233   0.46508   0.60405   0.00000  Uiso   1.00
H304   H     0.80263   0.62743   0.74261   0.00000  Uiso   1.00
H305   H     0.27765   0.37042   0.72761   0.00000  Uiso   1.00
H306   H     0.00057   0.48545   0.53218   0.00000  Uiso   1.00
H307   H     0.13985   0.72896   0.66049   0.00000  Uiso   1.00
H308   H     0.03682   0.79896   0.69592   0.00000  Uiso   1.00
H309   H     0.26210   0.67707   0.68881   0.00000  Uiso   1.00
H310   H     0.13070   0.73162   0.59613   0.00000  Uiso   1.00
H311   H     0.90682   0.84377   0.73619   0.00000  Uiso   1.00
H312   H     0.38184   0.58676   0.72118   0.00000  Uiso   1.00
H313   H     0.10475   0.70179   0.52575   0.00000  Uiso   1.00
O314   O     0.78477   0.77709   0.76285   0.00000  Uiso   1.00
O315   O     0.40797   0.43989   0.74316   0.00000  Uiso   1.00
O316   O     0.04444   0.59081   0.48676   0.00000  Uiso   1.00
N317   N     0.84129   0.66874   0.73623   0.00000  Uiso   1.00
N318   N     0.28539   0.42846   0.72221   0.00000  Uiso   1.00
N319   N     0.02636   0.53599   0.53950   0.00000  Uiso   1.00
N320   N     0.89735   0.78516   0.73278   0.00000  Uiso   1.00
N321   N     0.34145   0.54487   0.71875   0.00000  Uiso   1.00
N322   N     0.08242   0.65240   0.53604   0.00000  Uiso   1.00
C323   C     0.45396   0.96583   0.16628   0.00000  Uiso   1.00
C324   C     0.49670   0.90029   0.18471   0.00000  Uiso   1.00
C325   C     0.56385   0.91003   0.20214   0.00000  Uiso   1.00
C326   C     0.59397   0.84270   0.21729   0.00000  Uiso   1.00
C327   C     0.66575   0.75226   0.24626   0.00000  Uiso   1.00
C328   C     0.37430   0.96651   0.18085   0.00000  Uiso   1.00
C329   C     0.33854   0.03194   0.19503   0.00000  Uiso   1.00
C330   C     0.26562   0.02035   0.20693   0.00000  Uiso   1.00
C331   C     0.14736   0.03274   0.22989   0.00000  Uiso   1.00
C332   C     0.44570   0.93687   0.13050   0.00000  Uiso   1.00
C333   C     0.46996   0.97738   0.10233   0.00000  Uiso   1.00
C334   C     0.45713   0.94085   0.07184   0.00000  Uiso   1.00
C335   C     0.44974   0.90721   0.01661   0.00000  Uiso   1.00
C336   C     0.38803   0.82893   0.16221   0.00000  Uiso   1.00
C337   C     0.46088   0.82593   0.18250   0.00000  Uiso   1.00
C338   C     0.49091   0.75857   0.19764   0.00000  Uiso   1.00
C339   C     0.55810   0.76821   0.21508   0.00000  Uiso   1.00
C340   C     0.33849   0.89216   0.17864   0.00000  Uiso   1.00
C341   C     0.26560   0.88048   0.19053   0.00000  Uiso   1.00
C342   C     0.22974   0.94587   0.20472   0.00000  Uiso   1.00
C343   C     0.40989   0.86251   0.12829   0.00000  Uiso   1.00
C344   C     0.39702   0.82592   0.09783   0.00000  Uiso   1.00
C345   C     0.42126   0.86636   0.06963   0.00000  Uiso   1.00
H346   H     0.48183   0.02372   0.16800   0.00000  Uiso   1.00
H347   H     0.59154   0.96759   0.20384   0.00000  Uiso   1.00
H348   H     0.36627   0.08947   0.19673   0.00000  Uiso   1.00
H349   H     0.49767   0.03492   0.10405   0.00000  Uiso   1.00
H350   H     0.69737   0.87257   0.24261   0.00000  Uiso   1.00
H351   H     0.22235   0.12958   0.22761   0.00000  Uiso   1.00
H352   H     0.49943   0.01455   0.03218   0.00000  Uiso   1.00
H353   H     0.36015   0.77104   0.16049   0.00000  Uiso   1.00
H354   H     0.46318   0.70104   0.19592   0.00000  Uiso   1.00
H355   H     0.23790   0.82293   0.18881   0.00000  Uiso   1.00
H356   H     0.36930   0.76838   0.09613   0.00000  Uiso   1.00
H357   H     0.59318   0.65623   0.23619   0.00000  Uiso   1.00
H358   H     0.11816   0.91324   0.22118   0.00000  Uiso   1.00
H359   H     0.39525   0.79821   0.02575   0.00000  Uiso   1.00
O360   O     0.71523   0.72291   0.26285   0.00000  Uiso   1.00
O361   O     0.09203   0.06011   0.24316   0.00000  Uiso   1.00
O362   O     0.45556   0.90919   0.98676   0.00000  Uiso   1.00
N363   N     0.65871   0.83126   0.23623   0.00000  Uiso   1.00
N364   N     0.21461   0.07154   0.22221   0.00000  Uiso   1.00
N365   N     0.47364   0.96401   0.03950   0.00000  Uiso   1.00
N366   N     0.60265   0.71484   0.23278   0.00000  Uiso   1.00
N367   N     0.15855   0.95513   0.21875   0.00000  Uiso   1.00
N368   N     0.41758   0.84760   0.03604   0.00000  Uiso   1.00
