data_job_05773
_audit_creation_date              2018-12-19
_audit_creation_method            'Materials Studio'
_symmetry_space_group_name_H-M    'P1'
_symmetry_Int_Tables_number       1
_symmetry_cell_setting            triclinic
loop_
_symmetry_equiv_pos_as_xyz
  x,y,z
_cell_length_a                    26.6476
_cell_length_b                    11.7075
_cell_length_c                    18.6136
_cell_angle_alpha                 90.0000
_cell_angle_beta                  90.0000
_cell_angle_gamma                 90.0000
loop_
_atom_site_label
_atom_site_type_symbol
_atom_site_fract_x
_atom_site_fract_y
_atom_site_fract_z
_atom_site_U_iso_or_equiv
_atom_site_adp_type
_atom_site_occupancy
C1     C     0.14554   0.28124   0.07388   0.00000  Uiso   1.00
C2     C     0.12663   0.34636   0.00829   0.00000  Uiso   1.00
C3     C     0.15235   0.43226   0.97245   0.00000  Uiso   1.00
C4     C     0.12863   0.48125   0.91362   0.00000  Uiso   1.00
C5     C     0.10652   0.58784   0.81517   0.00000  Uiso   1.00
C6     C     0.10576   0.29719   0.13191   0.00000  Uiso   1.00
C7     C     0.11392   0.34174   0.20001   0.00000  Uiso   1.00
C8     C     0.07262   0.34933   0.24525   0.00000  Uiso   1.00
C9     C     0.01811   0.37949   0.33873   0.00000  Uiso   1.00
C10    C     0.14402   0.15513   0.05352   0.00000  Uiso   1.00
C11    C     0.18436   0.08022   0.05573   0.00000  Uiso   1.00
C12    C     0.17528   0.96819   0.03498   0.00000  Uiso   1.00
C13    C     0.18018   0.77779   0.00675   0.00000  Uiso   1.00
C14    C     0.05769   0.21549   0.03313   0.00000  Uiso   1.00
C15    C     0.07892   0.31064   0.98616   0.00000  Uiso   1.00
C16    C     0.05515   0.35952   0.92737   0.00000  Uiso   1.00
C17    C     0.08083   0.44548   0.89145   0.00000  Uiso   1.00
C18    C     0.05804   0.26148   0.10978   0.00000  Uiso   1.00
C19    C     0.01673   0.26899   0.15492   0.00000  Uiso   1.00
C20    C     0.02482   0.31355   0.22307   0.00000  Uiso   1.00
C21    C     0.09631   0.11941   0.03138   0.00000  Uiso   1.00
C22    C     0.08717   0.00748   0.01064   0.00000  Uiso   1.00
C23    C     0.12748   0.93241   0.01281   0.00000  Uiso   1.00
H24    H     0.18268   0.30904   0.09112   0.00000  Uiso   1.00
H25    H     0.18927   0.45988   0.98960   0.00000  Uiso   1.00
H26    H     0.15085   0.36936   0.21713   0.00000  Uiso   1.00
H27    H     0.22128   0.10788   0.07286   0.00000  Uiso   1.00
H28    H     0.17552   0.61139   0.86731   0.00000  Uiso   1.00
H29    H     0.09451   0.42048   0.34706   0.00000  Uiso   1.00
H30    H     0.24302   0.86911   0.04285   0.00000  Uiso   1.00
H31    H     0.02054   0.18769   0.01590   0.00000  Uiso   1.00
H32    H     0.01823   0.33186   0.91025   0.00000  Uiso   1.00
H33    H     0.97981   0.24134   0.13778   0.00000  Uiso   1.00
H34    H     0.05024   0.97987   0.99351   0.00000  Uiso   1.00
H35    H     0.03670   0.50749   0.80291   0.00000  Uiso   1.00
H36    H     0.95568   0.31658   0.28267   0.00000  Uiso   1.00
H37    H     0.10420   0.76521   0.97845   0.00000  Uiso   1.00
O38    O     0.10751   0.65650   0.76699   0.00000  Uiso   1.00
O39    O     0.00122   0.40601   0.39641   0.00000  Uiso   1.00
O40    O     0.19607   0.68263   0.99729   0.00000  Uiso   1.00
N41    N     0.14317   0.56713   0.86664   0.00000  Uiso   1.00
N42    N     0.06742   0.38866   0.31518   0.00000  Uiso   1.00
N43    N     0.20627   0.87317   0.03079   0.00000  Uiso   1.00
N44    N     0.06847   0.51123   0.83199   0.00000  Uiso   1.00
N45    N     0.99273   0.33276   0.28053   0.00000  Uiso   1.00
N46    N     0.13157   0.81726   0.99613   0.00000  Uiso   1.00
C47    C     0.35446   0.21876   0.07388   0.00000  Uiso   1.00
C48    C     0.37337   0.15364   0.00829   0.00000  Uiso   1.00
C49    C     0.34765   0.06774   0.97245   0.00000  Uiso   1.00
C50    C     0.37137   0.01875   0.91362   0.00000  Uiso   1.00
C51    C     0.39348   0.91216   0.81517   0.00000  Uiso   1.00
C52    C     0.39424   0.20281   0.13191   0.00000  Uiso   1.00
C53    C     0.38608   0.15826   0.20001   0.00000  Uiso   1.00
C54    C     0.42738   0.15067   0.24525   0.00000  Uiso   1.00
C55    C     0.48189   0.12051   0.33873   0.00000  Uiso   1.00
C56    C     0.35598   0.34487   0.05352   0.00000  Uiso   1.00
C57    C     0.31564   0.41978   0.05573   0.00000  Uiso   1.00
C58    C     0.32472   0.53181   0.03498   0.00000  Uiso   1.00
C59    C     0.31982   0.72221   0.00675   0.00000  Uiso   1.00
C60    C     0.44231   0.28451   0.03313   0.00000  Uiso   1.00
C61    C     0.42108   0.18936   0.98616   0.00000  Uiso   1.00
C62    C     0.44485   0.14048   0.92737   0.00000  Uiso   1.00
C63    C     0.41917   0.05452   0.89145   0.00000  Uiso   1.00
C64    C     0.44196   0.23852   0.10978   0.00000  Uiso   1.00
C65    C     0.48327   0.23101   0.15492   0.00000  Uiso   1.00
C66    C     0.47518   0.18645   0.22307   0.00000  Uiso   1.00
C67    C     0.40369   0.38059   0.03138   0.00000  Uiso   1.00
C68    C     0.41283   0.49252   0.01064   0.00000  Uiso   1.00
C69    C     0.37252   0.56759   0.01281   0.00000  Uiso   1.00
H70    H     0.31732   0.19096   0.09112   0.00000  Uiso   1.00
H71    H     0.31073   0.04012   0.98960   0.00000  Uiso   1.00
H72    H     0.34915   0.13064   0.21713   0.00000  Uiso   1.00
H73    H     0.27872   0.39212   0.07286   0.00000  Uiso   1.00
H74    H     0.32448   0.88861   0.86731   0.00000  Uiso   1.00
H75    H     0.40549   0.07952   0.34706   0.00000  Uiso   1.00
H76    H     0.25698   0.63089   0.04285   0.00000  Uiso   1.00
H77    H     0.47946   0.31231   0.01590   0.00000  Uiso   1.00
H78    H     0.48177   0.16814   0.91025   0.00000  Uiso   1.00
H79    H     0.52019   0.25866   0.13778   0.00000  Uiso   1.00
H80    H     0.44976   0.52013   0.99351   0.00000  Uiso   1.00
H81    H     0.46330   0.99251   0.80291   0.00000  Uiso   1.00
H82    H     0.54432   0.18342   0.28267   0.00000  Uiso   1.00
H83    H     0.39580   0.73479   0.97845   0.00000  Uiso   1.00
O84    O     0.39249   0.84350   0.76699   0.00000  Uiso   1.00
O85    O     0.49878   0.09399   0.39641   0.00000  Uiso   1.00
O86    O     0.30393   0.81737   0.99729   0.00000  Uiso   1.00
N87    N     0.35683   0.93287   0.86664   0.00000  Uiso   1.00
N88    N     0.43258   0.11134   0.31518   0.00000  Uiso   1.00
N89    N     0.29373   0.62683   0.03079   0.00000  Uiso   1.00
N90    N     0.43153   0.98877   0.83199   0.00000  Uiso   1.00
N91    N     0.50727   0.16724   0.28053   0.00000  Uiso   1.00
N92    N     0.36843   0.68274   0.99613   0.00000  Uiso   1.00
C93    C     0.85446   0.78124   0.42612   0.00000  Uiso   1.00
C94    C     0.87337   0.84636   0.49171   0.00000  Uiso   1.00
C95    C     0.84765   0.93226   0.52755   0.00000  Uiso   1.00
C96    C     0.87137   0.98125   0.58638   0.00000  Uiso   1.00
C97    C     0.89348   0.08784   0.68483   0.00000  Uiso   1.00
C98    C     0.89424   0.79719   0.36809   0.00000  Uiso   1.00
C99    C     0.88608   0.84174   0.29999   0.00000  Uiso   1.00
C100   C     0.92738   0.84933   0.25475   0.00000  Uiso   1.00
C101   C     0.98189   0.87949   0.16127   0.00000  Uiso   1.00
C102   C     0.85598   0.65513   0.44648   0.00000  Uiso   1.00
C103   C     0.81564   0.58022   0.44427   0.00000  Uiso   1.00
C104   C     0.82472   0.46819   0.46502   0.00000  Uiso   1.00
C105   C     0.81982   0.27779   0.49325   0.00000  Uiso   1.00
C106   C     0.94231   0.71549   0.46687   0.00000  Uiso   1.00
C107   C     0.92108   0.81064   0.51384   0.00000  Uiso   1.00
C108   C     0.94485   0.85952   0.57263   0.00000  Uiso   1.00
C109   C     0.91917   0.94548   0.60855   0.00000  Uiso   1.00
C110   C     0.94196   0.76148   0.39022   0.00000  Uiso   1.00
C111   C     0.98327   0.76899   0.34508   0.00000  Uiso   1.00
C112   C     0.97518   0.81355   0.27693   0.00000  Uiso   1.00
C113   C     0.90369   0.61941   0.46862   0.00000  Uiso   1.00
C114   C     0.91283   0.50748   0.48936   0.00000  Uiso   1.00
C115   C     0.87252   0.43241   0.48719   0.00000  Uiso   1.00
H116   H     0.81732   0.80904   0.40888   0.00000  Uiso   1.00
H117   H     0.81073   0.95988   0.51040   0.00000  Uiso   1.00
H118   H     0.84915   0.86936   0.28287   0.00000  Uiso   1.00
H119   H     0.77872   0.60788   0.42714   0.00000  Uiso   1.00
H120   H     0.82448   0.11139   0.63269   0.00000  Uiso   1.00
H121   H     0.90549   0.92048   0.15294   0.00000  Uiso   1.00
H122   H     0.75698   0.36911   0.45715   0.00000  Uiso   1.00
H123   H     0.97946   0.68769   0.48410   0.00000  Uiso   1.00
H124   H     0.98177   0.83186   0.58975   0.00000  Uiso   1.00
H125   H     0.02019   0.74134   0.36222   0.00000  Uiso   1.00
H126   H     0.94976   0.47987   0.50649   0.00000  Uiso   1.00
H127   H     0.96330   0.00749   0.69709   0.00000  Uiso   1.00
H128   H     0.04432   0.81658   0.21733   0.00000  Uiso   1.00
H129   H     0.89580   0.26521   0.52155   0.00000  Uiso   1.00
O130   O     0.89249   0.15650   0.73301   0.00000  Uiso   1.00
O131   O     0.99878   0.90601   0.10359   0.00000  Uiso   1.00
O132   O     0.80393   0.18263   0.50271   0.00000  Uiso   1.00
N133   N     0.85683   0.06713   0.63336   0.00000  Uiso   1.00
N134   N     0.93258   0.88866   0.18482   0.00000  Uiso   1.00
N135   N     0.79373   0.37317   0.46921   0.00000  Uiso   1.00
N136   N     0.93153   0.01123   0.66801   0.00000  Uiso   1.00
N137   N     0.00727   0.83276   0.21947   0.00000  Uiso   1.00
N138   N     0.86843   0.31726   0.50387   0.00000  Uiso   1.00
C139   C     0.64554   0.71876   0.42612   0.00000  Uiso   1.00
C140   C     0.62663   0.65364   0.49171   0.00000  Uiso   1.00
C141   C     0.65235   0.56774   0.52755   0.00000  Uiso   1.00
C142   C     0.62863   0.51875   0.58638   0.00000  Uiso   1.00
C143   C     0.60652   0.41216   0.68483   0.00000  Uiso   1.00
C144   C     0.60576   0.70281   0.36809   0.00000  Uiso   1.00
C145   C     0.61392   0.65826   0.29999   0.00000  Uiso   1.00
C146   C     0.57262   0.65067   0.25475   0.00000  Uiso   1.00
C147   C     0.51811   0.62051   0.16127   0.00000  Uiso   1.00
C148   C     0.64402   0.84487   0.44648   0.00000  Uiso   1.00
C149   C     0.68436   0.91978   0.44427   0.00000  Uiso   1.00
C150   C     0.67528   0.03181   0.46502   0.00000  Uiso   1.00
C151   C     0.68018   0.22221   0.49325   0.00000  Uiso   1.00
C152   C     0.55769   0.78451   0.46687   0.00000  Uiso   1.00
C153   C     0.57892   0.68936   0.51384   0.00000  Uiso   1.00
C154   C     0.55515   0.64048   0.57263   0.00000  Uiso   1.00
C155   C     0.58083   0.55452   0.60855   0.00000  Uiso   1.00
C156   C     0.55804   0.73852   0.39022   0.00000  Uiso   1.00
C157   C     0.51673   0.73101   0.34508   0.00000  Uiso   1.00
C158   C     0.52482   0.68645   0.27693   0.00000  Uiso   1.00
C159   C     0.59631   0.88059   0.46862   0.00000  Uiso   1.00
C160   C     0.58717   0.99252   0.48936   0.00000  Uiso   1.00
C161   C     0.62748   0.06759   0.48719   0.00000  Uiso   1.00
H162   H     0.68268   0.69096   0.40888   0.00000  Uiso   1.00
H163   H     0.68927   0.54012   0.51040   0.00000  Uiso   1.00
H164   H     0.65085   0.63064   0.28287   0.00000  Uiso   1.00
H165   H     0.72128   0.89212   0.42714   0.00000  Uiso   1.00
H166   H     0.67552   0.38861   0.63269   0.00000  Uiso   1.00
H167   H     0.59451   0.57952   0.15294   0.00000  Uiso   1.00
H168   H     0.74302   0.13089   0.45715   0.00000  Uiso   1.00
H169   H     0.52054   0.81231   0.48410   0.00000  Uiso   1.00
H170   H     0.51823   0.66814   0.58975   0.00000  Uiso   1.00
H171   H     0.47981   0.75866   0.36222   0.00000  Uiso   1.00
H172   H     0.55024   0.02013   0.50649   0.00000  Uiso   1.00
H173   H     0.53670   0.49251   0.69709   0.00000  Uiso   1.00
H174   H     0.45568   0.68342   0.21733   0.00000  Uiso   1.00
H175   H     0.60420   0.23479   0.52155   0.00000  Uiso   1.00
O176   O     0.60751   0.34350   0.73301   0.00000  Uiso   1.00
O177   O     0.50122   0.59399   0.10359   0.00000  Uiso   1.00
O178   O     0.69607   0.31737   0.50271   0.00000  Uiso   1.00
N179   N     0.64317   0.43287   0.63336   0.00000  Uiso   1.00
N180   N     0.56742   0.61134   0.18482   0.00000  Uiso   1.00
N181   N     0.70627   0.12683   0.46921   0.00000  Uiso   1.00
N182   N     0.56847   0.48877   0.66801   0.00000  Uiso   1.00
N183   N     0.49273   0.66724   0.21947   0.00000  Uiso   1.00
N184   N     0.63157   0.18274   0.50387   0.00000  Uiso   1.00
C185   C     0.85446   0.71876   0.92612   0.00000  Uiso   1.00
C186   C     0.87337   0.65364   0.99171   0.00000  Uiso   1.00
C187   C     0.84765   0.56774   0.02755   0.00000  Uiso   1.00
C188   C     0.87137   0.51875   0.08638   0.00000  Uiso   1.00
C189   C     0.89348   0.41216   0.18483   0.00000  Uiso   1.00
C190   C     0.89424   0.70281   0.86809   0.00000  Uiso   1.00
C191   C     0.88608   0.65826   0.79999   0.00000  Uiso   1.00
C192   C     0.92738   0.65067   0.75475   0.00000  Uiso   1.00
C193   C     0.98189   0.62051   0.66127   0.00000  Uiso   1.00
C194   C     0.85598   0.84487   0.94648   0.00000  Uiso   1.00
C195   C     0.81564   0.91978   0.94427   0.00000  Uiso   1.00
C196   C     0.82472   0.03181   0.96502   0.00000  Uiso   1.00
C197   C     0.81982   0.22221   0.99325   0.00000  Uiso   1.00
C198   C     0.94231   0.78451   0.96687   0.00000  Uiso   1.00
C199   C     0.92108   0.68936   0.01384   0.00000  Uiso   1.00
C200   C     0.94485   0.64048   0.07263   0.00000  Uiso   1.00
C201   C     0.91917   0.55452   0.10855   0.00000  Uiso   1.00
C202   C     0.94196   0.73852   0.89022   0.00000  Uiso   1.00
C203   C     0.98327   0.73101   0.84508   0.00000  Uiso   1.00
C204   C     0.97518   0.68645   0.77693   0.00000  Uiso   1.00
C205   C     0.90369   0.88059   0.96862   0.00000  Uiso   1.00
C206   C     0.91283   0.99252   0.98936   0.00000  Uiso   1.00
C207   C     0.87252   0.06759   0.98719   0.00000  Uiso   1.00
H208   H     0.81732   0.69096   0.90888   0.00000  Uiso   1.00
H209   H     0.81073   0.54012   0.01040   0.00000  Uiso   1.00
H210   H     0.84915   0.63064   0.78287   0.00000  Uiso   1.00
H211   H     0.77872   0.89212   0.92714   0.00000  Uiso   1.00
H212   H     0.82448   0.38861   0.13269   0.00000  Uiso   1.00
H213   H     0.90549   0.57952   0.65294   0.00000  Uiso   1.00
H214   H     0.75698   0.13089   0.95715   0.00000  Uiso   1.00
H215   H     0.97946   0.81231   0.98410   0.00000  Uiso   1.00
H216   H     0.98177   0.66814   0.08975   0.00000  Uiso   1.00
H217   H     0.02019   0.75866   0.86222   0.00000  Uiso   1.00
H218   H     0.94976   0.02013   0.00649   0.00000  Uiso   1.00
H219   H     0.96330   0.49251   0.19709   0.00000  Uiso   1.00
H220   H     0.04432   0.68342   0.71733   0.00000  Uiso   1.00
H221   H     0.89580   0.23479   0.02155   0.00000  Uiso   1.00
O222   O     0.89249   0.34350   0.23301   0.00000  Uiso   1.00
O223   O     0.99878   0.59399   0.60359   0.00000  Uiso   1.00
O224   O     0.80393   0.31737   0.00271   0.00000  Uiso   1.00
N225   N     0.85683   0.43287   0.13336   0.00000  Uiso   1.00
N226   N     0.93258   0.61134   0.68482   0.00000  Uiso   1.00
N227   N     0.79373   0.12683   0.96921   0.00000  Uiso   1.00
N228   N     0.93153   0.48877   0.16801   0.00000  Uiso   1.00
N229   N     0.00727   0.66724   0.71947   0.00000  Uiso   1.00
N230   N     0.86843   0.18274   0.00387   0.00000  Uiso   1.00
C231   C     0.64554   0.78124   0.92612   0.00000  Uiso   1.00
C232   C     0.62663   0.84636   0.99171   0.00000  Uiso   1.00
C233   C     0.65235   0.93226   0.02755   0.00000  Uiso   1.00
C234   C     0.62863   0.98125   0.08638   0.00000  Uiso   1.00
C235   C     0.60652   0.08784   0.18483   0.00000  Uiso   1.00
C236   C     0.60576   0.79719   0.86809   0.00000  Uiso   1.00
C237   C     0.61392   0.84174   0.79999   0.00000  Uiso   1.00
C238   C     0.57262   0.84933   0.75475   0.00000  Uiso   1.00
C239   C     0.51811   0.87949   0.66127   0.00000  Uiso   1.00
C240   C     0.64402   0.65513   0.94648   0.00000  Uiso   1.00
C241   C     0.68436   0.58022   0.94427   0.00000  Uiso   1.00
C242   C     0.67528   0.46819   0.96502   0.00000  Uiso   1.00
C243   C     0.68018   0.27779   0.99325   0.00000  Uiso   1.00
C244   C     0.55769   0.71549   0.96687   0.00000  Uiso   1.00
C245   C     0.57892   0.81064   0.01384   0.00000  Uiso   1.00
C246   C     0.55515   0.85952   0.07263   0.00000  Uiso   1.00
C247   C     0.58083   0.94548   0.10855   0.00000  Uiso   1.00
C248   C     0.55804   0.76148   0.89022   0.00000  Uiso   1.00
C249   C     0.51673   0.76899   0.84508   0.00000  Uiso   1.00
C250   C     0.52482   0.81355   0.77693   0.00000  Uiso   1.00
C251   C     0.59631   0.61941   0.96862   0.00000  Uiso   1.00
C252   C     0.58717   0.50748   0.98936   0.00000  Uiso   1.00
C253   C     0.62748   0.43241   0.98719   0.00000  Uiso   1.00
H254   H     0.68268   0.80904   0.90888   0.00000  Uiso   1.00
H255   H     0.68927   0.95988   0.01040   0.00000  Uiso   1.00
H256   H     0.65085   0.86936   0.78287   0.00000  Uiso   1.00
H257   H     0.72128   0.60788   0.92714   0.00000  Uiso   1.00
H258   H     0.67552   0.11139   0.13269   0.00000  Uiso   1.00
H259   H     0.59451   0.92048   0.65294   0.00000  Uiso   1.00
H260   H     0.74302   0.36911   0.95715   0.00000  Uiso   1.00
H261   H     0.52054   0.68769   0.98410   0.00000  Uiso   1.00
H262   H     0.51823   0.83186   0.08975   0.00000  Uiso   1.00
H263   H     0.47981   0.74134   0.86222   0.00000  Uiso   1.00
H264   H     0.55024   0.47987   0.00649   0.00000  Uiso   1.00
H265   H     0.53670   0.00749   0.19709   0.00000  Uiso   1.00
H266   H     0.45568   0.81658   0.71733   0.00000  Uiso   1.00
H267   H     0.60420   0.26521   0.02155   0.00000  Uiso   1.00
O268   O     0.60751   0.15650   0.23301   0.00000  Uiso   1.00
O269   O     0.50122   0.90601   0.60359   0.00000  Uiso   1.00
O270   O     0.69607   0.18263   0.00271   0.00000  Uiso   1.00
N271   N     0.64317   0.06713   0.13336   0.00000  Uiso   1.00
N272   N     0.56742   0.88866   0.68482   0.00000  Uiso   1.00
N273   N     0.70627   0.37317   0.96921   0.00000  Uiso   1.00
N274   N     0.56847   0.01123   0.16801   0.00000  Uiso   1.00
N275   N     0.49273   0.83276   0.71947   0.00000  Uiso   1.00
N276   N     0.63157   0.31726   0.00387   0.00000  Uiso   1.00
C277   C     0.14554   0.21876   0.57388   0.00000  Uiso   1.00
C278   C     0.12663   0.15364   0.50829   0.00000  Uiso   1.00
C279   C     0.15235   0.06774   0.47245   0.00000  Uiso   1.00
C280   C     0.12863   0.01875   0.41362   0.00000  Uiso   1.00
C281   C     0.10652   0.91216   0.31517   0.00000  Uiso   1.00
C282   C     0.10576   0.20281   0.63191   0.00000  Uiso   1.00
C283   C     0.11392   0.15826   0.70001   0.00000  Uiso   1.00
C284   C     0.07262   0.15067   0.74525   0.00000  Uiso   1.00
C285   C     0.01811   0.12051   0.83873   0.00000  Uiso   1.00
C286   C     0.14402   0.34487   0.55352   0.00000  Uiso   1.00
C287   C     0.18436   0.41978   0.55573   0.00000  Uiso   1.00
C288   C     0.17528   0.53181   0.53498   0.00000  Uiso   1.00
C289   C     0.18018   0.72221   0.50675   0.00000  Uiso   1.00
C290   C     0.05769   0.28451   0.53313   0.00000  Uiso   1.00
C291   C     0.07892   0.18936   0.48616   0.00000  Uiso   1.00
C292   C     0.05515   0.14048   0.42737   0.00000  Uiso   1.00
C293   C     0.08083   0.05452   0.39145   0.00000  Uiso   1.00
C294   C     0.05804   0.23852   0.60978   0.00000  Uiso   1.00
C295   C     0.01673   0.23101   0.65492   0.00000  Uiso   1.00
C296   C     0.02482   0.18645   0.72307   0.00000  Uiso   1.00
C297   C     0.09631   0.38059   0.53138   0.00000  Uiso   1.00
C298   C     0.08717   0.49252   0.51064   0.00000  Uiso   1.00
C299   C     0.12748   0.56759   0.51281   0.00000  Uiso   1.00
H300   H     0.18268   0.19096   0.59112   0.00000  Uiso   1.00
H301   H     0.18927   0.04012   0.48960   0.00000  Uiso   1.00
H302   H     0.15085   0.13064   0.71713   0.00000  Uiso   1.00
H303   H     0.22128   0.39212   0.57286   0.00000  Uiso   1.00
H304   H     0.17552   0.88861   0.36731   0.00000  Uiso   1.00
H305   H     0.09451   0.07952   0.84706   0.00000  Uiso   1.00
H306   H     0.24302   0.63089   0.54285   0.00000  Uiso   1.00
H307   H     0.02054   0.31231   0.51590   0.00000  Uiso   1.00
H308   H     0.01823   0.16814   0.41025   0.00000  Uiso   1.00
H309   H     0.97981   0.25866   0.63778   0.00000  Uiso   1.00
H310   H     0.05024   0.52013   0.49351   0.00000  Uiso   1.00
H311   H     0.03670   0.99251   0.30291   0.00000  Uiso   1.00
H312   H     0.95568   0.18342   0.78267   0.00000  Uiso   1.00
H313   H     0.10420   0.73479   0.47845   0.00000  Uiso   1.00
O314   O     0.10751   0.84350   0.26699   0.00000  Uiso   1.00
O315   O     0.00122   0.09399   0.89641   0.00000  Uiso   1.00
O316   O     0.19607   0.81737   0.49729   0.00000  Uiso   1.00
N317   N     0.14317   0.93287   0.36664   0.00000  Uiso   1.00
N318   N     0.06742   0.11134   0.81518   0.00000  Uiso   1.00
N319   N     0.20627   0.62683   0.53079   0.00000  Uiso   1.00
N320   N     0.06847   0.98877   0.33199   0.00000  Uiso   1.00
N321   N     0.99273   0.16724   0.78053   0.00000  Uiso   1.00
N322   N     0.13157   0.68274   0.49613   0.00000  Uiso   1.00
C323   C     0.35446   0.28124   0.57388   0.00000  Uiso   1.00
C324   C     0.37337   0.34636   0.50829   0.00000  Uiso   1.00
C325   C     0.34765   0.43226   0.47245   0.00000  Uiso   1.00
C326   C     0.37137   0.48125   0.41362   0.00000  Uiso   1.00
C327   C     0.39348   0.58784   0.31517   0.00000  Uiso   1.00
C328   C     0.39424   0.29719   0.63191   0.00000  Uiso   1.00
C329   C     0.38608   0.34174   0.70001   0.00000  Uiso   1.00
C330   C     0.42738   0.34933   0.74525   0.00000  Uiso   1.00
C331   C     0.48189   0.37949   0.83873   0.00000  Uiso   1.00
C332   C     0.35598   0.15513   0.55352   0.00000  Uiso   1.00
C333   C     0.31564   0.08022   0.55573   0.00000  Uiso   1.00
C334   C     0.32472   0.96819   0.53498   0.00000  Uiso   1.00
C335   C     0.31982   0.77779   0.50675   0.00000  Uiso   1.00
C336   C     0.44231   0.21549   0.53313   0.00000  Uiso   1.00
C337   C     0.42108   0.31064   0.48616   0.00000  Uiso   1.00
C338   C     0.44485   0.35952   0.42737   0.00000  Uiso   1.00
C339   C     0.41917   0.44548   0.39145   0.00000  Uiso   1.00
C340   C     0.44196   0.26148   0.60978   0.00000  Uiso   1.00
C341   C     0.48327   0.26899   0.65492   0.00000  Uiso   1.00
C342   C     0.47518   0.31355   0.72307   0.00000  Uiso   1.00
C343   C     0.40369   0.11941   0.53138   0.00000  Uiso   1.00
C344   C     0.41283   0.00748   0.51064   0.00000  Uiso   1.00
C345   C     0.37252   0.93241   0.51281   0.00000  Uiso   1.00
H346   H     0.31732   0.30904   0.59112   0.00000  Uiso   1.00
H347   H     0.31073   0.45988   0.48960   0.00000  Uiso   1.00
H348   H     0.34915   0.36936   0.71713   0.00000  Uiso   1.00
H349   H     0.27872   0.10788   0.57286   0.00000  Uiso   1.00
H350   H     0.32448   0.61139   0.36731   0.00000  Uiso   1.00
H351   H     0.40549   0.42048   0.84706   0.00000  Uiso   1.00
H352   H     0.25698   0.86911   0.54285   0.00000  Uiso   1.00
H353   H     0.47946   0.18769   0.51590   0.00000  Uiso   1.00
H354   H     0.48177   0.33186   0.41025   0.00000  Uiso   1.00
H355   H     0.52019   0.24134   0.63778   0.00000  Uiso   1.00
H356   H     0.44976   0.97987   0.49351   0.00000  Uiso   1.00
H357   H     0.46330   0.50749   0.30291   0.00000  Uiso   1.00
H358   H     0.54432   0.31658   0.78267   0.00000  Uiso   1.00
H359   H     0.39580   0.76521   0.47845   0.00000  Uiso   1.00
O360   O     0.39249   0.65650   0.26699   0.00000  Uiso   1.00
O361   O     0.49878   0.40601   0.89641   0.00000  Uiso   1.00
O362   O     0.30393   0.68263   0.49729   0.00000  Uiso   1.00
N363   N     0.35683   0.56713   0.36664   0.00000  Uiso   1.00
N364   N     0.43258   0.38866   0.81518   0.00000  Uiso   1.00
N365   N     0.29373   0.87317   0.53079   0.00000  Uiso   1.00
N366   N     0.43153   0.51123   0.33199   0.00000  Uiso   1.00
N367   N     0.50727   0.33276   0.78053   0.00000  Uiso   1.00
N368   N     0.36843   0.81726   0.49613   0.00000  Uiso   1.00
