data_job_04994
_audit_creation_date              2018-12-19
_audit_creation_method            'Materials Studio'
_symmetry_space_group_name_H-M    'P1'
_symmetry_Int_Tables_number       1
_symmetry_cell_setting            triclinic
loop_
_symmetry_equiv_pos_as_xyz
  x,y,z
_cell_length_a                    22.9041
_cell_length_b                    11.3762
_cell_length_c                    20.7118
_cell_angle_alpha                 90.0000
_cell_angle_beta                  149.0565
_cell_angle_gamma                 90.0000
loop_
_atom_site_label
_atom_site_type_symbol
_atom_site_fract_x
_atom_site_fract_y
_atom_site_fract_z
_atom_site_U_iso_or_equiv
_atom_site_adp_type
_atom_site_occupancy
C1     C     0.99723   0.23603   0.59752   0.00000  Uiso   1.00
C2     C     0.87240   0.20572   0.48937   0.00000  Uiso   1.00
C3     C     0.79480   0.27217   0.45056   0.00000  Uiso   1.00
C4     C     0.68458   0.22941   0.34975   0.00000  Uiso   1.00
C5     C     0.49552   0.19836   0.19094   0.00000  Uiso   1.00
C6     C     0.06447   0.13074   0.68609   0.00000  Uiso   1.00
C7     C     0.14838   0.13415   0.81268   0.00000  Uiso   1.00
C8     C     0.19985   0.02827   0.87747   0.00000  Uiso   1.00
C9     C     0.30906   0.88083   0.02410   0.00000  Uiso   1.00
C10    C     0.01526   0.23860   0.54172   0.00000  Uiso   1.00
C11    C     0.05781   0.33269   0.54696   0.00000  Uiso   1.00
C12    C     0.06787   0.31761   0.49023   0.00000  Uiso   1.00
C13    C     0.10066   0.33764   0.41271   0.00000  Uiso   1.00
C14    C     0.93948   0.04193   0.48750   0.00000  Uiso   1.00
C15    C     0.84103   0.10029   0.42961   0.00000  Uiso   1.00
C16    C     0.73090   0.05743   0.32883   0.00000  Uiso   1.00
C17    C     0.65315   0.12380   0.28988   0.00000  Uiso   1.00
C18    C     0.03311   0.02532   0.62633   0.00000  Uiso   1.00
C19    C     0.08448   0.91941   0.69095   0.00000  Uiso   1.00
C20    C     0.16843   0.92266   0.81761   0.00000  Uiso   1.00
C21    C     0.98388   0.13318   0.48196   0.00000  Uiso   1.00
C22    C     0.99390   0.11795   0.42522   0.00000  Uiso   1.00
C23    C     0.03645   0.21200   0.43036   0.00000  Uiso   1.00
H24    H     0.02166   0.31810   0.64405   0.00000  Uiso   1.00
H25    H     0.81911   0.35375   0.49684   0.00000  Uiso   1.00
H26    H     0.17264   0.21575   0.85890   0.00000  Uiso   1.00
H27    H     0.08208   0.41426   0.59321   0.00000  Uiso   1.00
H28    H     0.58072   0.34675   0.30730   0.00000  Uiso   1.00
H29    H     0.32619   0.05579   0.07074   0.00000  Uiso   1.00
H30    H     0.13522   0.47438   0.51049   0.00000  Uiso   1.00
H31    H     0.91506   0.95985   0.44097   0.00000  Uiso   1.00
H32    H     0.70665   0.97584   0.28260   0.00000  Uiso   1.00
H33    H     0.06018   0.83784   0.64467   0.00000  Uiso   1.00
H34    H     0.96961   0.03635   0.37898   0.00000  Uiso   1.00
H35    H     0.48944   0.04003   0.13342   0.00000  Uiso   1.00
H36    H     0.23492   0.74906   0.89687   0.00000  Uiso   1.00
H37    H     0.04394   0.16766   0.33661   0.00000  Uiso   1.00
O38    O     0.39992   0.21035   0.11987   0.00000  Uiso   1.00
O39    O     0.37795   0.82863   0.12149   0.00000  Uiso   1.00
O40    O     0.12740   0.37781   0.38644   0.00000  Uiso   1.00
N41    N     0.58783   0.27238   0.28809   0.00000  Uiso   1.00
N42    N     0.28479   0.00035   0.00186   0.00000  Uiso   1.00
N43    N     0.10628   0.39169   0.47810   0.00000  Uiso   1.00
N44    N     0.53872   0.10734   0.19453   0.00000  Uiso   1.00
N45    N     0.23567   0.83530   0.90830   0.00000  Uiso   1.00
N46    N     0.05716   0.22664   0.38454   0.00000  Uiso   1.00
C47    C     0.52713   0.65403   0.92216   0.00000  Uiso   1.00
C48    C     0.40808   0.68386   0.78537   0.00000  Uiso   1.00
C49    C     0.34438   0.61749   0.68196   0.00000  Uiso   1.00
C50    C     0.23734   0.65976   0.56463   0.00000  Uiso   1.00
C51    C     0.05886   0.69016   0.35425   0.00000  Uiso   1.00
C52    C     0.60100   0.75997   0.97577   0.00000  Uiso   1.00
C53    C     0.69951   0.75758   0.03245   0.00000  Uiso   1.00
C54    C     0.75488   0.86392   0.07541   0.00000  Uiso   1.00
C55    C     0.87595   0.01246   0.16072   0.00000  Uiso   1.00
C56    C     0.51967   0.65058   0.98856   0.00000  Uiso   1.00
C57    C     0.54983   0.55624   0.05603   0.00000  Uiso   1.00
C58    C     0.53674   0.57050   0.10978   0.00000  Uiso   1.00
C59    C     0.53154   0.54920   0.21494   0.00000  Uiso   1.00
C60    C     0.45031   0.84711   0.89768   0.00000  Uiso   1.00
C61    C     0.36636   0.78874   0.77208   0.00000  Uiso   1.00
C62    C     0.25938   0.83111   0.65488   0.00000  Uiso   1.00
C63    C     0.19553   0.76482   0.55130   0.00000  Uiso   1.00
C64    C     0.55928   0.86484   0.96248   0.00000  Uiso   1.00
C65    C     0.61452   0.97120   0.00537   0.00000  Uiso   1.00
C66    C     0.71308   0.96898   0.06210   0.00000  Uiso   1.00
C67    C     0.47794   0.75545   0.97526   0.00000  Uiso   1.00
C68    C     0.46482   0.76986   0.02894   0.00000  Uiso   1.00
C69    C     0.49494   0.67556   0.09647   0.00000  Uiso   1.00
H70    H     0.55962   0.57238   0.93252   0.00000  Uiso   1.00
H71    H     0.37671   0.53634   0.69229   0.00000  Uiso   1.00
H72    H     0.73179   0.67641   0.04274   0.00000  Uiso   1.00
H73    H     0.58211   0.47510   0.06630   0.00000  Uiso   1.00
H74    H     0.15552   0.54266   0.42008   0.00000  Uiso   1.00
H75    H     0.90425   0.83798   0.15907   0.00000  Uiso   1.00
H76    H     0.58865   0.41348   0.20876   0.00000  Uiso   1.00
H77    H     0.41782   0.92876   0.88733   0.00000  Uiso   1.00
H78    H     0.22712   0.91228   0.64462   0.00000  Uiso   1.00
H79    H     0.58220   0.05234   0.99507   0.00000  Uiso   1.00
H80    H     0.43253   0.85103   0.01863   0.00000  Uiso   1.00
H81    H     0.03411   0.84778   0.38139   0.00000  Uiso   1.00
H82    H     0.78285   0.14311   0.12039   0.00000  Uiso   1.00
H83    H     0.46724   0.71861   0.17006   0.00000  Uiso   1.00
O84    O     0.97194   0.67796   0.24188   0.00000  Uiso   1.00
O85    O     0.95426   0.06541   0.21143   0.00000  Uiso   1.00
O86    O     0.54018   0.50848   0.27661   0.00000  Uiso   1.00
N87    N     0.15311   0.61672   0.44429   0.00000  Uiso   1.00
N88    N     0.85312   0.89283   0.13518   0.00000  Uiso   1.00
N89    N     0.55808   0.49597   0.18166   0.00000  Uiso   1.00
N90    N     0.08778   0.78090   0.42347   0.00000  Uiso   1.00
N91    N     0.78779   0.05702   0.11436   0.00000  Uiso   1.00
N92    N     0.49275   0.66016   0.16084   0.00000  Uiso   1.00
C93    C     0.99723   0.76397   0.09752   0.00000  Uiso   1.00
C94    C     0.87240   0.79428   0.98937   0.00000  Uiso   1.00
C95    C     0.79480   0.72783   0.95056   0.00000  Uiso   1.00
C96    C     0.68458   0.77059   0.84975   0.00000  Uiso   1.00
C97    C     0.49552   0.80164   0.69094   0.00000  Uiso   1.00
C98    C     0.06447   0.86926   0.18609   0.00000  Uiso   1.00
C99    C     0.14838   0.86585   0.31268   0.00000  Uiso   1.00
C100   C     0.19985   0.97173   0.37747   0.00000  Uiso   1.00
C101   C     0.30906   0.11917   0.52410   0.00000  Uiso   1.00
C102   C     0.01526   0.76140   0.04172   0.00000  Uiso   1.00
C103   C     0.05781   0.66731   0.04696   0.00000  Uiso   1.00
C104   C     0.06787   0.68239   0.99023   0.00000  Uiso   1.00
C105   C     0.10066   0.66236   0.91271   0.00000  Uiso   1.00
C106   C     0.93948   0.95807   0.98750   0.00000  Uiso   1.00
C107   C     0.84103   0.89971   0.92961   0.00000  Uiso   1.00
C108   C     0.73090   0.94257   0.82883   0.00000  Uiso   1.00
C109   C     0.65315   0.87620   0.78988   0.00000  Uiso   1.00
C110   C     0.03311   0.97468   0.12633   0.00000  Uiso   1.00
C111   C     0.08448   0.08059   0.19095   0.00000  Uiso   1.00
C112   C     0.16843   0.07734   0.31761   0.00000  Uiso   1.00
C113   C     0.98388   0.86682   0.98196   0.00000  Uiso   1.00
C114   C     0.99390   0.88205   0.92522   0.00000  Uiso   1.00
C115   C     0.03645   0.78800   0.93036   0.00000  Uiso   1.00
H116   H     0.02166   0.68190   0.14405   0.00000  Uiso   1.00
H117   H     0.81911   0.64625   0.99684   0.00000  Uiso   1.00
H118   H     0.17264   0.78425   0.35890   0.00000  Uiso   1.00
H119   H     0.08208   0.58574   0.09321   0.00000  Uiso   1.00
H120   H     0.58072   0.65325   0.80730   0.00000  Uiso   1.00
H121   H     0.32619   0.94421   0.57074   0.00000  Uiso   1.00
H122   H     0.13522   0.52562   0.01049   0.00000  Uiso   1.00
H123   H     0.91506   0.04015   0.94097   0.00000  Uiso   1.00
H124   H     0.70665   0.02416   0.78260   0.00000  Uiso   1.00
H125   H     0.06018   0.16216   0.14467   0.00000  Uiso   1.00
H126   H     0.96961   0.96365   0.87898   0.00000  Uiso   1.00
H127   H     0.48944   0.95997   0.63342   0.00000  Uiso   1.00
H128   H     0.23492   0.25094   0.39687   0.00000  Uiso   1.00
H129   H     0.04394   0.83234   0.83661   0.00000  Uiso   1.00
O130   O     0.39992   0.78965   0.61987   0.00000  Uiso   1.00
O131   O     0.37795   0.17137   0.62149   0.00000  Uiso   1.00
O132   O     0.12740   0.62219   0.88644   0.00000  Uiso   1.00
N133   N     0.58783   0.72762   0.78809   0.00000  Uiso   1.00
N134   N     0.28479   0.99965   0.50186   0.00000  Uiso   1.00
N135   N     0.10628   0.60831   0.97810   0.00000  Uiso   1.00
N136   N     0.53872   0.89266   0.69453   0.00000  Uiso   1.00
N137   N     0.23567   0.16470   0.40830   0.00000  Uiso   1.00
N138   N     0.05716   0.77336   0.88454   0.00000  Uiso   1.00
C139   C     0.52713   0.34597   0.42216   0.00000  Uiso   1.00
C140   C     0.40808   0.31614   0.28537   0.00000  Uiso   1.00
C141   C     0.34438   0.38251   0.18196   0.00000  Uiso   1.00
C142   C     0.23734   0.34024   0.06463   0.00000  Uiso   1.00
C143   C     0.05886   0.30984   0.85425   0.00000  Uiso   1.00
C144   C     0.60100   0.24003   0.47577   0.00000  Uiso   1.00
C145   C     0.69951   0.24242   0.53245   0.00000  Uiso   1.00
C146   C     0.75488   0.13608   0.57541   0.00000  Uiso   1.00
C147   C     0.87595   0.98754   0.66072   0.00000  Uiso   1.00
C148   C     0.51967   0.34942   0.48856   0.00000  Uiso   1.00
C149   C     0.54983   0.44376   0.55603   0.00000  Uiso   1.00
C150   C     0.53674   0.42950   0.60978   0.00000  Uiso   1.00
C151   C     0.53154   0.45080   0.71494   0.00000  Uiso   1.00
C152   C     0.45031   0.15289   0.39768   0.00000  Uiso   1.00
C153   C     0.36636   0.21126   0.27208   0.00000  Uiso   1.00
C154   C     0.25938   0.16889   0.15488   0.00000  Uiso   1.00
C155   C     0.19553   0.23518   0.05130   0.00000  Uiso   1.00
C156   C     0.55928   0.13516   0.46248   0.00000  Uiso   1.00
C157   C     0.61452   0.02880   0.50537   0.00000  Uiso   1.00
C158   C     0.71308   0.03102   0.56210   0.00000  Uiso   1.00
C159   C     0.47794   0.24455   0.47526   0.00000  Uiso   1.00
C160   C     0.46482   0.23014   0.52894   0.00000  Uiso   1.00
C161   C     0.49494   0.32444   0.59647   0.00000  Uiso   1.00
H162   H     0.55962   0.42762   0.43252   0.00000  Uiso   1.00
H163   H     0.37671   0.46366   0.19229   0.00000  Uiso   1.00
H164   H     0.73179   0.32359   0.54274   0.00000  Uiso   1.00
H165   H     0.58211   0.52490   0.56630   0.00000  Uiso   1.00
H166   H     0.15552   0.45734   0.92008   0.00000  Uiso   1.00
H167   H     0.90425   0.16202   0.65907   0.00000  Uiso   1.00
H168   H     0.58865   0.58652   0.70876   0.00000  Uiso   1.00
H169   H     0.41782   0.07124   0.38733   0.00000  Uiso   1.00
H170   H     0.22712   0.08772   0.14462   0.00000  Uiso   1.00
H171   H     0.58220   0.94766   0.49507   0.00000  Uiso   1.00
H172   H     0.43253   0.14897   0.51863   0.00000  Uiso   1.00
H173   H     0.03411   0.15222   0.88139   0.00000  Uiso   1.00
H174   H     0.78285   0.85689   0.62039   0.00000  Uiso   1.00
H175   H     0.46724   0.28139   0.67006   0.00000  Uiso   1.00
O176   O     0.97194   0.32204   0.74188   0.00000  Uiso   1.00
O177   O     0.95426   0.93459   0.71143   0.00000  Uiso   1.00
O178   O     0.54018   0.49152   0.77661   0.00000  Uiso   1.00
N179   N     0.15311   0.38328   0.94429   0.00000  Uiso   1.00
N180   N     0.85312   0.10717   0.63518   0.00000  Uiso   1.00
N181   N     0.55808   0.50403   0.68166   0.00000  Uiso   1.00
N182   N     0.08778   0.21910   0.92347   0.00000  Uiso   1.00
N183   N     0.78779   0.94298   0.61436   0.00000  Uiso   1.00
N184   N     0.49275   0.33984   0.66084   0.00000  Uiso   1.00
