data_job_03865
_audit_creation_date              2018-12-19
_audit_creation_method            'Materials Studio'
_symmetry_space_group_name_H-M    'P1'
_symmetry_Int_Tables_number       1
_symmetry_cell_setting            triclinic
loop_
_symmetry_equiv_pos_as_xyz
  x,y,z
_cell_length_a                    10.8398
_cell_length_b                    21.6651
_cell_length_c                    43.1902
_cell_angle_alpha                 90.0000
_cell_angle_beta                  101.7552
_cell_angle_gamma                 90.0000
loop_
_atom_site_label
_atom_site_type_symbol
_atom_site_fract_x
_atom_site_fract_y
_atom_site_fract_z
_atom_site_U_iso_or_equiv
_atom_site_adp_type
_atom_site_occupancy
C1     C     0.94429   0.25340   0.90564   0.00000  Uiso   1.00
C2     C     0.92319   0.31641   0.91942   0.00000  Uiso   1.00
C3     C     0.01539   0.36053   0.92955   0.00000  Uiso   1.00
C4     C     0.97703   0.41523   0.94143   0.00000  Uiso   1.00
C5     C     0.96345   0.51151   0.96258   0.00000  Uiso   1.00
C6     C     0.89498   0.20604   0.92625   0.00000  Uiso   1.00
C7     C     0.96346   0.15736   0.94213   0.00000  Uiso   1.00
C8     C     0.90133   0.11914   0.95976   0.00000  Uiso   1.00
C9     C     0.84392   0.04404   0.99151   0.00000  Uiso   1.00
C10    C     0.85565   0.25056   0.87336   0.00000  Uiso   1.00
C11    C     0.89105   0.23929   0.84475   0.00000  Uiso   1.00
C12    C     0.79581   0.23855   0.81785   0.00000  Uiso   1.00
C13    C     0.67735   0.23257   0.76746   0.00000  Uiso   1.00
C14    C     0.71219   0.27209   0.90871   0.00000  Uiso   1.00
C15    C     0.79713   0.32656   0.92109   0.00000  Uiso   1.00
C16    C     0.75860   0.38121   0.93295   0.00000  Uiso   1.00
C17    C     0.85073   0.42540   0.94310   0.00000  Uiso   1.00
C18    C     0.76892   0.21619   0.92793   0.00000  Uiso   1.00
C19    C     0.70667   0.17803   0.94553   0.00000  Uiso   1.00
C20    C     0.77503   0.12931   0.96144   0.00000  Uiso   1.00
C21    C     0.72958   0.26071   0.87503   0.00000  Uiso   1.00
C22    C     0.63426   0.25997   0.84816   0.00000  Uiso   1.00
C23    C     0.66951   0.24871   0.81952   0.00000  Uiso   1.00
H24    H     0.04244   0.24549   0.90434   0.00000  Uiso   1.00
H25    H     0.11295   0.35266   0.92825   0.00000  Uiso   1.00
H26    H     0.06101   0.14951   0.94083   0.00000  Uiso   1.00
H27    H     0.98862   0.23144   0.84347   0.00000  Uiso   1.00
H28    H     0.13553   0.47593   0.95552   0.00000  Uiso   1.00
H29    H     0.02601   0.04758   0.98203   0.00000  Uiso   1.00
H30    H     0.87336   0.22033   0.77672   0.00000  Uiso   1.00
H31    H     0.61404   0.27999   0.91002   0.00000  Uiso   1.00
H32    H     0.66104   0.38905   0.93424   0.00000  Uiso   1.00
H33    H     0.60911   0.18590   0.94682   0.00000  Uiso   1.00
H34    H     0.53672   0.26783   0.84946   0.00000  Uiso   1.00
H35    H     0.76875   0.50547   0.96038   0.00000  Uiso   1.00
H36    H     0.65922   0.07711   0.98689   0.00000  Uiso   1.00
H37    H     0.50657   0.24987   0.78158   0.00000  Uiso   1.00
O38    O     0.99080   0.56181   0.97379   0.00000  Uiso   1.00
O39    O     0.84710   0.99982   0.00857   0.00000  Uiso   1.00
O40    O     0.64683   0.22648   0.73921   0.00000  Uiso   1.00
N41    N     0.04275   0.46792   0.95333   0.00000  Uiso   1.00
N42    N     0.94036   0.06744   0.97812   0.00000  Uiso   1.00
N43    N     0.79764   0.22894   0.78618   0.00000  Uiso   1.00
N44    N     0.84539   0.48382   0.95595   0.00000  Uiso   1.00
N45    N     0.74300   0.08333   0.98074   0.00000  Uiso   1.00
N46    N     0.60028   0.24483   0.78879   0.00000  Uiso   1.00
C47    C     0.44429   0.75340   0.90564   0.00000  Uiso   1.00
C48    C     0.42319   0.81641   0.91942   0.00000  Uiso   1.00
C49    C     0.51539   0.86053   0.92955   0.00000  Uiso   1.00
C50    C     0.47703   0.91523   0.94143   0.00000  Uiso   1.00
C51    C     0.46345   0.01151   0.96258   0.00000  Uiso   1.00
C52    C     0.39498   0.70604   0.92625   0.00000  Uiso   1.00
C53    C     0.46346   0.65736   0.94213   0.00000  Uiso   1.00
C54    C     0.40133   0.61914   0.95976   0.00000  Uiso   1.00
C55    C     0.34392   0.54404   0.99151   0.00000  Uiso   1.00
C56    C     0.35565   0.75056   0.87336   0.00000  Uiso   1.00
C57    C     0.39105   0.73929   0.84475   0.00000  Uiso   1.00
C58    C     0.29581   0.73855   0.81785   0.00000  Uiso   1.00
C59    C     0.17735   0.73257   0.76746   0.00000  Uiso   1.00
C60    C     0.21219   0.77209   0.90871   0.00000  Uiso   1.00
C61    C     0.29713   0.82656   0.92109   0.00000  Uiso   1.00
C62    C     0.25860   0.88121   0.93295   0.00000  Uiso   1.00
C63    C     0.35073   0.92540   0.94310   0.00000  Uiso   1.00
C64    C     0.26892   0.71619   0.92793   0.00000  Uiso   1.00
C65    C     0.20667   0.67803   0.94553   0.00000  Uiso   1.00
C66    C     0.27503   0.62931   0.96144   0.00000  Uiso   1.00
C67    C     0.22958   0.76071   0.87503   0.00000  Uiso   1.00
C68    C     0.13426   0.75997   0.84816   0.00000  Uiso   1.00
C69    C     0.16951   0.74871   0.81952   0.00000  Uiso   1.00
H70    H     0.54244   0.74549   0.90434   0.00000  Uiso   1.00
H71    H     0.61295   0.85266   0.92825   0.00000  Uiso   1.00
H72    H     0.56101   0.64951   0.94083   0.00000  Uiso   1.00
H73    H     0.48862   0.73144   0.84347   0.00000  Uiso   1.00
H74    H     0.63553   0.97593   0.95552   0.00000  Uiso   1.00
H75    H     0.52601   0.54758   0.98203   0.00000  Uiso   1.00
H76    H     0.37336   0.72033   0.77672   0.00000  Uiso   1.00
H77    H     0.11404   0.77999   0.91002   0.00000  Uiso   1.00
H78    H     0.16104   0.88905   0.93424   0.00000  Uiso   1.00
H79    H     0.10911   0.68590   0.94682   0.00000  Uiso   1.00
H80    H     0.03672   0.76783   0.84946   0.00000  Uiso   1.00
H81    H     0.26875   0.00547   0.96038   0.00000  Uiso   1.00
H82    H     0.15922   0.57711   0.98689   0.00000  Uiso   1.00
H83    H     0.00657   0.74987   0.78158   0.00000  Uiso   1.00
O84    O     0.49080   0.06181   0.97379   0.00000  Uiso   1.00
O85    O     0.34710   0.49982   0.00857   0.00000  Uiso   1.00
O86    O     0.14683   0.72648   0.73921   0.00000  Uiso   1.00
N87    N     0.54275   0.96792   0.95333   0.00000  Uiso   1.00
N88    N     0.44036   0.56744   0.97812   0.00000  Uiso   1.00
N89    N     0.29764   0.72894   0.78618   0.00000  Uiso   1.00
N90    N     0.34539   0.98382   0.95595   0.00000  Uiso   1.00
N91    N     0.24300   0.58333   0.98074   0.00000  Uiso   1.00
N92    N     0.10028   0.74483   0.78879   0.00000  Uiso   1.00
C93    C     0.05571   0.25340   0.59436   0.00000  Uiso   1.00
C94    C     0.07681   0.31641   0.58058   0.00000  Uiso   1.00
C95    C     0.98461   0.36053   0.57045   0.00000  Uiso   1.00
C96    C     0.02297   0.41523   0.55857   0.00000  Uiso   1.00
C97    C     0.03655   0.51151   0.53742   0.00000  Uiso   1.00
C98    C     0.10502   0.20604   0.57375   0.00000  Uiso   1.00
C99    C     0.03654   0.15736   0.55787   0.00000  Uiso   1.00
C100   C     0.09867   0.11914   0.54024   0.00000  Uiso   1.00
C101   C     0.15608   0.04404   0.50849   0.00000  Uiso   1.00
C102   C     0.14435   0.25056   0.62664   0.00000  Uiso   1.00
C103   C     0.10895   0.23929   0.65525   0.00000  Uiso   1.00
C104   C     0.20419   0.23855   0.68215   0.00000  Uiso   1.00
C105   C     0.32265   0.23257   0.73254   0.00000  Uiso   1.00
C106   C     0.28781   0.27209   0.59129   0.00000  Uiso   1.00
C107   C     0.20287   0.32656   0.57891   0.00000  Uiso   1.00
C108   C     0.24140   0.38121   0.56705   0.00000  Uiso   1.00
C109   C     0.14927   0.42540   0.55690   0.00000  Uiso   1.00
C110   C     0.23108   0.21619   0.57207   0.00000  Uiso   1.00
C111   C     0.29333   0.17803   0.55447   0.00000  Uiso   1.00
C112   C     0.22497   0.12931   0.53856   0.00000  Uiso   1.00
C113   C     0.27042   0.26071   0.62497   0.00000  Uiso   1.00
C114   C     0.36574   0.25997   0.65184   0.00000  Uiso   1.00
C115   C     0.33049   0.24871   0.68048   0.00000  Uiso   1.00
H116   H     0.95756   0.24549   0.59566   0.00000  Uiso   1.00
H117   H     0.88705   0.35266   0.57175   0.00000  Uiso   1.00
H118   H     0.93899   0.14951   0.55917   0.00000  Uiso   1.00
H119   H     0.01138   0.23144   0.65653   0.00000  Uiso   1.00
H120   H     0.86447   0.47593   0.54448   0.00000  Uiso   1.00
H121   H     0.97399   0.04758   0.51797   0.00000  Uiso   1.00
H122   H     0.12664   0.22033   0.72328   0.00000  Uiso   1.00
H123   H     0.38596   0.27999   0.58998   0.00000  Uiso   1.00
H124   H     0.33896   0.38905   0.56576   0.00000  Uiso   1.00
H125   H     0.39089   0.18590   0.55318   0.00000  Uiso   1.00
H126   H     0.46328   0.26783   0.65054   0.00000  Uiso   1.00
H127   H     0.23125   0.50547   0.53962   0.00000  Uiso   1.00
H128   H     0.34078   0.07711   0.51311   0.00000  Uiso   1.00
H129   H     0.49343   0.24987   0.71842   0.00000  Uiso   1.00
O130   O     0.00920   0.56181   0.52621   0.00000  Uiso   1.00
O131   O     0.15290   0.99982   0.49143   0.00000  Uiso   1.00
O132   O     0.35317   0.22648   0.76079   0.00000  Uiso   1.00
N133   N     0.95725   0.46792   0.54667   0.00000  Uiso   1.00
N134   N     0.05964   0.06744   0.52188   0.00000  Uiso   1.00
N135   N     0.20236   0.22894   0.71382   0.00000  Uiso   1.00
N136   N     0.15461   0.48382   0.54405   0.00000  Uiso   1.00
N137   N     0.25700   0.08333   0.51926   0.00000  Uiso   1.00
N138   N     0.39972   0.24483   0.71121   0.00000  Uiso   1.00
C139   C     0.55571   0.75340   0.59436   0.00000  Uiso   1.00
C140   C     0.57681   0.81641   0.58058   0.00000  Uiso   1.00
C141   C     0.48461   0.86053   0.57045   0.00000  Uiso   1.00
C142   C     0.52297   0.91523   0.55857   0.00000  Uiso   1.00
C143   C     0.53655   0.01151   0.53742   0.00000  Uiso   1.00
C144   C     0.60502   0.70604   0.57375   0.00000  Uiso   1.00
C145   C     0.53654   0.65736   0.55787   0.00000  Uiso   1.00
C146   C     0.59867   0.61914   0.54024   0.00000  Uiso   1.00
C147   C     0.65608   0.54404   0.50849   0.00000  Uiso   1.00
C148   C     0.64435   0.75056   0.62664   0.00000  Uiso   1.00
C149   C     0.60895   0.73929   0.65525   0.00000  Uiso   1.00
C150   C     0.70419   0.73855   0.68215   0.00000  Uiso   1.00
C151   C     0.82265   0.73257   0.73254   0.00000  Uiso   1.00
C152   C     0.78781   0.77209   0.59129   0.00000  Uiso   1.00
C153   C     0.70287   0.82656   0.57891   0.00000  Uiso   1.00
C154   C     0.74140   0.88121   0.56705   0.00000  Uiso   1.00
C155   C     0.64927   0.92540   0.55690   0.00000  Uiso   1.00
C156   C     0.73108   0.71619   0.57207   0.00000  Uiso   1.00
C157   C     0.79333   0.67803   0.55447   0.00000  Uiso   1.00
C158   C     0.72497   0.62931   0.53856   0.00000  Uiso   1.00
C159   C     0.77042   0.76071   0.62497   0.00000  Uiso   1.00
C160   C     0.86574   0.75997   0.65184   0.00000  Uiso   1.00
C161   C     0.83049   0.74871   0.68048   0.00000  Uiso   1.00
H162   H     0.45756   0.74549   0.59566   0.00000  Uiso   1.00
H163   H     0.38705   0.85266   0.57175   0.00000  Uiso   1.00
H164   H     0.43899   0.64951   0.55917   0.00000  Uiso   1.00
H165   H     0.51138   0.73144   0.65653   0.00000  Uiso   1.00
H166   H     0.36447   0.97593   0.54448   0.00000  Uiso   1.00
H167   H     0.47399   0.54758   0.51797   0.00000  Uiso   1.00
H168   H     0.62664   0.72033   0.72328   0.00000  Uiso   1.00
H169   H     0.88596   0.77999   0.58998   0.00000  Uiso   1.00
H170   H     0.83896   0.88905   0.56576   0.00000  Uiso   1.00
H171   H     0.89089   0.68590   0.55318   0.00000  Uiso   1.00
H172   H     0.96328   0.76783   0.65054   0.00000  Uiso   1.00
H173   H     0.73125   0.00547   0.53962   0.00000  Uiso   1.00
H174   H     0.84078   0.57711   0.51311   0.00000  Uiso   1.00
H175   H     0.99343   0.74987   0.71842   0.00000  Uiso   1.00
O176   O     0.50920   0.06181   0.52621   0.00000  Uiso   1.00
O177   O     0.65290   0.49982   0.49143   0.00000  Uiso   1.00
O178   O     0.85317   0.72648   0.76079   0.00000  Uiso   1.00
N179   N     0.45725   0.96792   0.54667   0.00000  Uiso   1.00
N180   N     0.55964   0.56744   0.52188   0.00000  Uiso   1.00
N181   N     0.70236   0.72894   0.71382   0.00000  Uiso   1.00
N182   N     0.65461   0.98382   0.54405   0.00000  Uiso   1.00
N183   N     0.75700   0.58333   0.51926   0.00000  Uiso   1.00
N184   N     0.89972   0.74483   0.71121   0.00000  Uiso   1.00
C185   C     0.05571   0.74660   0.09436   0.00000  Uiso   1.00
C186   C     0.07681   0.68359   0.08058   0.00000  Uiso   1.00
C187   C     0.98461   0.63947   0.07045   0.00000  Uiso   1.00
C188   C     0.02297   0.58477   0.05857   0.00000  Uiso   1.00
C189   C     0.03655   0.48849   0.03742   0.00000  Uiso   1.00
C190   C     0.10502   0.79396   0.07375   0.00000  Uiso   1.00
C191   C     0.03654   0.84264   0.05787   0.00000  Uiso   1.00
C192   C     0.09867   0.88086   0.04024   0.00000  Uiso   1.00
C193   C     0.15608   0.95596   0.00849   0.00000  Uiso   1.00
C194   C     0.14435   0.74944   0.12664   0.00000  Uiso   1.00
C195   C     0.10895   0.76071   0.15525   0.00000  Uiso   1.00
C196   C     0.20419   0.76145   0.18215   0.00000  Uiso   1.00
C197   C     0.32265   0.76743   0.23254   0.00000  Uiso   1.00
C198   C     0.28781   0.72791   0.09129   0.00000  Uiso   1.00
C199   C     0.20287   0.67344   0.07891   0.00000  Uiso   1.00
C200   C     0.24140   0.61879   0.06705   0.00000  Uiso   1.00
C201   C     0.14927   0.57460   0.05690   0.00000  Uiso   1.00
C202   C     0.23108   0.78381   0.07207   0.00000  Uiso   1.00
C203   C     0.29333   0.82197   0.05447   0.00000  Uiso   1.00
C204   C     0.22497   0.87069   0.03856   0.00000  Uiso   1.00
C205   C     0.27042   0.73929   0.12497   0.00000  Uiso   1.00
C206   C     0.36574   0.74003   0.15184   0.00000  Uiso   1.00
C207   C     0.33049   0.75129   0.18048   0.00000  Uiso   1.00
H208   H     0.95756   0.75451   0.09566   0.00000  Uiso   1.00
H209   H     0.88705   0.64734   0.07175   0.00000  Uiso   1.00
H210   H     0.93899   0.85049   0.05917   0.00000  Uiso   1.00
H211   H     0.01138   0.76856   0.15653   0.00000  Uiso   1.00
H212   H     0.86447   0.52407   0.04448   0.00000  Uiso   1.00
H213   H     0.97399   0.95242   0.01797   0.00000  Uiso   1.00
H214   H     0.12664   0.77967   0.22328   0.00000  Uiso   1.00
H215   H     0.38596   0.72001   0.08998   0.00000  Uiso   1.00
H216   H     0.33896   0.61095   0.06576   0.00000  Uiso   1.00
H217   H     0.39089   0.81410   0.05318   0.00000  Uiso   1.00
H218   H     0.46328   0.73217   0.15054   0.00000  Uiso   1.00
H219   H     0.23125   0.49453   0.03962   0.00000  Uiso   1.00
H220   H     0.34078   0.92289   0.01311   0.00000  Uiso   1.00
H221   H     0.49343   0.75013   0.21842   0.00000  Uiso   1.00
O222   O     0.00920   0.43819   0.02621   0.00000  Uiso   1.00
O223   O     0.15290   0.00018   0.99143   0.00000  Uiso   1.00
O224   O     0.35317   0.77352   0.26079   0.00000  Uiso   1.00
N225   N     0.95725   0.53208   0.04667   0.00000  Uiso   1.00
N226   N     0.05964   0.93256   0.02188   0.00000  Uiso   1.00
N227   N     0.20236   0.77106   0.21382   0.00000  Uiso   1.00
N228   N     0.15461   0.51618   0.04405   0.00000  Uiso   1.00
N229   N     0.25700   0.91667   0.01926   0.00000  Uiso   1.00
N230   N     0.39972   0.75517   0.21121   0.00000  Uiso   1.00
C231   C     0.55571   0.24660   0.09436   0.00000  Uiso   1.00
C232   C     0.57681   0.18359   0.08058   0.00000  Uiso   1.00
C233   C     0.48461   0.13947   0.07045   0.00000  Uiso   1.00
C234   C     0.52297   0.08477   0.05857   0.00000  Uiso   1.00
C235   C     0.53655   0.98849   0.03742   0.00000  Uiso   1.00
C236   C     0.60502   0.29396   0.07375   0.00000  Uiso   1.00
C237   C     0.53654   0.34264   0.05787   0.00000  Uiso   1.00
C238   C     0.59867   0.38086   0.04024   0.00000  Uiso   1.00
C239   C     0.65608   0.45596   0.00849   0.00000  Uiso   1.00
C240   C     0.64435   0.24944   0.12664   0.00000  Uiso   1.00
C241   C     0.60895   0.26071   0.15525   0.00000  Uiso   1.00
C242   C     0.70419   0.26145   0.18215   0.00000  Uiso   1.00
C243   C     0.82265   0.26743   0.23254   0.00000  Uiso   1.00
C244   C     0.78781   0.22791   0.09129   0.00000  Uiso   1.00
C245   C     0.70287   0.17344   0.07891   0.00000  Uiso   1.00
C246   C     0.74140   0.11879   0.06705   0.00000  Uiso   1.00
C247   C     0.64927   0.07460   0.05690   0.00000  Uiso   1.00
C248   C     0.73108   0.28381   0.07207   0.00000  Uiso   1.00
C249   C     0.79333   0.32197   0.05447   0.00000  Uiso   1.00
C250   C     0.72497   0.37069   0.03856   0.00000  Uiso   1.00
C251   C     0.77042   0.23929   0.12497   0.00000  Uiso   1.00
C252   C     0.86574   0.24003   0.15184   0.00000  Uiso   1.00
C253   C     0.83049   0.25129   0.18048   0.00000  Uiso   1.00
H254   H     0.45756   0.25451   0.09566   0.00000  Uiso   1.00
H255   H     0.38705   0.14734   0.07175   0.00000  Uiso   1.00
H256   H     0.43899   0.35049   0.05917   0.00000  Uiso   1.00
H257   H     0.51138   0.26856   0.15653   0.00000  Uiso   1.00
H258   H     0.36447   0.02407   0.04448   0.00000  Uiso   1.00
H259   H     0.47399   0.45242   0.01797   0.00000  Uiso   1.00
H260   H     0.62664   0.27967   0.22328   0.00000  Uiso   1.00
H261   H     0.88596   0.22001   0.08998   0.00000  Uiso   1.00
H262   H     0.83896   0.11095   0.06576   0.00000  Uiso   1.00
H263   H     0.89089   0.31410   0.05318   0.00000  Uiso   1.00
H264   H     0.96328   0.23217   0.15054   0.00000  Uiso   1.00
H265   H     0.73125   0.99453   0.03962   0.00000  Uiso   1.00
H266   H     0.84078   0.42289   0.01311   0.00000  Uiso   1.00
H267   H     0.99343   0.25013   0.21842   0.00000  Uiso   1.00
O268   O     0.50920   0.93819   0.02621   0.00000  Uiso   1.00
O269   O     0.65290   0.50018   0.99143   0.00000  Uiso   1.00
O270   O     0.85317   0.27352   0.26079   0.00000  Uiso   1.00
N271   N     0.45725   0.03208   0.04667   0.00000  Uiso   1.00
N272   N     0.55964   0.43256   0.02188   0.00000  Uiso   1.00
N273   N     0.70236   0.27106   0.21382   0.00000  Uiso   1.00
N274   N     0.65461   0.01618   0.04405   0.00000  Uiso   1.00
N275   N     0.75700   0.41667   0.01926   0.00000  Uiso   1.00
N276   N     0.89972   0.25517   0.21121   0.00000  Uiso   1.00
C277   C     0.94429   0.74660   0.40564   0.00000  Uiso   1.00
C278   C     0.92319   0.68359   0.41942   0.00000  Uiso   1.00
C279   C     0.01539   0.63947   0.42955   0.00000  Uiso   1.00
C280   C     0.97703   0.58477   0.44143   0.00000  Uiso   1.00
C281   C     0.96345   0.48849   0.46258   0.00000  Uiso   1.00
C282   C     0.89498   0.79396   0.42625   0.00000  Uiso   1.00
C283   C     0.96346   0.84264   0.44213   0.00000  Uiso   1.00
C284   C     0.90133   0.88086   0.45976   0.00000  Uiso   1.00
C285   C     0.84392   0.95596   0.49151   0.00000  Uiso   1.00
C286   C     0.85565   0.74944   0.37336   0.00000  Uiso   1.00
C287   C     0.89105   0.76071   0.34475   0.00000  Uiso   1.00
C288   C     0.79581   0.76145   0.31785   0.00000  Uiso   1.00
C289   C     0.67735   0.76743   0.26746   0.00000  Uiso   1.00
C290   C     0.71219   0.72791   0.40871   0.00000  Uiso   1.00
C291   C     0.79713   0.67344   0.42109   0.00000  Uiso   1.00
C292   C     0.75860   0.61879   0.43295   0.00000  Uiso   1.00
C293   C     0.85073   0.57460   0.44310   0.00000  Uiso   1.00
C294   C     0.76892   0.78381   0.42793   0.00000  Uiso   1.00
C295   C     0.70667   0.82197   0.44553   0.00000  Uiso   1.00
C296   C     0.77503   0.87069   0.46144   0.00000  Uiso   1.00
C297   C     0.72958   0.73929   0.37503   0.00000  Uiso   1.00
C298   C     0.63426   0.74003   0.34816   0.00000  Uiso   1.00
C299   C     0.66951   0.75129   0.31952   0.00000  Uiso   1.00
H300   H     0.04244   0.75451   0.40434   0.00000  Uiso   1.00
H301   H     0.11295   0.64734   0.42825   0.00000  Uiso   1.00
H302   H     0.06101   0.85049   0.44083   0.00000  Uiso   1.00
H303   H     0.98862   0.76856   0.34347   0.00000  Uiso   1.00
H304   H     0.13553   0.52407   0.45552   0.00000  Uiso   1.00
H305   H     0.02601   0.95242   0.48203   0.00000  Uiso   1.00
H306   H     0.87336   0.77967   0.27672   0.00000  Uiso   1.00
H307   H     0.61404   0.72001   0.41002   0.00000  Uiso   1.00
H308   H     0.66104   0.61095   0.43424   0.00000  Uiso   1.00
H309   H     0.60911   0.81410   0.44682   0.00000  Uiso   1.00
H310   H     0.53672   0.73217   0.34946   0.00000  Uiso   1.00
H311   H     0.76875   0.49453   0.46038   0.00000  Uiso   1.00
H312   H     0.65922   0.92289   0.48689   0.00000  Uiso   1.00
H313   H     0.50657   0.75013   0.28158   0.00000  Uiso   1.00
O314   O     0.99080   0.43819   0.47379   0.00000  Uiso   1.00
O315   O     0.84710   0.00018   0.50857   0.00000  Uiso   1.00
O316   O     0.64683   0.77352   0.23921   0.00000  Uiso   1.00
N317   N     0.04275   0.53208   0.45333   0.00000  Uiso   1.00
N318   N     0.94036   0.93256   0.47812   0.00000  Uiso   1.00
N319   N     0.79764   0.77106   0.28618   0.00000  Uiso   1.00
N320   N     0.84539   0.51618   0.45595   0.00000  Uiso   1.00
N321   N     0.74300   0.91667   0.48074   0.00000  Uiso   1.00
N322   N     0.60028   0.75517   0.28879   0.00000  Uiso   1.00
C323   C     0.44429   0.24660   0.40564   0.00000  Uiso   1.00
C324   C     0.42319   0.18359   0.41942   0.00000  Uiso   1.00
C325   C     0.51539   0.13947   0.42955   0.00000  Uiso   1.00
C326   C     0.47703   0.08477   0.44143   0.00000  Uiso   1.00
C327   C     0.46345   0.98849   0.46258   0.00000  Uiso   1.00
C328   C     0.39498   0.29396   0.42625   0.00000  Uiso   1.00
C329   C     0.46346   0.34264   0.44213   0.00000  Uiso   1.00
C330   C     0.40133   0.38086   0.45976   0.00000  Uiso   1.00
C331   C     0.34392   0.45596   0.49151   0.00000  Uiso   1.00
C332   C     0.35565   0.24944   0.37336   0.00000  Uiso   1.00
C333   C     0.39105   0.26071   0.34475   0.00000  Uiso   1.00
C334   C     0.29581   0.26145   0.31785   0.00000  Uiso   1.00
C335   C     0.17735   0.26743   0.26746   0.00000  Uiso   1.00
C336   C     0.21219   0.22791   0.40871   0.00000  Uiso   1.00
C337   C     0.29713   0.17344   0.42109   0.00000  Uiso   1.00
C338   C     0.25860   0.11879   0.43295   0.00000  Uiso   1.00
C339   C     0.35073   0.07460   0.44310   0.00000  Uiso   1.00
C340   C     0.26892   0.28381   0.42793   0.00000  Uiso   1.00
C341   C     0.20667   0.32197   0.44553   0.00000  Uiso   1.00
C342   C     0.27503   0.37069   0.46144   0.00000  Uiso   1.00
C343   C     0.22958   0.23929   0.37503   0.00000  Uiso   1.00
C344   C     0.13426   0.24003   0.34816   0.00000  Uiso   1.00
C345   C     0.16951   0.25129   0.31952   0.00000  Uiso   1.00
H346   H     0.54244   0.25451   0.40434   0.00000  Uiso   1.00
H347   H     0.61295   0.14734   0.42825   0.00000  Uiso   1.00
H348   H     0.56101   0.35049   0.44083   0.00000  Uiso   1.00
H349   H     0.48862   0.26856   0.34347   0.00000  Uiso   1.00
H350   H     0.63553   0.02407   0.45552   0.00000  Uiso   1.00
H351   H     0.52601   0.45242   0.48203   0.00000  Uiso   1.00
H352   H     0.37336   0.27967   0.27672   0.00000  Uiso   1.00
H353   H     0.11404   0.22001   0.41002   0.00000  Uiso   1.00
H354   H     0.16104   0.11095   0.43424   0.00000  Uiso   1.00
H355   H     0.10911   0.31410   0.44682   0.00000  Uiso   1.00
H356   H     0.03672   0.23217   0.34946   0.00000  Uiso   1.00
H357   H     0.26875   0.99453   0.46038   0.00000  Uiso   1.00
H358   H     0.15922   0.42289   0.48689   0.00000  Uiso   1.00
H359   H     0.00657   0.25013   0.28158   0.00000  Uiso   1.00
O360   O     0.49080   0.93819   0.47379   0.00000  Uiso   1.00
O361   O     0.34710   0.50018   0.50857   0.00000  Uiso   1.00
O362   O     0.14683   0.27352   0.23921   0.00000  Uiso   1.00
N363   N     0.54275   0.03208   0.45333   0.00000  Uiso   1.00
N364   N     0.44036   0.43256   0.47812   0.00000  Uiso   1.00
N365   N     0.29764   0.27106   0.28618   0.00000  Uiso   1.00
N366   N     0.34539   0.01618   0.45595   0.00000  Uiso   1.00
N367   N     0.24300   0.41667   0.48074   0.00000  Uiso   1.00
N368   N     0.10028   0.25517   0.28879   0.00000  Uiso   1.00
