data_job_04589
_audit_creation_date              2018-12-19
_audit_creation_method            'Materials Studio'
_symmetry_space_group_name_H-M    'P1'
_symmetry_Int_Tables_number       1
_symmetry_cell_setting            triclinic
loop_
_symmetry_equiv_pos_as_xyz
  x,y,z
_cell_length_a                    13.7350
_cell_length_b                    12.3982
_cell_length_c                    28.7126
_cell_angle_alpha                 90.0000
_cell_angle_beta                  90.0000
_cell_angle_gamma                 90.0000
loop_
_atom_site_label
_atom_site_type_symbol
_atom_site_fract_x
_atom_site_fract_y
_atom_site_fract_z
_atom_site_U_iso_or_equiv
_atom_site_adp_type
_atom_site_occupancy
C1     C     0.37044   0.85847   0.62671   0.00000  Uiso   1.00
C2     C     0.39827   0.96783   0.64704   0.00000  Uiso   1.00
C3     C     0.33915   0.03228   0.67464   0.00000  Uiso   1.00
C4     C     0.37803   0.12952   0.68978   0.00000  Uiso   1.00
C5     C     0.40682   0.29456   0.72317   0.00000  Uiso   1.00
C6     C     0.38481   0.86813   0.57421   0.00000  Uiso   1.00
C7     C     0.31438   0.84874   0.54057   0.00000  Uiso   1.00
C8     C     0.34194   0.86203   0.49440   0.00000  Uiso   1.00
C9     C     0.34986   0.87220   0.41472   0.00000  Uiso   1.00
C10    C     0.44762   0.77925   0.64366   0.00000  Uiso   1.00
C11    C     0.43000   0.68510   0.66841   0.00000  Uiso   1.00
C12    C     0.51045   0.62354   0.68070   0.00000  Uiso   1.00
C13    C     0.61588   0.49571   0.70885   0.00000  Uiso   1.00
C14    C     0.54462   0.91654   0.60451   0.00000  Uiso   1.00
C15    C     0.49287   0.99937   0.63498   0.00000  Uiso   1.00
C16    C     0.53186   0.09654   0.65009   0.00000  Uiso   1.00
C17    C     0.47281   0.16112   0.67771   0.00000  Uiso   1.00
C18    C     0.47941   0.89967   0.56215   0.00000  Uiso   1.00
C19    C     0.50709   0.91299   0.51602   0.00000  Uiso   1.00
C20    C     0.43672   0.89363   0.48233   0.00000  Uiso   1.00
C21    C     0.54223   0.81079   0.63161   0.00000  Uiso   1.00
C22    C     0.62271   0.74936   0.64386   0.00000  Uiso   1.00
C23    C     0.60522   0.65514   0.66863   0.00000  Uiso   1.00
H24    H     0.29679   0.83391   0.63609   0.00000  Uiso   1.00
H25    H     0.26594   0.00785   0.68396   0.00000  Uiso   1.00
H26    H     0.24118   0.82432   0.54991   0.00000  Uiso   1.00
H27    H     0.35678   0.66072   0.67773   0.00000  Uiso   1.00
H28    H     0.27344   0.21462   0.73170   0.00000  Uiso   1.00
H29    H     0.22124   0.82760   0.44906   0.00000  Uiso   1.00
H30    H     0.46501   0.48261   0.71859   0.00000  Uiso   1.00
H31    H     0.61828   0.94110   0.59513   0.00000  Uiso   1.00
H32    H     0.60507   0.12092   0.64076   0.00000  Uiso   1.00
H33    H     0.58031   0.93739   0.50671   0.00000  Uiso   1.00
H34    H     0.69591   0.77379   0.63453   0.00000  Uiso   1.00
H35    H     0.54869   0.30640   0.69664   0.00000  Uiso   1.00
H36    H     0.49649   0.91937   0.41399   0.00000  Uiso   1.00
H37    H     0.74027   0.57439   0.68352   0.00000  Uiso   1.00
O38    O     0.39656   0.37689   0.74491   0.00000  Uiso   1.00
O39    O     0.32808   0.86911   0.37409   0.00000  Uiso   1.00
O40    O     0.64791   0.41650   0.72771   0.00000  Uiso   1.00
N41    N     0.34004   0.21153   0.71720   0.00000  Uiso   1.00
N42    N     0.29123   0.84971   0.45294   0.00000  Uiso   1.00
N43    N     0.51914   0.52716   0.70492   0.00000  Uiso   1.00
N44    N     0.48815   0.26092   0.69833   0.00000  Uiso   1.00
N45    N     0.43934   0.89909   0.43407   0.00000  Uiso   1.00
N46    N     0.66725   0.57654   0.68605   0.00000  Uiso   1.00
C47    C     0.59759   0.34021   0.37642   0.00000  Uiso   1.00
C48    C     0.57233   0.22902   0.35719   0.00000  Uiso   1.00
C49    C     0.63437   0.16285   0.33192   0.00000  Uiso   1.00
C50    C     0.59750   0.06412   0.31744   0.00000  Uiso   1.00
C51    C     0.57281   0.89622   0.28602   0.00000  Uiso   1.00
C52    C     0.57825   0.33472   0.42866   0.00000  Uiso   1.00
C53    C     0.64528   0.35743   0.46348   0.00000  Uiso   1.00
C54    C     0.61339   0.34769   0.50918   0.00000  Uiso   1.00
C55    C     0.59789   0.34397   0.58871   0.00000  Uiso   1.00
C56    C     0.52171   0.41735   0.35659   0.00000  Uiso   1.00
C57    C     0.54118   0.50957   0.33082   0.00000  Uiso   1.00
C58    C     0.46167   0.56941   0.31585   0.00000  Uiso   1.00
C59    C     0.35837   0.69399   0.28348   0.00000  Uiso   1.00
C60    C     0.42178   0.28254   0.39566   0.00000  Uiso   1.00
C61    C     0.47683   0.19770   0.36764   0.00000  Uiso   1.00
C62    C     0.43985   0.09905   0.35320   0.00000  Uiso   1.00
C63    C     0.50183   0.03274   0.32791   0.00000  Uiso   1.00
C64    C     0.48276   0.30340   0.43912   0.00000  Uiso   1.00
C65    C     0.45076   0.29363   0.48477   0.00000  Uiso   1.00
C66    C     0.51772   0.31631   0.51965   0.00000  Uiso   1.00
C67    C     0.42621   0.38603   0.36704   0.00000  Uiso   1.00
C68    C     0.34666   0.44575   0.35211   0.00000  Uiso   1.00
C69    C     0.36601   0.53803   0.32632   0.00000  Uiso   1.00
H70    H     0.67194   0.36460   0.36829   0.00000  Uiso   1.00
H71    H     0.70827   0.18712   0.32384   0.00000  Uiso   1.00
H72    H     0.71917   0.38168   0.45538   0.00000  Uiso   1.00
H73    H     0.61509   0.53378   0.32274   0.00000  Uiso   1.00
H74    H     0.70645   0.97652   0.27918   0.00000  Uiso   1.00
H75    H     0.72943   0.38680   0.55655   0.00000  Uiso   1.00
H76    H     0.50995   0.70754   0.27685   0.00000  Uiso   1.00
H77    H     0.34743   0.25815   0.40380   0.00000  Uiso   1.00
H78    H     0.36595   0.07483   0.36130   0.00000  Uiso   1.00
H79    H     0.37686   0.26939   0.49284   0.00000  Uiso   1.00
H80    H     0.27277   0.42149   0.36020   0.00000  Uiso   1.00
H81    H     0.42861   0.88538   0.30959   0.00000  Uiso   1.00
H82    H     0.45159   0.29567   0.58696   0.00000  Uiso   1.00
H83    H     0.23211   0.61640   0.30726   0.00000  Uiso   1.00
O84    O     0.58558   0.81226   0.26580   0.00000  Uiso   1.00
O85    O     0.61572   0.35055   0.62970   0.00000  Uiso   1.00
O86    O     0.32777   0.77134   0.26274   0.00000  Uiso   1.00
N87    N     0.63851   0.98024   0.29216   0.00000  Uiso   1.00
N88    N     0.66000   0.36381   0.55149   0.00000  Uiso   1.00
N89    N     0.45481   0.66369   0.29000   0.00000  Uiso   1.00
N90    N     0.48901   0.93120   0.30852   0.00000  Uiso   1.00
N91    N     0.51050   0.31477   0.56785   0.00000  Uiso   1.00
N92    N     0.30530   0.61465   0.30636   0.00000  Uiso   1.00
C93    C     0.12956   0.14153   0.12671   0.00000  Uiso   1.00
C94    C     0.10173   0.03217   0.14704   0.00000  Uiso   1.00
C95    C     0.16085   0.96772   0.17464   0.00000  Uiso   1.00
C96    C     0.12197   0.87048   0.18978   0.00000  Uiso   1.00
C97    C     0.09318   0.70544   0.22317   0.00000  Uiso   1.00
C98    C     0.11519   0.13187   0.07421   0.00000  Uiso   1.00
C99    C     0.18562   0.15126   0.04057   0.00000  Uiso   1.00
C100   C     0.15806   0.13797   0.99440   0.00000  Uiso   1.00
C101   C     0.15014   0.12780   0.91472   0.00000  Uiso   1.00
C102   C     0.05238   0.22075   0.14366   0.00000  Uiso   1.00
C103   C     0.07000   0.31490   0.16841   0.00000  Uiso   1.00
C104   C     0.98955   0.37646   0.18070   0.00000  Uiso   1.00
C105   C     0.88412   0.50429   0.20885   0.00000  Uiso   1.00
C106   C     0.95538   0.08346   0.10451   0.00000  Uiso   1.00
C107   C     0.00713   0.00063   0.13498   0.00000  Uiso   1.00
C108   C     0.96814   0.90346   0.15009   0.00000  Uiso   1.00
C109   C     0.02719   0.83888   0.17771   0.00000  Uiso   1.00
C110   C     0.02059   0.10033   0.06215   0.00000  Uiso   1.00
C111   C     0.99291   0.08701   0.01602   0.00000  Uiso   1.00
C112   C     0.06328   0.10637   0.98233   0.00000  Uiso   1.00
C113   C     0.95777   0.18921   0.13161   0.00000  Uiso   1.00
C114   C     0.87729   0.25064   0.14386   0.00000  Uiso   1.00
C115   C     0.89478   0.34486   0.16863   0.00000  Uiso   1.00
H116   H     0.20321   0.16609   0.13609   0.00000  Uiso   1.00
H117   H     0.23406   0.99215   0.18396   0.00000  Uiso   1.00
H118   H     0.25882   0.17568   0.04991   0.00000  Uiso   1.00
H119   H     0.14322   0.33928   0.17773   0.00000  Uiso   1.00
H120   H     0.22656   0.78538   0.23170   0.00000  Uiso   1.00
H121   H     0.27876   0.17240   0.94906   0.00000  Uiso   1.00
H122   H     0.03499   0.51739   0.21859   0.00000  Uiso   1.00
H123   H     0.88172   0.05890   0.09513   0.00000  Uiso   1.00
H124   H     0.89493   0.87908   0.14076   0.00000  Uiso   1.00
H125   H     0.91969   0.06261   0.00671   0.00000  Uiso   1.00
H126   H     0.80409   0.22621   0.13453   0.00000  Uiso   1.00
H127   H     0.95131   0.69360   0.19664   0.00000  Uiso   1.00
H128   H     0.00351   0.08063   0.91399   0.00000  Uiso   1.00
H129   H     0.75973   0.42561   0.18352   0.00000  Uiso   1.00
O130   O     0.10344   0.62311   0.24491   0.00000  Uiso   1.00
O131   O     0.17192   0.13089   0.87409   0.00000  Uiso   1.00
O132   O     0.85209   0.58350   0.22771   0.00000  Uiso   1.00
N133   N     0.15996   0.78847   0.21720   0.00000  Uiso   1.00
N134   N     0.20877   0.15029   0.95294   0.00000  Uiso   1.00
N135   N     0.98086   0.47284   0.20492   0.00000  Uiso   1.00
N136   N     0.01185   0.73908   0.19833   0.00000  Uiso   1.00
N137   N     0.06066   0.10091   0.93407   0.00000  Uiso   1.00
N138   N     0.83275   0.42346   0.18605   0.00000  Uiso   1.00
C139   C     0.90241   0.65979   0.87642   0.00000  Uiso   1.00
C140   C     0.92767   0.77098   0.85719   0.00000  Uiso   1.00
C141   C     0.86563   0.83715   0.83192   0.00000  Uiso   1.00
C142   C     0.90250   0.93588   0.81744   0.00000  Uiso   1.00
C143   C     0.92719   0.10378   0.78602   0.00000  Uiso   1.00
C144   C     0.92175   0.66528   0.92866   0.00000  Uiso   1.00
C145   C     0.85472   0.64257   0.96348   0.00000  Uiso   1.00
C146   C     0.88661   0.65231   0.00918   0.00000  Uiso   1.00
C147   C     0.90211   0.65603   0.08871   0.00000  Uiso   1.00
C148   C     0.97829   0.58265   0.85659   0.00000  Uiso   1.00
C149   C     0.95882   0.49043   0.83082   0.00000  Uiso   1.00
C150   C     0.03833   0.43059   0.81585   0.00000  Uiso   1.00
C151   C     0.14163   0.30601   0.78348   0.00000  Uiso   1.00
C152   C     0.07822   0.71746   0.89566   0.00000  Uiso   1.00
C153   C     0.02317   0.80230   0.86764   0.00000  Uiso   1.00
C154   C     0.06015   0.90095   0.85320   0.00000  Uiso   1.00
C155   C     0.99817   0.96726   0.82791   0.00000  Uiso   1.00
C156   C     0.01724   0.69660   0.93912   0.00000  Uiso   1.00
C157   C     0.04924   0.70637   0.98477   0.00000  Uiso   1.00
C158   C     0.98228   0.68369   0.01965   0.00000  Uiso   1.00
C159   C     0.07379   0.61397   0.86704   0.00000  Uiso   1.00
C160   C     0.15334   0.55425   0.85211   0.00000  Uiso   1.00
C161   C     0.13399   0.46197   0.82632   0.00000  Uiso   1.00
H162   H     0.82806   0.63540   0.86829   0.00000  Uiso   1.00
H163   H     0.79173   0.81288   0.82384   0.00000  Uiso   1.00
H164   H     0.78083   0.61832   0.95538   0.00000  Uiso   1.00
H165   H     0.88491   0.46622   0.82274   0.00000  Uiso   1.00
H166   H     0.79355   0.02348   0.77918   0.00000  Uiso   1.00
H167   H     0.77057   0.61320   0.05655   0.00000  Uiso   1.00
H168   H     0.99005   0.29246   0.77685   0.00000  Uiso   1.00
H169   H     0.15257   0.74185   0.90380   0.00000  Uiso   1.00
H170   H     0.13405   0.92517   0.86130   0.00000  Uiso   1.00
H171   H     0.12314   0.73061   0.99284   0.00000  Uiso   1.00
H172   H     0.22723   0.57851   0.86020   0.00000  Uiso   1.00
H173   H     0.07139   0.11462   0.80959   0.00000  Uiso   1.00
H174   H     0.04841   0.70433   0.08696   0.00000  Uiso   1.00
H175   H     0.26789   0.38360   0.80726   0.00000  Uiso   1.00
O176   O     0.91442   0.18774   0.76580   0.00000  Uiso   1.00
O177   O     0.88428   0.64945   0.12970   0.00000  Uiso   1.00
O178   O     0.17223   0.22866   0.76274   0.00000  Uiso   1.00
N179   N     0.86149   0.01976   0.79216   0.00000  Uiso   1.00
N180   N     0.84000   0.63619   0.05149   0.00000  Uiso   1.00
N181   N     0.04519   0.33631   0.79000   0.00000  Uiso   1.00
N182   N     0.01099   0.06880   0.80852   0.00000  Uiso   1.00
N183   N     0.98950   0.68523   0.06785   0.00000  Uiso   1.00
N184   N     0.19470   0.38535   0.80636   0.00000  Uiso   1.00
C185   C     0.62956   0.35847   0.87329   0.00000  Uiso   1.00
C186   C     0.60173   0.46783   0.85296   0.00000  Uiso   1.00
C187   C     0.66085   0.53228   0.82536   0.00000  Uiso   1.00
C188   C     0.62197   0.62952   0.81022   0.00000  Uiso   1.00
C189   C     0.59318   0.79456   0.77683   0.00000  Uiso   1.00
C190   C     0.61519   0.36813   0.92579   0.00000  Uiso   1.00
C191   C     0.68562   0.34874   0.95943   0.00000  Uiso   1.00
C192   C     0.65806   0.36203   0.00560   0.00000  Uiso   1.00
C193   C     0.65014   0.37220   0.08528   0.00000  Uiso   1.00
C194   C     0.55238   0.27925   0.85634   0.00000  Uiso   1.00
C195   C     0.57000   0.18510   0.83159   0.00000  Uiso   1.00
C196   C     0.48955   0.12354   0.81930   0.00000  Uiso   1.00
C197   C     0.38412   0.99571   0.79115   0.00000  Uiso   1.00
C198   C     0.45538   0.41654   0.89549   0.00000  Uiso   1.00
C199   C     0.50713   0.49937   0.86502   0.00000  Uiso   1.00
C200   C     0.46814   0.59654   0.84991   0.00000  Uiso   1.00
C201   C     0.52719   0.66112   0.82229   0.00000  Uiso   1.00
C202   C     0.52059   0.39967   0.93785   0.00000  Uiso   1.00
C203   C     0.49291   0.41299   0.98398   0.00000  Uiso   1.00
C204   C     0.56328   0.39363   0.01767   0.00000  Uiso   1.00
C205   C     0.45777   0.31079   0.86839   0.00000  Uiso   1.00
C206   C     0.37729   0.24936   0.85614   0.00000  Uiso   1.00
C207   C     0.39478   0.15514   0.83137   0.00000  Uiso   1.00
H208   H     0.70321   0.33391   0.86391   0.00000  Uiso   1.00
H209   H     0.73406   0.50785   0.81604   0.00000  Uiso   1.00
H210   H     0.75882   0.32432   0.95009   0.00000  Uiso   1.00
H211   H     0.64322   0.16072   0.82227   0.00000  Uiso   1.00
H212   H     0.72656   0.71462   0.76830   0.00000  Uiso   1.00
H213   H     0.77876   0.32760   0.05094   0.00000  Uiso   1.00
H214   H     0.53499   0.98261   0.78141   0.00000  Uiso   1.00
H215   H     0.38172   0.44110   0.90487   0.00000  Uiso   1.00
H216   H     0.39493   0.62092   0.85924   0.00000  Uiso   1.00
H217   H     0.41969   0.43739   0.99329   0.00000  Uiso   1.00
H218   H     0.30409   0.27379   0.86547   0.00000  Uiso   1.00
H219   H     0.45131   0.80640   0.80336   0.00000  Uiso   1.00
H220   H     0.50351   0.41937   0.08601   0.00000  Uiso   1.00
H221   H     0.25973   0.07439   0.81648   0.00000  Uiso   1.00
O222   O     0.60344   0.87689   0.75509   0.00000  Uiso   1.00
O223   O     0.67192   0.36911   0.12591   0.00000  Uiso   1.00
O224   O     0.35209   0.91650   0.77229   0.00000  Uiso   1.00
N225   N     0.65996   0.71153   0.78280   0.00000  Uiso   1.00
N226   N     0.70877   0.34971   0.04706   0.00000  Uiso   1.00
N227   N     0.48086   0.02716   0.79508   0.00000  Uiso   1.00
N228   N     0.51185   0.76092   0.80167   0.00000  Uiso   1.00
N229   N     0.56066   0.39909   0.06593   0.00000  Uiso   1.00
N230   N     0.33275   0.07654   0.81395   0.00000  Uiso   1.00
C231   C     0.40241   0.84021   0.12358   0.00000  Uiso   1.00
C232   C     0.42767   0.72902   0.14281   0.00000  Uiso   1.00
C233   C     0.36563   0.66285   0.16808   0.00000  Uiso   1.00
C234   C     0.40250   0.56412   0.18256   0.00000  Uiso   1.00
C235   C     0.42719   0.39622   0.21398   0.00000  Uiso   1.00
C236   C     0.42175   0.83472   0.07134   0.00000  Uiso   1.00
C237   C     0.35472   0.85743   0.03652   0.00000  Uiso   1.00
C238   C     0.38661   0.84769   0.99082   0.00000  Uiso   1.00
C239   C     0.40211   0.84397   0.91129   0.00000  Uiso   1.00
C240   C     0.47829   0.91735   0.14341   0.00000  Uiso   1.00
C241   C     0.45882   0.00957   0.16918   0.00000  Uiso   1.00
C242   C     0.53833   0.06941   0.18415   0.00000  Uiso   1.00
C243   C     0.64163   0.19399   0.21652   0.00000  Uiso   1.00
C244   C     0.57822   0.78254   0.10434   0.00000  Uiso   1.00
C245   C     0.52317   0.69770   0.13236   0.00000  Uiso   1.00
C246   C     0.56015   0.59905   0.14680   0.00000  Uiso   1.00
C247   C     0.49817   0.53274   0.17209   0.00000  Uiso   1.00
C248   C     0.51724   0.80340   0.06088   0.00000  Uiso   1.00
C249   C     0.54924   0.79363   0.01523   0.00000  Uiso   1.00
C250   C     0.48228   0.81631   0.98035   0.00000  Uiso   1.00
C251   C     0.57379   0.88603   0.13296   0.00000  Uiso   1.00
C252   C     0.65334   0.94575   0.14789   0.00000  Uiso   1.00
C253   C     0.63399   0.03803   0.17368   0.00000  Uiso   1.00
H254   H     0.32806   0.86460   0.13171   0.00000  Uiso   1.00
H255   H     0.29173   0.68712   0.17616   0.00000  Uiso   1.00
H256   H     0.28083   0.88168   0.04462   0.00000  Uiso   1.00
H257   H     0.38491   0.03378   0.17726   0.00000  Uiso   1.00
H258   H     0.29355   0.47652   0.22082   0.00000  Uiso   1.00
H259   H     0.27057   0.88680   0.94345   0.00000  Uiso   1.00
H260   H     0.49005   0.20754   0.22315   0.00000  Uiso   1.00
H261   H     0.65257   0.75815   0.09620   0.00000  Uiso   1.00
H262   H     0.63405   0.57483   0.13870   0.00000  Uiso   1.00
H263   H     0.62314   0.76939   0.00716   0.00000  Uiso   1.00
H264   H     0.72723   0.92149   0.13980   0.00000  Uiso   1.00
H265   H     0.57139   0.38538   0.19041   0.00000  Uiso   1.00
H266   H     0.54841   0.79567   0.91304   0.00000  Uiso   1.00
H267   H     0.76789   0.11640   0.19274   0.00000  Uiso   1.00
O268   O     0.41442   0.31226   0.23420   0.00000  Uiso   1.00
O269   O     0.38428   0.85055   0.87030   0.00000  Uiso   1.00
O270   O     0.67223   0.27134   0.23726   0.00000  Uiso   1.00
N271   N     0.36149   0.48024   0.20784   0.00000  Uiso   1.00
N272   N     0.34000   0.86381   0.94851   0.00000  Uiso   1.00
N273   N     0.54519   0.16369   0.21000   0.00000  Uiso   1.00
N274   N     0.51099   0.43120   0.19148   0.00000  Uiso   1.00
N275   N     0.48950   0.81477   0.93215   0.00000  Uiso   1.00
N276   N     0.69470   0.11465   0.19364   0.00000  Uiso   1.00
C277   C     0.87044   0.64153   0.37329   0.00000  Uiso   1.00
C278   C     0.89827   0.53217   0.35296   0.00000  Uiso   1.00
C279   C     0.83915   0.46772   0.32536   0.00000  Uiso   1.00
C280   C     0.87803   0.37048   0.31022   0.00000  Uiso   1.00
C281   C     0.90682   0.20544   0.27683   0.00000  Uiso   1.00
C282   C     0.88481   0.63187   0.42579   0.00000  Uiso   1.00
C283   C     0.81438   0.65126   0.45943   0.00000  Uiso   1.00
C284   C     0.84194   0.63797   0.50560   0.00000  Uiso   1.00
C285   C     0.84986   0.62780   0.58528   0.00000  Uiso   1.00
C286   C     0.94762   0.72075   0.35634   0.00000  Uiso   1.00
C287   C     0.93000   0.81490   0.33159   0.00000  Uiso   1.00
C288   C     0.01045   0.87646   0.31930   0.00000  Uiso   1.00
C289   C     0.11588   0.00429   0.29115   0.00000  Uiso   1.00
C290   C     0.04462   0.58346   0.39549   0.00000  Uiso   1.00
C291   C     0.99287   0.50063   0.36502   0.00000  Uiso   1.00
C292   C     0.03186   0.40346   0.34991   0.00000  Uiso   1.00
C293   C     0.97281   0.33888   0.32229   0.00000  Uiso   1.00
C294   C     0.97941   0.60033   0.43785   0.00000  Uiso   1.00
C295   C     0.00709   0.58701   0.48398   0.00000  Uiso   1.00
C296   C     0.93672   0.60637   0.51767   0.00000  Uiso   1.00
C297   C     0.04223   0.68921   0.36839   0.00000  Uiso   1.00
C298   C     0.12271   0.75064   0.35614   0.00000  Uiso   1.00
C299   C     0.10522   0.84486   0.33137   0.00000  Uiso   1.00
H300   H     0.79679   0.66609   0.36391   0.00000  Uiso   1.00
H301   H     0.76594   0.49215   0.31604   0.00000  Uiso   1.00
H302   H     0.74118   0.67568   0.45009   0.00000  Uiso   1.00
H303   H     0.85678   0.83928   0.32227   0.00000  Uiso   1.00
H304   H     0.77344   0.28538   0.26830   0.00000  Uiso   1.00
H305   H     0.72124   0.67240   0.55094   0.00000  Uiso   1.00
H306   H     0.96501   0.01739   0.28141   0.00000  Uiso   1.00
H307   H     0.11828   0.55890   0.40487   0.00000  Uiso   1.00
H308   H     0.10507   0.37908   0.35924   0.00000  Uiso   1.00
H309   H     0.08031   0.56261   0.49329   0.00000  Uiso   1.00
H310   H     0.19591   0.72621   0.36547   0.00000  Uiso   1.00
H311   H     0.04869   0.19360   0.30336   0.00000  Uiso   1.00
H312   H     0.99649   0.58063   0.58601   0.00000  Uiso   1.00
H313   H     0.24027   0.92561   0.31648   0.00000  Uiso   1.00
O314   O     0.89656   0.12311   0.25509   0.00000  Uiso   1.00
O315   O     0.82808   0.63089   0.62591   0.00000  Uiso   1.00
O316   O     0.14791   0.08350   0.27229   0.00000  Uiso   1.00
N317   N     0.84004   0.28847   0.28280   0.00000  Uiso   1.00
N318   N     0.79123   0.65029   0.54706   0.00000  Uiso   1.00
N319   N     0.01914   0.97284   0.29508   0.00000  Uiso   1.00
N320   N     0.98815   0.23908   0.30167   0.00000  Uiso   1.00
N321   N     0.93934   0.60091   0.56593   0.00000  Uiso   1.00
N322   N     0.16725   0.92346   0.31395   0.00000  Uiso   1.00
C323   C     0.09759   0.15979   0.62358   0.00000  Uiso   1.00
C324   C     0.07233   0.27098   0.64281   0.00000  Uiso   1.00
C325   C     0.13437   0.33715   0.66808   0.00000  Uiso   1.00
C326   C     0.09750   0.43588   0.68256   0.00000  Uiso   1.00
C327   C     0.07281   0.60378   0.71398   0.00000  Uiso   1.00
C328   C     0.07825   0.16528   0.57134   0.00000  Uiso   1.00
C329   C     0.14528   0.14257   0.53652   0.00000  Uiso   1.00
C330   C     0.11339   0.15231   0.49082   0.00000  Uiso   1.00
C331   C     0.09789   0.15603   0.41129   0.00000  Uiso   1.00
C332   C     0.02171   0.08265   0.64341   0.00000  Uiso   1.00
C333   C     0.04118   0.99043   0.66918   0.00000  Uiso   1.00
C334   C     0.96167   0.93059   0.68415   0.00000  Uiso   1.00
C335   C     0.85837   0.80601   0.71652   0.00000  Uiso   1.00
C336   C     0.92178   0.21746   0.60434   0.00000  Uiso   1.00
C337   C     0.97683   0.30230   0.63236   0.00000  Uiso   1.00
C338   C     0.93985   0.40095   0.64680   0.00000  Uiso   1.00
C339   C     0.00183   0.46726   0.67209   0.00000  Uiso   1.00
C340   C     0.98276   0.19660   0.56088   0.00000  Uiso   1.00
C341   C     0.95076   0.20637   0.51523   0.00000  Uiso   1.00
C342   C     0.01772   0.18369   0.48035   0.00000  Uiso   1.00
C343   C     0.92621   0.11397   0.63296   0.00000  Uiso   1.00
C344   C     0.84666   0.05425   0.64789   0.00000  Uiso   1.00
C345   C     0.86601   0.96197   0.67368   0.00000  Uiso   1.00
H346   H     0.17194   0.13540   0.63171   0.00000  Uiso   1.00
H347   H     0.20827   0.31288   0.67616   0.00000  Uiso   1.00
H348   H     0.21917   0.11832   0.54462   0.00000  Uiso   1.00
H349   H     0.11509   0.96622   0.67726   0.00000  Uiso   1.00
H350   H     0.20645   0.52348   0.72082   0.00000  Uiso   1.00
H351   H     0.22943   0.11320   0.44345   0.00000  Uiso   1.00
H352   H     0.00995   0.79246   0.72315   0.00000  Uiso   1.00
H353   H     0.84743   0.24185   0.59620   0.00000  Uiso   1.00
H354   H     0.86595   0.42517   0.63870   0.00000  Uiso   1.00
H355   H     0.87686   0.23061   0.50716   0.00000  Uiso   1.00
H356   H     0.77277   0.07851   0.63980   0.00000  Uiso   1.00
H357   H     0.92861   0.61462   0.69041   0.00000  Uiso   1.00
H358   H     0.95159   0.20433   0.41304   0.00000  Uiso   1.00
H359   H     0.73211   0.88360   0.69274   0.00000  Uiso   1.00
O360   O     0.08558   0.68774   0.73420   0.00000  Uiso   1.00
O361   O     0.11572   0.14945   0.37030   0.00000  Uiso   1.00
O362   O     0.82777   0.72866   0.73726   0.00000  Uiso   1.00
N363   N     0.13851   0.51976   0.70784   0.00000  Uiso   1.00
N364   N     0.16000   0.13619   0.44851   0.00000  Uiso   1.00
N365   N     0.95481   0.83631   0.71000   0.00000  Uiso   1.00
N366   N     0.98901   0.56880   0.69148   0.00000  Uiso   1.00
N367   N     0.01050   0.18523   0.43215   0.00000  Uiso   1.00
N368   N     0.80530   0.88535   0.69364   0.00000  Uiso   1.00
