data_job_03410
_audit_creation_date              2018-12-19
_audit_creation_method            'Materials Studio'
_symmetry_space_group_name_H-M    'P1'
_symmetry_Int_Tables_number       1
_symmetry_cell_setting            triclinic
loop_
_symmetry_equiv_pos_as_xyz
  x,y,z
_cell_length_a                    19.7077
_cell_length_b                    18.3563
_cell_length_c                    11.6713
_cell_angle_alpha                 90.0000
_cell_angle_beta                  142.8030
_cell_angle_gamma                 90.0000
loop_
_atom_site_label
_atom_site_type_symbol
_atom_site_fract_x
_atom_site_fract_y
_atom_site_fract_z
_atom_site_U_iso_or_equiv
_atom_site_adp_type
_atom_site_occupancy
C1     C     0.61770   0.55883   0.37972   0.00000  Uiso   1.00
C2     C     0.68130   0.52550   0.56581   0.00000  Uiso   1.00
C3     C     0.65819   0.45882   0.58553   0.00000  Uiso   1.00
C4     C     0.72608   0.43802   0.76782   0.00000  Uiso   1.00
C5     C     0.81144   0.37954   0.03291   0.00000  Uiso   1.00
C6     C     0.57737   0.63329   0.36622   0.00000  Uiso   1.00
C7     C     0.46689   0.65724   0.21812   0.00000  Uiso   1.00
C8     C     0.44730   0.72718   0.23240   0.00000  Uiso   1.00
C9     C     0.37133   0.83608   0.18756   0.00000  Uiso   1.00
C10    C     0.70520   0.57364   0.40495   0.00000  Uiso   1.00
C11    C     0.70217   0.54744   0.28938   0.00000  Uiso   1.00
C12    C     0.79019   0.56718   0.33625   0.00000  Uiso   1.00
C13    C     0.91268   0.58345   0.35154   0.00000  Uiso   1.00
C14    C     0.77936   0.64047   0.66840   0.00000  Uiso   1.00
C15    C     0.76911   0.56985   0.72260   0.00000  Uiso   1.00
C16    C     0.83705   0.54915   0.90492   0.00000  Uiso   1.00
C17    C     0.81405   0.48244   0.92491   0.00000  Uiso   1.00
C18    C     0.66518   0.67764   0.52302   0.00000  Uiso   1.00
C19    C     0.64575   0.74757   0.53751   0.00000  Uiso   1.00
C20    C     0.53527   0.77161   0.38948   0.00000  Uiso   1.00
C21    C     0.79301   0.61799   0.56176   0.00000  Uiso   1.00
C22    C     0.88104   0.63777   0.60879   0.00000  Uiso   1.00
C23    C     0.87816   0.61161   0.49333   0.00000  Uiso   1.00
H24    H     0.54933   0.52431   0.25764   0.00000  Uiso   1.00
H25    H     0.59022   0.42451   0.46414   0.00000  Uiso   1.00
H26    H     0.39895   0.62291   0.09679   0.00000  Uiso   1.00
H27    H     0.63421   0.51313   0.16806   0.00000  Uiso   1.00
H28    H     0.67425   0.33345   0.76223   0.00000  Uiso   1.00
H29    H     0.27096   0.75178   0.98762   0.00000  Uiso   1.00
H30    H     0.76703   0.52029   0.13789   0.00000  Uiso   1.00
H31    H     0.84773   0.67500   0.79048   0.00000  Uiso   1.00
H32    H     0.90500   0.58348   0.02623   0.00000  Uiso   1.00
H33    H     0.71373   0.78187   0.65887   0.00000  Uiso   1.00
H34    H     0.94898   0.67209   0.73014   0.00000  Uiso   1.00
H35    H     0.92973   0.46247   0.21844   0.00000  Uiso   1.00
H36    H     0.52644   0.88081   0.44382   0.00000  Uiso   1.00
H37    H     0.02252   0.64931   0.59410   0.00000  Uiso   1.00
O38    O     0.83426   0.33504   0.13580   0.00000  Uiso   1.00
O39    O     0.30516   0.88389   0.11951   0.00000  Uiso   1.00
O40    O     0.95600   0.58017   0.31668   0.00000  Uiso   1.00
N41    N     0.72653   0.37637   0.83725   0.00000  Uiso   1.00
N42    N     0.34948   0.76748   0.11304   0.00000  Uiso   1.00
N43    N     0.81325   0.55107   0.25351   0.00000  Uiso   1.00
N44    N     0.86401   0.44579   0.08274   0.00000  Uiso   1.00
N45    N     0.48695   0.83691   0.35853   0.00000  Uiso   1.00
N46    N     0.95072   0.62049   0.49899   0.00000  Uiso   1.00
C47    C     0.38230   0.05883   0.12028   0.00000  Uiso   1.00
C48    C     0.31870   0.02550   0.93419   0.00000  Uiso   1.00
C49    C     0.34181   0.95882   0.91447   0.00000  Uiso   1.00
C50    C     0.27392   0.93802   0.73218   0.00000  Uiso   1.00
C51    C     0.18856   0.87954   0.46709   0.00000  Uiso   1.00
C52    C     0.42263   0.13329   0.13378   0.00000  Uiso   1.00
C53    C     0.53311   0.15724   0.28188   0.00000  Uiso   1.00
C54    C     0.55270   0.22718   0.26760   0.00000  Uiso   1.00
C55    C     0.62867   0.33608   0.31244   0.00000  Uiso   1.00
C56    C     0.29480   0.07364   0.09505   0.00000  Uiso   1.00
C57    C     0.29783   0.04744   0.21062   0.00000  Uiso   1.00
C58    C     0.20981   0.06718   0.16375   0.00000  Uiso   1.00
C59    C     0.08732   0.08345   0.14846   0.00000  Uiso   1.00
C60    C     0.22064   0.14047   0.83160   0.00000  Uiso   1.00
C61    C     0.23089   0.06985   0.77740   0.00000  Uiso   1.00
C62    C     0.16295   0.04915   0.59508   0.00000  Uiso   1.00
C63    C     0.18595   0.98244   0.57509   0.00000  Uiso   1.00
C64    C     0.33482   0.17764   0.97698   0.00000  Uiso   1.00
C65    C     0.35425   0.24757   0.96249   0.00000  Uiso   1.00
C66    C     0.46473   0.27161   0.11052   0.00000  Uiso   1.00
C67    C     0.20699   0.11799   0.93824   0.00000  Uiso   1.00
C68    C     0.11896   0.13777   0.89121   0.00000  Uiso   1.00
C69    C     0.12184   0.11161   0.00667   0.00000  Uiso   1.00
H70    H     0.45067   0.02431   0.24236   0.00000  Uiso   1.00
H71    H     0.40978   0.92451   0.03586   0.00000  Uiso   1.00
H72    H     0.60105   0.12291   0.40321   0.00000  Uiso   1.00
H73    H     0.36579   0.01313   0.33194   0.00000  Uiso   1.00
H74    H     0.32575   0.83345   0.73777   0.00000  Uiso   1.00
H75    H     0.72904   0.25178   0.51238   0.00000  Uiso   1.00
H76    H     0.23297   0.02029   0.36211   0.00000  Uiso   1.00
H77    H     0.15227   0.17500   0.70952   0.00000  Uiso   1.00
H78    H     0.09500   0.08348   0.47377   0.00000  Uiso   1.00
H79    H     0.28627   0.28187   0.84113   0.00000  Uiso   1.00
H80    H     0.05102   0.17209   0.76986   0.00000  Uiso   1.00
H81    H     0.07027   0.96247   0.28156   0.00000  Uiso   1.00
H82    H     0.47356   0.38081   0.05618   0.00000  Uiso   1.00
H83    H     0.97748   0.14931   0.90590   0.00000  Uiso   1.00
O84    O     0.16574   0.83504   0.36420   0.00000  Uiso   1.00
O85    O     0.69484   0.38389   0.38049   0.00000  Uiso   1.00
O86    O     0.04400   0.08017   0.18332   0.00000  Uiso   1.00
N87    N     0.27347   0.87637   0.66275   0.00000  Uiso   1.00
N88    N     0.65052   0.26748   0.38696   0.00000  Uiso   1.00
N89    N     0.18675   0.05107   0.24649   0.00000  Uiso   1.00
N90    N     0.13599   0.94579   0.41726   0.00000  Uiso   1.00
N91    N     0.51305   0.33691   0.14147   0.00000  Uiso   1.00
N92    N     0.04928   0.12049   0.00101   0.00000  Uiso   1.00
C93    C     0.38230   0.44117   0.62028   0.00000  Uiso   1.00
C94    C     0.31870   0.47450   0.43419   0.00000  Uiso   1.00
C95    C     0.34181   0.54118   0.41447   0.00000  Uiso   1.00
C96    C     0.27392   0.56198   0.23218   0.00000  Uiso   1.00
C97    C     0.18856   0.62046   0.96709   0.00000  Uiso   1.00
C98    C     0.42263   0.36671   0.63378   0.00000  Uiso   1.00
C99    C     0.53311   0.34276   0.78188   0.00000  Uiso   1.00
C100   C     0.55270   0.27282   0.76760   0.00000  Uiso   1.00
C101   C     0.62867   0.16392   0.81244   0.00000  Uiso   1.00
C102   C     0.29480   0.42636   0.59505   0.00000  Uiso   1.00
C103   C     0.29783   0.45256   0.71062   0.00000  Uiso   1.00
C104   C     0.20981   0.43282   0.66375   0.00000  Uiso   1.00
C105   C     0.08732   0.41655   0.64846   0.00000  Uiso   1.00
C106   C     0.22064   0.35953   0.33160   0.00000  Uiso   1.00
C107   C     0.23089   0.43015   0.27740   0.00000  Uiso   1.00
C108   C     0.16295   0.45085   0.09508   0.00000  Uiso   1.00
C109   C     0.18595   0.51756   0.07509   0.00000  Uiso   1.00
C110   C     0.33482   0.32236   0.47698   0.00000  Uiso   1.00
C111   C     0.35425   0.25243   0.46249   0.00000  Uiso   1.00
C112   C     0.46473   0.22839   0.61052   0.00000  Uiso   1.00
C113   C     0.20699   0.38201   0.43824   0.00000  Uiso   1.00
C114   C     0.11896   0.36223   0.39121   0.00000  Uiso   1.00
C115   C     0.12184   0.38839   0.50667   0.00000  Uiso   1.00
H116   H     0.45067   0.47569   0.74236   0.00000  Uiso   1.00
H117   H     0.40978   0.57549   0.53586   0.00000  Uiso   1.00
H118   H     0.60105   0.37709   0.90321   0.00000  Uiso   1.00
H119   H     0.36579   0.48687   0.83194   0.00000  Uiso   1.00
H120   H     0.32575   0.66655   0.23777   0.00000  Uiso   1.00
H121   H     0.72904   0.24822   0.01238   0.00000  Uiso   1.00
H122   H     0.23297   0.47971   0.86211   0.00000  Uiso   1.00
H123   H     0.15227   0.32500   0.20952   0.00000  Uiso   1.00
H124   H     0.09500   0.41652   0.97377   0.00000  Uiso   1.00
H125   H     0.28627   0.21813   0.34113   0.00000  Uiso   1.00
H126   H     0.05102   0.32791   0.26986   0.00000  Uiso   1.00
H127   H     0.07027   0.53753   0.78156   0.00000  Uiso   1.00
H128   H     0.47356   0.11919   0.55618   0.00000  Uiso   1.00
H129   H     0.97748   0.35069   0.40590   0.00000  Uiso   1.00
O130   O     0.16574   0.66496   0.86420   0.00000  Uiso   1.00
O131   O     0.69484   0.11611   0.88049   0.00000  Uiso   1.00
O132   O     0.04400   0.41983   0.68332   0.00000  Uiso   1.00
N133   N     0.27347   0.62363   0.16275   0.00000  Uiso   1.00
N134   N     0.65052   0.23252   0.88696   0.00000  Uiso   1.00
N135   N     0.18675   0.44893   0.74649   0.00000  Uiso   1.00
N136   N     0.13599   0.55421   0.91726   0.00000  Uiso   1.00
N137   N     0.51305   0.16309   0.64147   0.00000  Uiso   1.00
N138   N     0.04928   0.37951   0.50101   0.00000  Uiso   1.00
C139   C     0.61770   0.94117   0.87972   0.00000  Uiso   1.00
C140   C     0.68130   0.97450   0.06581   0.00000  Uiso   1.00
C141   C     0.65819   0.04118   0.08553   0.00000  Uiso   1.00
C142   C     0.72608   0.06198   0.26782   0.00000  Uiso   1.00
C143   C     0.81144   0.12046   0.53291   0.00000  Uiso   1.00
C144   C     0.57737   0.86671   0.86622   0.00000  Uiso   1.00
C145   C     0.46689   0.84276   0.71812   0.00000  Uiso   1.00
C146   C     0.44730   0.77282   0.73240   0.00000  Uiso   1.00
C147   C     0.37133   0.66392   0.68756   0.00000  Uiso   1.00
C148   C     0.70520   0.92636   0.90495   0.00000  Uiso   1.00
C149   C     0.70217   0.95256   0.78938   0.00000  Uiso   1.00
C150   C     0.79019   0.93282   0.83625   0.00000  Uiso   1.00
C151   C     0.91268   0.91655   0.85154   0.00000  Uiso   1.00
C152   C     0.77936   0.85953   0.16840   0.00000  Uiso   1.00
C153   C     0.76911   0.93015   0.22260   0.00000  Uiso   1.00
C154   C     0.83705   0.95085   0.40492   0.00000  Uiso   1.00
C155   C     0.81405   0.01756   0.42491   0.00000  Uiso   1.00
C156   C     0.66518   0.82236   0.02302   0.00000  Uiso   1.00
C157   C     0.64575   0.75243   0.03751   0.00000  Uiso   1.00
C158   C     0.53527   0.72839   0.88948   0.00000  Uiso   1.00
C159   C     0.79301   0.88201   0.06176   0.00000  Uiso   1.00
C160   C     0.88104   0.86223   0.10879   0.00000  Uiso   1.00
C161   C     0.87816   0.88839   0.99333   0.00000  Uiso   1.00
H162   H     0.54933   0.97569   0.75764   0.00000  Uiso   1.00
H163   H     0.59022   0.07549   0.96414   0.00000  Uiso   1.00
H164   H     0.39895   0.87709   0.59679   0.00000  Uiso   1.00
H165   H     0.63421   0.98687   0.66806   0.00000  Uiso   1.00
H166   H     0.67425   0.16655   0.26223   0.00000  Uiso   1.00
H167   H     0.27096   0.74822   0.48762   0.00000  Uiso   1.00
H168   H     0.76703   0.97971   0.63789   0.00000  Uiso   1.00
H169   H     0.84773   0.82500   0.29048   0.00000  Uiso   1.00
H170   H     0.90500   0.91652   0.52623   0.00000  Uiso   1.00
H171   H     0.71373   0.71813   0.15887   0.00000  Uiso   1.00
H172   H     0.94898   0.82791   0.23014   0.00000  Uiso   1.00
H173   H     0.92973   0.03753   0.71844   0.00000  Uiso   1.00
H174   H     0.52644   0.61919   0.94382   0.00000  Uiso   1.00
H175   H     0.02252   0.85069   0.09410   0.00000  Uiso   1.00
O176   O     0.83426   0.16496   0.63580   0.00000  Uiso   1.00
O177   O     0.30516   0.61611   0.61951   0.00000  Uiso   1.00
O178   O     0.95600   0.91983   0.81668   0.00000  Uiso   1.00
N179   N     0.72653   0.12363   0.33725   0.00000  Uiso   1.00
N180   N     0.34948   0.73252   0.61304   0.00000  Uiso   1.00
N181   N     0.81325   0.94893   0.75351   0.00000  Uiso   1.00
N182   N     0.86401   0.05421   0.58274   0.00000  Uiso   1.00
N183   N     0.48695   0.66309   0.85853   0.00000  Uiso   1.00
N184   N     0.95072   0.87951   0.99899   0.00000  Uiso   1.00
