data_job_03529
_audit_creation_date              2018-12-19
_audit_creation_method            'Materials Studio'
_symmetry_space_group_name_H-M    'P1'
_symmetry_Int_Tables_number       1
_symmetry_cell_setting            triclinic
loop_
_symmetry_equiv_pos_as_xyz
  x,y,z
_cell_length_a                    19.2284
_cell_length_b                    16.7676
_cell_length_c                    20.9012
_cell_angle_alpha                 90.0000
_cell_angle_beta                  90.0000
_cell_angle_gamma                 90.0000
loop_
_atom_site_label
_atom_site_type_symbol
_atom_site_fract_x
_atom_site_fract_y
_atom_site_fract_z
_atom_site_U_iso_or_equiv
_atom_site_adp_type
_atom_site_occupancy
C1     C     0.95417   0.45417   0.81738   0.00000  Uiso   1.00
C2     C     0.91221   0.44599   0.75582   0.00000  Uiso   1.00
C3     C     0.93685   0.46009   0.69445   0.00000  Uiso   1.00
C4     C     0.89029   0.44929   0.64442   0.00000  Uiso   1.00
C5     C     0.83558   0.44028   0.54715   0.00000  Uiso   1.00
C6     C     0.91410   0.51265   0.85938   0.00000  Uiso   1.00
C7     C     0.94033   0.58279   0.88508   0.00000  Uiso   1.00
C8     C     0.89536   0.62809   0.92223   0.00000  Uiso   1.00
C9     C     0.84360   0.72254   0.98578   0.00000  Uiso   1.00
C10    C     0.94950   0.37355   0.85086   0.00000  Uiso   1.00
C11    C     0.00550   0.32674   0.86942   0.00000  Uiso   1.00
C12    C     0.99034   0.25493   0.89942   0.00000  Uiso   1.00
C13    C     0.99355   0.13341   0.94974   0.00000  Uiso   1.00
C14    C     0.82767   0.40990   0.83768   0.00000  Uiso   1.00
C15    C     0.84350   0.42195   0.76684   0.00000  Uiso   1.00
C16    C     0.79689   0.41111   0.71690   0.00000  Uiso   1.00
C17    C     0.82146   0.42520   0.65546   0.00000  Uiso   1.00
C18    C     0.84539   0.48861   0.87040   0.00000  Uiso   1.00
C19    C     0.80037   0.53381   0.90753   0.00000  Uiso   1.00
C20    C     0.82652   0.60400   0.93328   0.00000  Uiso   1.00
C21    C     0.88079   0.34950   0.86188   0.00000  Uiso   1.00
C22    C     0.86554   0.27776   0.89187   0.00000  Uiso   1.00
C23    C     0.92151   0.23084   0.91046   0.00000  Uiso   1.00
H24    H     0.00766   0.47290   0.80880   0.00000  Uiso   1.00
H25    H     0.99003   0.47871   0.68594   0.00000  Uiso   1.00
H26    H     0.99351   0.60138   0.87655   0.00000  Uiso   1.00
H27    H     0.05867   0.34537   0.86088   0.00000  Uiso   1.00
H28    H     0.94017   0.47458   0.55458   0.00000  Uiso   1.00
H29    H     0.94751   0.73322   0.95650   0.00000  Uiso   1.00
H30    H     0.08492   0.19337   0.92348   0.00000  Uiso   1.00
H31    H     0.77417   0.39118   0.84626   0.00000  Uiso   1.00
H32    H     0.74372   0.39251   0.72544   0.00000  Uiso   1.00
H33    H     0.74720   0.51518   0.91605   0.00000  Uiso   1.00
H34    H     0.81236   0.25917   0.90039   0.00000  Uiso   1.00
H35    H     0.74025   0.40462   0.58664   0.00000  Uiso   1.00
H36    H     0.74760   0.66325   0.98857   0.00000  Uiso   1.00
H37    H     0.88501   0.12340   0.95555   0.00000  Uiso   1.00
O38    O     0.82439   0.44197   0.49046   0.00000  Uiso   1.00
O39    O     0.83403   0.78128   0.01778   0.00000  Uiso   1.00
O40    O     0.01431   0.07301   0.97445   0.00000  Uiso   1.00
N41    N     0.89730   0.45792   0.57870   0.00000  Uiso   1.00
N42    N     0.90416   0.69973   0.95447   0.00000  Uiso   1.00
N43    N     0.03263   0.19503   0.92361   0.00000  Uiso   1.00
N44    N     0.78973   0.42027   0.59596   0.00000  Uiso   1.00
N45    N     0.79659   0.66209   0.97173   0.00000  Uiso   1.00
N46    N     0.92506   0.15738   0.94087   0.00000  Uiso   1.00
C47    C     0.54583   0.04583   0.81738   0.00000  Uiso   1.00
C48    C     0.58779   0.05401   0.75582   0.00000  Uiso   1.00
C49    C     0.56315   0.03991   0.69445   0.00000  Uiso   1.00
C50    C     0.60971   0.05071   0.64442   0.00000  Uiso   1.00
C51    C     0.66442   0.05972   0.54715   0.00000  Uiso   1.00
C52    C     0.58590   0.98735   0.85938   0.00000  Uiso   1.00
C53    C     0.55967   0.91721   0.88508   0.00000  Uiso   1.00
C54    C     0.60464   0.87191   0.92223   0.00000  Uiso   1.00
C55    C     0.65640   0.77746   0.98578   0.00000  Uiso   1.00
C56    C     0.55050   0.12645   0.85086   0.00000  Uiso   1.00
C57    C     0.49450   0.17326   0.86942   0.00000  Uiso   1.00
C58    C     0.50966   0.24507   0.89942   0.00000  Uiso   1.00
C59    C     0.50645   0.36659   0.94974   0.00000  Uiso   1.00
C60    C     0.67233   0.09010   0.83768   0.00000  Uiso   1.00
C61    C     0.65650   0.07805   0.76684   0.00000  Uiso   1.00
C62    C     0.70311   0.08889   0.71690   0.00000  Uiso   1.00
C63    C     0.67854   0.07480   0.65546   0.00000  Uiso   1.00
C64    C     0.65461   0.01139   0.87040   0.00000  Uiso   1.00
C65    C     0.69963   0.96619   0.90753   0.00000  Uiso   1.00
C66    C     0.67348   0.89600   0.93328   0.00000  Uiso   1.00
C67    C     0.61921   0.15050   0.86188   0.00000  Uiso   1.00
C68    C     0.63446   0.22224   0.89187   0.00000  Uiso   1.00
C69    C     0.57849   0.26916   0.91046   0.00000  Uiso   1.00
H70    H     0.49234   0.02710   0.80880   0.00000  Uiso   1.00
H71    H     0.50997   0.02129   0.68594   0.00000  Uiso   1.00
H72    H     0.50649   0.89862   0.87655   0.00000  Uiso   1.00
H73    H     0.44133   0.15463   0.86088   0.00000  Uiso   1.00
H74    H     0.55983   0.02542   0.55458   0.00000  Uiso   1.00
H75    H     0.55249   0.76678   0.95650   0.00000  Uiso   1.00
H76    H     0.41508   0.30663   0.92348   0.00000  Uiso   1.00
H77    H     0.72583   0.10882   0.84626   0.00000  Uiso   1.00
H78    H     0.75628   0.10749   0.72544   0.00000  Uiso   1.00
H79    H     0.75280   0.98482   0.91605   0.00000  Uiso   1.00
H80    H     0.68764   0.24083   0.90039   0.00000  Uiso   1.00
H81    H     0.75975   0.09538   0.58664   0.00000  Uiso   1.00
H82    H     0.75240   0.83675   0.98857   0.00000  Uiso   1.00
H83    H     0.61499   0.37660   0.95555   0.00000  Uiso   1.00
O84    O     0.67561   0.05803   0.49046   0.00000  Uiso   1.00
O85    O     0.66597   0.71872   0.01778   0.00000  Uiso   1.00
O86    O     0.48569   0.42699   0.97445   0.00000  Uiso   1.00
N87    N     0.60270   0.04208   0.57870   0.00000  Uiso   1.00
N88    N     0.59584   0.80027   0.95447   0.00000  Uiso   1.00
N89    N     0.46737   0.30497   0.92361   0.00000  Uiso   1.00
N90    N     0.71027   0.07973   0.59596   0.00000  Uiso   1.00
N91    N     0.70341   0.83791   0.97173   0.00000  Uiso   1.00
N92    N     0.57494   0.34262   0.94087   0.00000  Uiso   1.00
C93    C     0.04583   0.95417   0.68262   0.00000  Uiso   1.00
C94    C     0.08779   0.94599   0.74418   0.00000  Uiso   1.00
C95    C     0.06315   0.96009   0.80555   0.00000  Uiso   1.00
C96    C     0.10971   0.94929   0.85558   0.00000  Uiso   1.00
C97    C     0.16442   0.94028   0.95285   0.00000  Uiso   1.00
C98    C     0.08590   0.01265   0.64062   0.00000  Uiso   1.00
C99    C     0.05967   0.08279   0.61492   0.00000  Uiso   1.00
C100   C     0.10464   0.12809   0.57777   0.00000  Uiso   1.00
C101   C     0.15640   0.22254   0.51422   0.00000  Uiso   1.00
C102   C     0.05050   0.87355   0.64914   0.00000  Uiso   1.00
C103   C     0.99450   0.82674   0.63058   0.00000  Uiso   1.00
C104   C     0.00966   0.75493   0.60058   0.00000  Uiso   1.00
C105   C     0.00645   0.63341   0.55026   0.00000  Uiso   1.00
C106   C     0.17233   0.90990   0.66232   0.00000  Uiso   1.00
C107   C     0.15650   0.92195   0.73316   0.00000  Uiso   1.00
C108   C     0.20311   0.91111   0.78310   0.00000  Uiso   1.00
C109   C     0.17854   0.92520   0.84454   0.00000  Uiso   1.00
C110   C     0.15461   0.98861   0.62960   0.00000  Uiso   1.00
C111   C     0.19963   0.03381   0.59247   0.00000  Uiso   1.00
C112   C     0.17348   0.10400   0.56672   0.00000  Uiso   1.00
C113   C     0.11921   0.84950   0.63812   0.00000  Uiso   1.00
C114   C     0.13446   0.77776   0.60813   0.00000  Uiso   1.00
C115   C     0.07849   0.73084   0.58954   0.00000  Uiso   1.00
H116   H     0.99234   0.97290   0.69120   0.00000  Uiso   1.00
H117   H     0.00997   0.97871   0.81406   0.00000  Uiso   1.00
H118   H     0.00649   0.10138   0.62345   0.00000  Uiso   1.00
H119   H     0.94133   0.84537   0.63912   0.00000  Uiso   1.00
H120   H     0.05983   0.97458   0.94542   0.00000  Uiso   1.00
H121   H     0.05249   0.23322   0.54350   0.00000  Uiso   1.00
H122   H     0.91508   0.69337   0.57652   0.00000  Uiso   1.00
H123   H     0.22583   0.89118   0.65374   0.00000  Uiso   1.00
H124   H     0.25628   0.89251   0.77456   0.00000  Uiso   1.00
H125   H     0.25280   0.01518   0.58395   0.00000  Uiso   1.00
H126   H     0.18764   0.75917   0.59961   0.00000  Uiso   1.00
H127   H     0.25975   0.90462   0.91336   0.00000  Uiso   1.00
H128   H     0.25240   0.16325   0.51143   0.00000  Uiso   1.00
H129   H     0.11499   0.62340   0.54445   0.00000  Uiso   1.00
O130   O     0.17561   0.94197   0.00954   0.00000  Uiso   1.00
O131   O     0.16597   0.28128   0.48222   0.00000  Uiso   1.00
O132   O     0.98569   0.57301   0.52555   0.00000  Uiso   1.00
N133   N     0.10270   0.95792   0.92130   0.00000  Uiso   1.00
N134   N     0.09584   0.19973   0.54553   0.00000  Uiso   1.00
N135   N     0.96737   0.69503   0.57639   0.00000  Uiso   1.00
N136   N     0.21027   0.92027   0.90404   0.00000  Uiso   1.00
N137   N     0.20341   0.16209   0.52827   0.00000  Uiso   1.00
N138   N     0.07494   0.65738   0.55913   0.00000  Uiso   1.00
C139   C     0.45417   0.54583   0.68262   0.00000  Uiso   1.00
C140   C     0.41221   0.55401   0.74418   0.00000  Uiso   1.00
C141   C     0.43685   0.53991   0.80555   0.00000  Uiso   1.00
C142   C     0.39029   0.55071   0.85558   0.00000  Uiso   1.00
C143   C     0.33558   0.55972   0.95285   0.00000  Uiso   1.00
C144   C     0.41410   0.48735   0.64062   0.00000  Uiso   1.00
C145   C     0.44033   0.41721   0.61492   0.00000  Uiso   1.00
C146   C     0.39536   0.37191   0.57777   0.00000  Uiso   1.00
C147   C     0.34360   0.27746   0.51422   0.00000  Uiso   1.00
C148   C     0.44950   0.62645   0.64914   0.00000  Uiso   1.00
C149   C     0.50550   0.67326   0.63058   0.00000  Uiso   1.00
C150   C     0.49034   0.74507   0.60058   0.00000  Uiso   1.00
C151   C     0.49355   0.86659   0.55026   0.00000  Uiso   1.00
C152   C     0.32767   0.59010   0.66232   0.00000  Uiso   1.00
C153   C     0.34350   0.57805   0.73316   0.00000  Uiso   1.00
C154   C     0.29689   0.58889   0.78310   0.00000  Uiso   1.00
C155   C     0.32146   0.57480   0.84454   0.00000  Uiso   1.00
C156   C     0.34539   0.51139   0.62960   0.00000  Uiso   1.00
C157   C     0.30037   0.46619   0.59247   0.00000  Uiso   1.00
C158   C     0.32652   0.39600   0.56672   0.00000  Uiso   1.00
C159   C     0.38079   0.65050   0.63812   0.00000  Uiso   1.00
C160   C     0.36554   0.72224   0.60813   0.00000  Uiso   1.00
C161   C     0.42151   0.76916   0.58954   0.00000  Uiso   1.00
H162   H     0.50766   0.52710   0.69120   0.00000  Uiso   1.00
H163   H     0.49003   0.52129   0.81406   0.00000  Uiso   1.00
H164   H     0.49351   0.39862   0.62345   0.00000  Uiso   1.00
H165   H     0.55867   0.65463   0.63912   0.00000  Uiso   1.00
H166   H     0.44017   0.52542   0.94542   0.00000  Uiso   1.00
H167   H     0.44751   0.26678   0.54350   0.00000  Uiso   1.00
H168   H     0.58492   0.80663   0.57652   0.00000  Uiso   1.00
H169   H     0.27417   0.60882   0.65374   0.00000  Uiso   1.00
H170   H     0.24372   0.60749   0.77456   0.00000  Uiso   1.00
H171   H     0.24720   0.48482   0.58395   0.00000  Uiso   1.00
H172   H     0.31236   0.74083   0.59961   0.00000  Uiso   1.00
H173   H     0.24025   0.59538   0.91336   0.00000  Uiso   1.00
H174   H     0.24760   0.33675   0.51143   0.00000  Uiso   1.00
H175   H     0.38501   0.87660   0.54445   0.00000  Uiso   1.00
O176   O     0.32439   0.55803   0.00954   0.00000  Uiso   1.00
O177   O     0.33403   0.21872   0.48222   0.00000  Uiso   1.00
O178   O     0.51431   0.92699   0.52555   0.00000  Uiso   1.00
N179   N     0.39730   0.54208   0.92130   0.00000  Uiso   1.00
N180   N     0.40416   0.30027   0.54553   0.00000  Uiso   1.00
N181   N     0.53263   0.80497   0.57639   0.00000  Uiso   1.00
N182   N     0.28973   0.57973   0.90404   0.00000  Uiso   1.00
N183   N     0.29659   0.33791   0.52827   0.00000  Uiso   1.00
N184   N     0.42506   0.84262   0.55913   0.00000  Uiso   1.00
C185   C     0.04583   0.54583   0.18262   0.00000  Uiso   1.00
C186   C     0.08779   0.55401   0.24418   0.00000  Uiso   1.00
C187   C     0.06315   0.53991   0.30555   0.00000  Uiso   1.00
C188   C     0.10971   0.55071   0.35558   0.00000  Uiso   1.00
C189   C     0.16442   0.55972   0.45285   0.00000  Uiso   1.00
C190   C     0.08590   0.48735   0.14062   0.00000  Uiso   1.00
C191   C     0.05967   0.41721   0.11492   0.00000  Uiso   1.00
C192   C     0.10464   0.37191   0.07777   0.00000  Uiso   1.00
C193   C     0.15640   0.27746   0.01422   0.00000  Uiso   1.00
C194   C     0.05050   0.62645   0.14914   0.00000  Uiso   1.00
C195   C     0.99450   0.67326   0.13058   0.00000  Uiso   1.00
C196   C     0.00966   0.74507   0.10058   0.00000  Uiso   1.00
C197   C     0.00645   0.86659   0.05026   0.00000  Uiso   1.00
C198   C     0.17233   0.59010   0.16232   0.00000  Uiso   1.00
C199   C     0.15650   0.57805   0.23316   0.00000  Uiso   1.00
C200   C     0.20311   0.58889   0.28310   0.00000  Uiso   1.00
C201   C     0.17854   0.57480   0.34454   0.00000  Uiso   1.00
C202   C     0.15461   0.51139   0.12960   0.00000  Uiso   1.00
C203   C     0.19963   0.46619   0.09247   0.00000  Uiso   1.00
C204   C     0.17348   0.39600   0.06672   0.00000  Uiso   1.00
C205   C     0.11921   0.65050   0.13812   0.00000  Uiso   1.00
C206   C     0.13446   0.72224   0.10813   0.00000  Uiso   1.00
C207   C     0.07849   0.76916   0.08954   0.00000  Uiso   1.00
H208   H     0.99234   0.52710   0.19120   0.00000  Uiso   1.00
H209   H     0.00997   0.52129   0.31406   0.00000  Uiso   1.00
H210   H     0.00649   0.39862   0.12345   0.00000  Uiso   1.00
H211   H     0.94133   0.65463   0.13912   0.00000  Uiso   1.00
H212   H     0.05983   0.52542   0.44542   0.00000  Uiso   1.00
H213   H     0.05249   0.26678   0.04350   0.00000  Uiso   1.00
H214   H     0.91508   0.80663   0.07652   0.00000  Uiso   1.00
H215   H     0.22583   0.60882   0.15374   0.00000  Uiso   1.00
H216   H     0.25628   0.60749   0.27456   0.00000  Uiso   1.00
H217   H     0.25280   0.48482   0.08395   0.00000  Uiso   1.00
H218   H     0.18764   0.74083   0.09961   0.00000  Uiso   1.00
H219   H     0.25975   0.59538   0.41336   0.00000  Uiso   1.00
H220   H     0.25240   0.33675   0.01143   0.00000  Uiso   1.00
H221   H     0.11499   0.87660   0.04445   0.00000  Uiso   1.00
O222   O     0.17561   0.55803   0.50954   0.00000  Uiso   1.00
O223   O     0.16597   0.21872   0.98222   0.00000  Uiso   1.00
O224   O     0.98569   0.92699   0.02555   0.00000  Uiso   1.00
N225   N     0.10270   0.54208   0.42130   0.00000  Uiso   1.00
N226   N     0.09584   0.30027   0.04553   0.00000  Uiso   1.00
N227   N     0.96737   0.80497   0.07639   0.00000  Uiso   1.00
N228   N     0.21027   0.57973   0.40404   0.00000  Uiso   1.00
N229   N     0.20341   0.33791   0.02827   0.00000  Uiso   1.00
N230   N     0.07494   0.84262   0.05913   0.00000  Uiso   1.00
C231   C     0.45417   0.95417   0.18262   0.00000  Uiso   1.00
C232   C     0.41221   0.94599   0.24418   0.00000  Uiso   1.00
C233   C     0.43685   0.96009   0.30555   0.00000  Uiso   1.00
C234   C     0.39029   0.94929   0.35558   0.00000  Uiso   1.00
C235   C     0.33558   0.94028   0.45285   0.00000  Uiso   1.00
C236   C     0.41410   0.01265   0.14062   0.00000  Uiso   1.00
C237   C     0.44033   0.08279   0.11492   0.00000  Uiso   1.00
C238   C     0.39536   0.12809   0.07777   0.00000  Uiso   1.00
C239   C     0.34360   0.22254   0.01422   0.00000  Uiso   1.00
C240   C     0.44950   0.87355   0.14914   0.00000  Uiso   1.00
C241   C     0.50550   0.82674   0.13058   0.00000  Uiso   1.00
C242   C     0.49034   0.75493   0.10058   0.00000  Uiso   1.00
C243   C     0.49355   0.63341   0.05026   0.00000  Uiso   1.00
C244   C     0.32767   0.90990   0.16232   0.00000  Uiso   1.00
C245   C     0.34350   0.92195   0.23316   0.00000  Uiso   1.00
C246   C     0.29689   0.91111   0.28310   0.00000  Uiso   1.00
C247   C     0.32146   0.92520   0.34454   0.00000  Uiso   1.00
C248   C     0.34539   0.98861   0.12960   0.00000  Uiso   1.00
C249   C     0.30037   0.03381   0.09247   0.00000  Uiso   1.00
C250   C     0.32652   0.10400   0.06672   0.00000  Uiso   1.00
C251   C     0.38079   0.84950   0.13812   0.00000  Uiso   1.00
C252   C     0.36554   0.77776   0.10813   0.00000  Uiso   1.00
C253   C     0.42151   0.73084   0.08954   0.00000  Uiso   1.00
H254   H     0.50766   0.97290   0.19120   0.00000  Uiso   1.00
H255   H     0.49003   0.97871   0.31406   0.00000  Uiso   1.00
H256   H     0.49351   0.10138   0.12345   0.00000  Uiso   1.00
H257   H     0.55867   0.84537   0.13912   0.00000  Uiso   1.00
H258   H     0.44017   0.97458   0.44542   0.00000  Uiso   1.00
H259   H     0.44751   0.23322   0.04350   0.00000  Uiso   1.00
H260   H     0.58492   0.69337   0.07652   0.00000  Uiso   1.00
H261   H     0.27417   0.89118   0.15374   0.00000  Uiso   1.00
H262   H     0.24372   0.89251   0.27456   0.00000  Uiso   1.00
H263   H     0.24720   0.01518   0.08395   0.00000  Uiso   1.00
H264   H     0.31236   0.75917   0.09961   0.00000  Uiso   1.00
H265   H     0.24025   0.90462   0.41336   0.00000  Uiso   1.00
H266   H     0.24760   0.16325   0.01143   0.00000  Uiso   1.00
H267   H     0.38501   0.62340   0.04445   0.00000  Uiso   1.00
O268   O     0.32439   0.94197   0.50954   0.00000  Uiso   1.00
O269   O     0.33403   0.28128   0.98222   0.00000  Uiso   1.00
O270   O     0.51431   0.57301   0.02555   0.00000  Uiso   1.00
N271   N     0.39730   0.95792   0.42130   0.00000  Uiso   1.00
N272   N     0.40416   0.19973   0.04553   0.00000  Uiso   1.00
N273   N     0.53263   0.69503   0.07639   0.00000  Uiso   1.00
N274   N     0.28973   0.92027   0.40404   0.00000  Uiso   1.00
N275   N     0.29659   0.16209   0.02827   0.00000  Uiso   1.00
N276   N     0.42506   0.65738   0.05913   0.00000  Uiso   1.00
C277   C     0.95417   0.04583   0.31738   0.00000  Uiso   1.00
C278   C     0.91221   0.05401   0.25582   0.00000  Uiso   1.00
C279   C     0.93685   0.03991   0.19445   0.00000  Uiso   1.00
C280   C     0.89029   0.05071   0.14442   0.00000  Uiso   1.00
C281   C     0.83558   0.05972   0.04715   0.00000  Uiso   1.00
C282   C     0.91410   0.98735   0.35938   0.00000  Uiso   1.00
C283   C     0.94033   0.91721   0.38508   0.00000  Uiso   1.00
C284   C     0.89536   0.87191   0.42223   0.00000  Uiso   1.00
C285   C     0.84360   0.77746   0.48578   0.00000  Uiso   1.00
C286   C     0.94950   0.12645   0.35086   0.00000  Uiso   1.00
C287   C     0.00550   0.17326   0.36942   0.00000  Uiso   1.00
C288   C     0.99034   0.24507   0.39942   0.00000  Uiso   1.00
C289   C     0.99355   0.36659   0.44974   0.00000  Uiso   1.00
C290   C     0.82767   0.09010   0.33768   0.00000  Uiso   1.00
C291   C     0.84350   0.07805   0.26684   0.00000  Uiso   1.00
C292   C     0.79689   0.08889   0.21690   0.00000  Uiso   1.00
C293   C     0.82146   0.07480   0.15546   0.00000  Uiso   1.00
C294   C     0.84539   0.01139   0.37040   0.00000  Uiso   1.00
C295   C     0.80037   0.96619   0.40753   0.00000  Uiso   1.00
C296   C     0.82652   0.89600   0.43328   0.00000  Uiso   1.00
C297   C     0.88079   0.15050   0.36188   0.00000  Uiso   1.00
C298   C     0.86554   0.22224   0.39187   0.00000  Uiso   1.00
C299   C     0.92151   0.26916   0.41046   0.00000  Uiso   1.00
H300   H     0.00766   0.02710   0.30880   0.00000  Uiso   1.00
H301   H     0.99003   0.02129   0.18594   0.00000  Uiso   1.00
H302   H     0.99351   0.89862   0.37655   0.00000  Uiso   1.00
H303   H     0.05867   0.15463   0.36088   0.00000  Uiso   1.00
H304   H     0.94017   0.02542   0.05458   0.00000  Uiso   1.00
H305   H     0.94751   0.76678   0.45650   0.00000  Uiso   1.00
H306   H     0.08492   0.30663   0.42348   0.00000  Uiso   1.00
H307   H     0.77417   0.10882   0.34626   0.00000  Uiso   1.00
H308   H     0.74372   0.10749   0.22544   0.00000  Uiso   1.00
H309   H     0.74720   0.98482   0.41605   0.00000  Uiso   1.00
H310   H     0.81236   0.24083   0.40039   0.00000  Uiso   1.00
H311   H     0.74025   0.09538   0.08664   0.00000  Uiso   1.00
H312   H     0.74760   0.83675   0.48857   0.00000  Uiso   1.00
H313   H     0.88501   0.37660   0.45555   0.00000  Uiso   1.00
O314   O     0.82439   0.05803   0.99046   0.00000  Uiso   1.00
O315   O     0.83403   0.71872   0.51778   0.00000  Uiso   1.00
O316   O     0.01431   0.42699   0.47445   0.00000  Uiso   1.00
N317   N     0.89730   0.04208   0.07870   0.00000  Uiso   1.00
N318   N     0.90416   0.80027   0.45447   0.00000  Uiso   1.00
N319   N     0.03263   0.30497   0.42361   0.00000  Uiso   1.00
N320   N     0.78973   0.07973   0.09596   0.00000  Uiso   1.00
N321   N     0.79659   0.83791   0.47173   0.00000  Uiso   1.00
N322   N     0.92506   0.34262   0.44087   0.00000  Uiso   1.00
C323   C     0.54583   0.45417   0.31738   0.00000  Uiso   1.00
C324   C     0.58779   0.44599   0.25582   0.00000  Uiso   1.00
C325   C     0.56315   0.46009   0.19445   0.00000  Uiso   1.00
C326   C     0.60971   0.44929   0.14442   0.00000  Uiso   1.00
C327   C     0.66442   0.44028   0.04715   0.00000  Uiso   1.00
C328   C     0.58590   0.51265   0.35938   0.00000  Uiso   1.00
C329   C     0.55967   0.58279   0.38508   0.00000  Uiso   1.00
C330   C     0.60464   0.62809   0.42223   0.00000  Uiso   1.00
C331   C     0.65640   0.72254   0.48578   0.00000  Uiso   1.00
C332   C     0.55050   0.37355   0.35086   0.00000  Uiso   1.00
C333   C     0.49450   0.32674   0.36942   0.00000  Uiso   1.00
C334   C     0.50966   0.25493   0.39942   0.00000  Uiso   1.00
C335   C     0.50645   0.13341   0.44974   0.00000  Uiso   1.00
C336   C     0.67233   0.40990   0.33768   0.00000  Uiso   1.00
C337   C     0.65650   0.42195   0.26684   0.00000  Uiso   1.00
C338   C     0.70311   0.41111   0.21690   0.00000  Uiso   1.00
C339   C     0.67854   0.42520   0.15546   0.00000  Uiso   1.00
C340   C     0.65461   0.48861   0.37040   0.00000  Uiso   1.00
C341   C     0.69963   0.53381   0.40753   0.00000  Uiso   1.00
C342   C     0.67348   0.60400   0.43328   0.00000  Uiso   1.00
C343   C     0.61921   0.34950   0.36188   0.00000  Uiso   1.00
C344   C     0.63446   0.27776   0.39187   0.00000  Uiso   1.00
C345   C     0.57849   0.23084   0.41046   0.00000  Uiso   1.00
H346   H     0.49234   0.47290   0.30880   0.00000  Uiso   1.00
H347   H     0.50997   0.47871   0.18594   0.00000  Uiso   1.00
H348   H     0.50649   0.60138   0.37655   0.00000  Uiso   1.00
H349   H     0.44133   0.34537   0.36088   0.00000  Uiso   1.00
H350   H     0.55983   0.47458   0.05458   0.00000  Uiso   1.00
H351   H     0.55249   0.73322   0.45650   0.00000  Uiso   1.00
H352   H     0.41508   0.19337   0.42348   0.00000  Uiso   1.00
H353   H     0.72583   0.39118   0.34626   0.00000  Uiso   1.00
H354   H     0.75628   0.39251   0.22544   0.00000  Uiso   1.00
H355   H     0.75280   0.51518   0.41605   0.00000  Uiso   1.00
H356   H     0.68764   0.25917   0.40039   0.00000  Uiso   1.00
H357   H     0.75975   0.40462   0.08664   0.00000  Uiso   1.00
H358   H     0.75240   0.66325   0.48857   0.00000  Uiso   1.00
H359   H     0.61499   0.12340   0.45555   0.00000  Uiso   1.00
O360   O     0.67561   0.44197   0.99046   0.00000  Uiso   1.00
O361   O     0.66597   0.78128   0.51778   0.00000  Uiso   1.00
O362   O     0.48569   0.07301   0.47445   0.00000  Uiso   1.00
N363   N     0.60270   0.45792   0.07870   0.00000  Uiso   1.00
N364   N     0.59584   0.69973   0.45447   0.00000  Uiso   1.00
N365   N     0.46737   0.19503   0.42361   0.00000  Uiso   1.00
N366   N     0.71027   0.42027   0.09596   0.00000  Uiso   1.00
N367   N     0.70341   0.66209   0.47173   0.00000  Uiso   1.00
N368   N     0.57494   0.15738   0.44087   0.00000  Uiso   1.00
