data_job_02540
_audit_creation_date              2018-12-19
_audit_creation_method            'Materials Studio'
_symmetry_space_group_name_H-M    'P1'
_symmetry_Int_Tables_number       1
_symmetry_cell_setting            triclinic
loop_
_symmetry_equiv_pos_as_xyz
  x,y,z
_cell_length_a                    20.5740
_cell_length_b                    8.0842
_cell_length_c                    20.5494
_cell_angle_alpha                 90.0000
_cell_angle_beta                  116.1450
_cell_angle_gamma                 90.0000
loop_
_atom_site_label
_atom_site_type_symbol
_atom_site_fract_x
_atom_site_fract_y
_atom_site_fract_z
_atom_site_U_iso_or_equiv
_atom_site_adp_type
_atom_site_occupancy
C1     C     0.18474   0.59645   0.02230   0.00000  Uiso   1.00
C2     C     0.11455   0.59950   0.95228   0.00000  Uiso   1.00
C3     C     0.06797   0.46671   0.92280   0.00000  Uiso   1.00
C4     C     0.00655   0.49464   0.85833   0.00000  Uiso   1.00
C5     C     0.89975   0.47575   0.75471   0.00000  Uiso   1.00
C6     C     0.24409   0.65310   0.00195   0.00000  Uiso   1.00
C7     C     0.30643   0.56539   0.01426   0.00000  Uiso   1.00
C8     C     0.35406   0.63847   0.99161   0.00000  Uiso   1.00
C9     C     0.44840   0.70284   0.96516   0.00000  Uiso   1.00
C10    C     0.17760   0.73255   0.07012   0.00000  Uiso   1.00
C11    C     0.18406   0.71166   0.13975   0.00000  Uiso   1.00
C12    C     0.17573   0.85163   0.17451   0.00000  Uiso   1.00
C13    C     0.16683   0.03936   0.25391   0.00000  Uiso   1.00
C14    C     0.15849   0.88218   0.96022   0.00000  Uiso   1.00
C15    C     0.10029   0.75470   0.91856   0.00000  Uiso   1.00
C16    C     0.03892   0.78284   0.85412   0.00000  Uiso   1.00
C17    C     0.99226   0.65012   0.82455   0.00000  Uiso   1.00
C18    C     0.22983   0.80829   0.96823   0.00000  Uiso   1.00
C19    C     0.27738   0.88152   0.94557   0.00000  Uiso   1.00
C20    C     0.33978   0.79394   0.95783   0.00000  Uiso   1.00
C21    C     0.16334   0.88775   0.03640   0.00000  Uiso   1.00
C22    C     0.15500   0.02778   0.07106   0.00000  Uiso   1.00
C23    C     0.16144   0.00711   0.14073   0.00000  Uiso   1.00
H24    H     0.19585   0.47562   0.04855   0.00000  Uiso   1.00
H25    H     0.07903   0.34662   0.94891   0.00000  Uiso   1.00
H26    H     0.31746   0.44530   0.04036   0.00000  Uiso   1.00
H27    H     0.19509   0.59154   0.16583   0.00000  Uiso   1.00
H28    H     0.94324   0.27203   0.82356   0.00000  Uiso   1.00
H29    H     0.44599   0.48012   0.01640   0.00000  Uiso   1.00
H30    H     0.18797   0.78850   0.28099   0.00000  Uiso   1.00
H31    H     0.14738   0.00301   0.93396   0.00000  Uiso   1.00
H32    H     0.02790   0.90295   0.82803   0.00000  Uiso   1.00
H33    H     0.26633   0.00162   0.91948   0.00000  Uiso   1.00
H34    H     0.14397   0.14786   0.04495   0.00000  Uiso   1.00
H35    H     0.90174   0.72356   0.72544   0.00000  Uiso   1.00
H36    H     0.40449   0.93166   0.91829   0.00000  Uiso   1.00
H37    H     0.14647   0.24003   0.18288   0.00000  Uiso   1.00
O38    O     0.84478   0.42244   0.70687   0.00000  Uiso   1.00
O39    O     0.50437   0.69546   0.95989   0.00000  Uiso   1.00
O40    O     0.16585   0.10004   0.30701   0.00000  Uiso   1.00
N41    N     0.94986   0.39204   0.81501   0.00000  Uiso   1.00
N42    N     0.41990   0.58658   0.99530   0.00000  Uiso   1.00
N43    N     0.17869   0.87489   0.24267   0.00000  Uiso   1.00
N44    N     0.92753   0.63501   0.76222   0.00000  Uiso   1.00
N45    N     0.39757   0.82955   0.94250   0.00000  Uiso   1.00
N46    N     0.15636   0.11786   0.18988   0.00000  Uiso   1.00
C47    C     0.81526   0.09645   0.47770   0.00000  Uiso   1.00
C48    C     0.88545   0.09950   0.54772   0.00000  Uiso   1.00
C49    C     0.93203   0.96671   0.57720   0.00000  Uiso   1.00
C50    C     0.99345   0.99464   0.64167   0.00000  Uiso   1.00
C51    C     0.10025   0.97575   0.74529   0.00000  Uiso   1.00
C52    C     0.75591   0.15310   0.49805   0.00000  Uiso   1.00
C53    C     0.69357   0.06539   0.48574   0.00000  Uiso   1.00
C54    C     0.64594   0.13847   0.50839   0.00000  Uiso   1.00
C55    C     0.55160   0.20284   0.53484   0.00000  Uiso   1.00
C56    C     0.82240   0.23255   0.42988   0.00000  Uiso   1.00
C57    C     0.81594   0.21166   0.36025   0.00000  Uiso   1.00
C58    C     0.82427   0.35163   0.32549   0.00000  Uiso   1.00
C59    C     0.83317   0.53936   0.24609   0.00000  Uiso   1.00
C60    C     0.84151   0.38218   0.53978   0.00000  Uiso   1.00
C61    C     0.89971   0.25470   0.58144   0.00000  Uiso   1.00
C62    C     0.96108   0.28284   0.64588   0.00000  Uiso   1.00
C63    C     0.00774   0.15012   0.67545   0.00000  Uiso   1.00
C64    C     0.77017   0.30829   0.53177   0.00000  Uiso   1.00
C65    C     0.72262   0.38152   0.55443   0.00000  Uiso   1.00
C66    C     0.66022   0.29394   0.54217   0.00000  Uiso   1.00
C67    C     0.83666   0.38775   0.46360   0.00000  Uiso   1.00
C68    C     0.84500   0.52778   0.42894   0.00000  Uiso   1.00
C69    C     0.83856   0.50711   0.35927   0.00000  Uiso   1.00
H70    H     0.80415   0.97562   0.45145   0.00000  Uiso   1.00
H71    H     0.92097   0.84662   0.55109   0.00000  Uiso   1.00
H72    H     0.68254   0.94530   0.45964   0.00000  Uiso   1.00
H73    H     0.80491   0.09154   0.33417   0.00000  Uiso   1.00
H74    H     0.05676   0.77203   0.67644   0.00000  Uiso   1.00
H75    H     0.55401   0.98012   0.48360   0.00000  Uiso   1.00
H76    H     0.81203   0.28850   0.21901   0.00000  Uiso   1.00
H77    H     0.85262   0.50301   0.56604   0.00000  Uiso   1.00
H78    H     0.97210   0.40295   0.67197   0.00000  Uiso   1.00
H79    H     0.73367   0.50162   0.58052   0.00000  Uiso   1.00
H80    H     0.85603   0.64786   0.45505   0.00000  Uiso   1.00
H81    H     0.09826   0.22356   0.77456   0.00000  Uiso   1.00
H82    H     0.59551   0.43166   0.58171   0.00000  Uiso   1.00
H83    H     0.85353   0.74003   0.31712   0.00000  Uiso   1.00
O84    O     0.15522   0.92244   0.79313   0.00000  Uiso   1.00
O85    O     0.49563   0.19546   0.54011   0.00000  Uiso   1.00
O86    O     0.83415   0.60004   0.19299   0.00000  Uiso   1.00
N87    N     0.05014   0.89204   0.68499   0.00000  Uiso   1.00
N88    N     0.58010   0.08658   0.50470   0.00000  Uiso   1.00
N89    N     0.82131   0.37489   0.25733   0.00000  Uiso   1.00
N90    N     0.07247   0.13501   0.73778   0.00000  Uiso   1.00
N91    N     0.60243   0.32955   0.55750   0.00000  Uiso   1.00
N92    N     0.84364   0.61786   0.31012   0.00000  Uiso   1.00
C93    C     0.81526   0.40355   0.97770   0.00000  Uiso   1.00
C94    C     0.88545   0.40050   0.04772   0.00000  Uiso   1.00
C95    C     0.93203   0.53329   0.07720   0.00000  Uiso   1.00
C96    C     0.99345   0.50536   0.14167   0.00000  Uiso   1.00
C97    C     0.10025   0.52425   0.24529   0.00000  Uiso   1.00
C98    C     0.75591   0.34690   0.99805   0.00000  Uiso   1.00
C99    C     0.69357   0.43461   0.98574   0.00000  Uiso   1.00
C100   C     0.64594   0.36153   0.00839   0.00000  Uiso   1.00
C101   C     0.55160   0.29716   0.03484   0.00000  Uiso   1.00
C102   C     0.82240   0.26745   0.92988   0.00000  Uiso   1.00
C103   C     0.81594   0.28834   0.86025   0.00000  Uiso   1.00
C104   C     0.82427   0.14837   0.82549   0.00000  Uiso   1.00
C105   C     0.83317   0.96064   0.74609   0.00000  Uiso   1.00
C106   C     0.84151   0.11782   0.03978   0.00000  Uiso   1.00
C107   C     0.89971   0.24530   0.08144   0.00000  Uiso   1.00
C108   C     0.96108   0.21716   0.14588   0.00000  Uiso   1.00
C109   C     0.00774   0.34988   0.17545   0.00000  Uiso   1.00
C110   C     0.77017   0.19171   0.03177   0.00000  Uiso   1.00
C111   C     0.72262   0.11848   0.05443   0.00000  Uiso   1.00
C112   C     0.66022   0.20606   0.04217   0.00000  Uiso   1.00
C113   C     0.83666   0.11225   0.96360   0.00000  Uiso   1.00
C114   C     0.84500   0.97222   0.92894   0.00000  Uiso   1.00
C115   C     0.83856   0.99289   0.85927   0.00000  Uiso   1.00
H116   H     0.80415   0.52438   0.95145   0.00000  Uiso   1.00
H117   H     0.92097   0.65338   0.05109   0.00000  Uiso   1.00
H118   H     0.68254   0.55470   0.95964   0.00000  Uiso   1.00
H119   H     0.80491   0.40846   0.83417   0.00000  Uiso   1.00
H120   H     0.05676   0.72797   0.17644   0.00000  Uiso   1.00
H121   H     0.55401   0.51988   0.98360   0.00000  Uiso   1.00
H122   H     0.81203   0.21150   0.71901   0.00000  Uiso   1.00
H123   H     0.85262   0.99699   0.06604   0.00000  Uiso   1.00
H124   H     0.97210   0.09705   0.17197   0.00000  Uiso   1.00
H125   H     0.73367   0.99838   0.08052   0.00000  Uiso   1.00
H126   H     0.85603   0.85214   0.95505   0.00000  Uiso   1.00
H127   H     0.09826   0.27644   0.27456   0.00000  Uiso   1.00
H128   H     0.59551   0.06834   0.08171   0.00000  Uiso   1.00
H129   H     0.85353   0.75997   0.81712   0.00000  Uiso   1.00
O130   O     0.15522   0.57756   0.29313   0.00000  Uiso   1.00
O131   O     0.49563   0.30454   0.04011   0.00000  Uiso   1.00
O132   O     0.83415   0.89996   0.69299   0.00000  Uiso   1.00
N133   N     0.05014   0.60796   0.18499   0.00000  Uiso   1.00
N134   N     0.58010   0.41342   0.00470   0.00000  Uiso   1.00
N135   N     0.82131   0.12511   0.75733   0.00000  Uiso   1.00
N136   N     0.07247   0.36499   0.23778   0.00000  Uiso   1.00
N137   N     0.60243   0.17045   0.05750   0.00000  Uiso   1.00
N138   N     0.84364   0.88214   0.81012   0.00000  Uiso   1.00
C139   C     0.18474   0.90355   0.52230   0.00000  Uiso   1.00
C140   C     0.11455   0.90050   0.45228   0.00000  Uiso   1.00
C141   C     0.06797   0.03329   0.42280   0.00000  Uiso   1.00
C142   C     0.00655   0.00536   0.35833   0.00000  Uiso   1.00
C143   C     0.89975   0.02425   0.25471   0.00000  Uiso   1.00
C144   C     0.24409   0.84690   0.50195   0.00000  Uiso   1.00
C145   C     0.30643   0.93461   0.51426   0.00000  Uiso   1.00
C146   C     0.35406   0.86153   0.49161   0.00000  Uiso   1.00
C147   C     0.44840   0.79716   0.46516   0.00000  Uiso   1.00
C148   C     0.17760   0.76745   0.57012   0.00000  Uiso   1.00
C149   C     0.18406   0.78834   0.63975   0.00000  Uiso   1.00
C150   C     0.17573   0.64837   0.67451   0.00000  Uiso   1.00
C151   C     0.16683   0.46064   0.75391   0.00000  Uiso   1.00
C152   C     0.15849   0.61782   0.46022   0.00000  Uiso   1.00
C153   C     0.10029   0.74530   0.41856   0.00000  Uiso   1.00
C154   C     0.03892   0.71716   0.35412   0.00000  Uiso   1.00
C155   C     0.99226   0.84988   0.32455   0.00000  Uiso   1.00
C156   C     0.22983   0.69171   0.46823   0.00000  Uiso   1.00
C157   C     0.27738   0.61848   0.44557   0.00000  Uiso   1.00
C158   C     0.33978   0.70606   0.45783   0.00000  Uiso   1.00
C159   C     0.16334   0.61225   0.53640   0.00000  Uiso   1.00
C160   C     0.15500   0.47222   0.57106   0.00000  Uiso   1.00
C161   C     0.16144   0.49289   0.64073   0.00000  Uiso   1.00
H162   H     0.19585   0.02438   0.54855   0.00000  Uiso   1.00
H163   H     0.07903   0.15338   0.44891   0.00000  Uiso   1.00
H164   H     0.31746   0.05470   0.54036   0.00000  Uiso   1.00
H165   H     0.19509   0.90846   0.66583   0.00000  Uiso   1.00
H166   H     0.94324   0.22797   0.32356   0.00000  Uiso   1.00
H167   H     0.44599   0.01988   0.51640   0.00000  Uiso   1.00
H168   H     0.18797   0.71150   0.78099   0.00000  Uiso   1.00
H169   H     0.14738   0.49699   0.43396   0.00000  Uiso   1.00
H170   H     0.02790   0.59705   0.32803   0.00000  Uiso   1.00
H171   H     0.26633   0.49838   0.41948   0.00000  Uiso   1.00
H172   H     0.14397   0.35214   0.54495   0.00000  Uiso   1.00
H173   H     0.90174   0.77644   0.22544   0.00000  Uiso   1.00
H174   H     0.40449   0.56834   0.41829   0.00000  Uiso   1.00
H175   H     0.14647   0.25997   0.68288   0.00000  Uiso   1.00
O176   O     0.84478   0.07756   0.20687   0.00000  Uiso   1.00
O177   O     0.50437   0.80454   0.45989   0.00000  Uiso   1.00
O178   O     0.16585   0.39996   0.80701   0.00000  Uiso   1.00
N179   N     0.94986   0.10796   0.31501   0.00000  Uiso   1.00
N180   N     0.41990   0.91342   0.49530   0.00000  Uiso   1.00
N181   N     0.17869   0.62511   0.74267   0.00000  Uiso   1.00
N182   N     0.92753   0.86499   0.26222   0.00000  Uiso   1.00
N183   N     0.39757   0.67045   0.44250   0.00000  Uiso   1.00
N184   N     0.15636   0.38214   0.68988   0.00000  Uiso   1.00
