data_job_04666
_audit_creation_date              2018-12-19
_audit_creation_method            'Materials Studio'
_symmetry_space_group_name_H-M    'P1'
_symmetry_Int_Tables_number       1
_symmetry_cell_setting            triclinic
loop_
_symmetry_equiv_pos_as_xyz
  x,y,z
_cell_length_a                    42.3732
_cell_length_b                    12.3285
_cell_length_c                    13.5420
_cell_angle_alpha                 90.0000
_cell_angle_beta                  80.8351
_cell_angle_gamma                 90.0000
loop_
_atom_site_label
_atom_site_type_symbol
_atom_site_fract_x
_atom_site_fract_y
_atom_site_fract_z
_atom_site_U_iso_or_equiv
_atom_site_adp_type
_atom_site_occupancy
C1     C     0.91342   0.68123   0.45468   0.00000  Uiso   1.00
C2     C     0.87834   0.67284   0.50178   0.00000  Uiso   1.00
C3     C     0.85239   0.69404   0.45388   0.00000  Uiso   1.00
C4     C     0.82219   0.68170   0.50995   0.00000  Uiso   1.00
C5     C     0.76833   0.67365   0.56784   0.00000  Uiso   1.00
C6     C     0.92873   0.75960   0.52022   0.00000  Uiso   1.00
C7     C     0.94515   0.85374   0.48781   0.00000  Uiso   1.00
C8     C     0.95737   0.91442   0.55940   0.00000  Uiso   1.00
C9     C     0.98177   0.04103   0.64590   0.00000  Uiso   1.00
C10    C     0.92807   0.57041   0.46864   0.00000  Uiso   1.00
C11    C     0.94395   0.50548   0.39287   0.00000  Uiso   1.00
C12    C     0.95562   0.40689   0.42104   0.00000  Uiso   1.00
C13    C     0.97900   0.23975   0.42745   0.00000  Uiso   1.00
C14    C     0.90595   0.62161   0.63943   0.00000  Uiso   1.00
C15    C     0.87428   0.64046   0.60213   0.00000  Uiso   1.00
C16    C     0.84411   0.62808   0.65829   0.00000  Uiso   1.00
C17    C     0.81812   0.64925   0.61047   0.00000  Uiso   1.00
C18    C     0.92467   0.72722   0.62056   0.00000  Uiso   1.00
C19    C     0.93687   0.78778   0.69222   0.00000  Uiso   1.00
C20    C     0.95330   0.88198   0.65993   0.00000  Uiso   1.00
C21    C     0.92401   0.53803   0.56899   0.00000  Uiso   1.00
C22    C     0.93567   0.43952   0.59728   0.00000  Uiso   1.00
C23    C     0.95156   0.37445   0.52157   0.00000  Uiso   1.00
H24    H     0.91659   0.70645   0.37655   0.00000  Uiso   1.00
H25    H     0.85554   0.71911   0.37622   0.00000  Uiso   1.00
H26    H     0.94829   0.87877   0.41015   0.00000  Uiso   1.00
H27    H     0.94708   0.53057   0.31522   0.00000  Uiso   1.00
H28    H     0.78607   0.71890   0.42012   0.00000  Uiso   1.00
H29    H     0.98164   0.05554   0.49165   0.00000  Uiso   1.00
H30    H     0.97911   0.32129   0.29148   0.00000  Uiso   1.00
H31    H     0.90278   0.59640   0.71756   0.00000  Uiso   1.00
H32    H     0.84098   0.60302   0.73594   0.00000  Uiso   1.00
H33    H     0.93373   0.76269   0.76986   0.00000  Uiso   1.00
H34    H     0.93252   0.41449   0.67494   0.00000  Uiso   1.00
H35    H     0.77425   0.62468   0.71208   0.00000  Uiso   1.00
H36    H     0.96983   0.96133   0.78361   0.00000  Uiso   1.00
H37    H     0.96729   0.22707   0.58344   0.00000  Uiso   1.00
O38    O     0.73975   0.67817   0.57205   0.00000  Uiso   1.00
O39    O     0.99634   0.11982   0.66589   0.00000  Uiso   1.00
O40    O     0.99301   0.15649   0.40327   0.00000  Uiso   1.00
N41    N     0.79177   0.69580   0.48631   0.00000  Uiso   1.00
N42    N     0.97462   0.01055   0.55318   0.00000  Uiso   1.00
N43    N     0.97225   0.32410   0.36605   0.00000  Uiso   1.00
N44    N     0.78541   0.64510   0.64341   0.00000  Uiso   1.00
N45    N     0.96826   0.95985   0.71029   0.00000  Uiso   1.00
N46    N     0.96589   0.27340   0.52315   0.00000  Uiso   1.00
C47    C     0.08939   0.85180   0.04140   0.00000  Uiso   1.00
C48    C     0.12060   0.82776   0.97194   0.00000  Uiso   1.00
C49    C     0.15104   0.83659   0.99668   0.00000  Uiso   1.00
C50    C     0.17653   0.81093   0.92261   0.00000  Uiso   1.00
C51    C     0.22573   0.77871   0.82924   0.00000  Uiso   1.00
C52    C     0.07211   0.93689   0.98809   0.00000  Uiso   1.00
C53    C     0.06179   0.03747   0.02642   0.00000  Uiso   1.00
C54    C     0.04646   0.10366   0.96595   0.00000  Uiso   1.00
C55    C     0.02036   0.24084   0.89770   0.00000  Uiso   1.00
C56    C     0.06937   0.74877   0.04387   0.00000  Uiso   1.00
C57    C     0.05673   0.69118   0.12909   0.00000  Uiso   1.00
C58    C     0.03908   0.59900   0.11559   0.00000  Uiso   1.00
C59    C     0.00872   0.44408   0.13393   0.00000  Uiso   1.00
C60    C     0.08051   0.79050   0.86586   0.00000  Uiso   1.00
C61    C     0.11578   0.79447   0.87659   0.00000  Uiso   1.00
C62    C     0.14123   0.76877   0.80247   0.00000  Uiso   1.00
C63    C     0.17170   0.77757   0.82709   0.00000  Uiso   1.00
C64    C     0.06729   0.90360   0.89275   0.00000  Uiso   1.00
C65    C     0.05198   0.96965   0.83221   0.00000  Uiso   1.00
C66    C     0.04163   0.07031   0.87044   0.00000  Uiso   1.00
C67    C     0.06455   0.71547   0.94852   0.00000  Uiso   1.00
C68    C     0.04692   0.62336   0.93488   0.00000  Uiso   1.00
C69    C     0.03425   0.56565   0.02007   0.00000  Uiso   1.00
H70    H     0.09314   0.87773   0.11562   0.00000  Uiso   1.00
H71    H     0.15476   0.86238   0.07047   0.00000  Uiso   1.00
H72    H     0.06552   0.06321   0.10021   0.00000  Uiso   1.00
H73    H     0.06046   0.71697   0.20286   0.00000  Uiso   1.00
H74    H     0.22096   0.83070   0.97834   0.00000  Uiso   1.00
H75    H     0.03278   0.25416   0.04107   0.00000  Uiso   1.00
H76    H     0.02211   0.52406   0.25754   0.00000  Uiso   1.00
H77    H     0.07676   0.76458   0.79163   0.00000  Uiso   1.00
H78    H     0.13749   0.74301   0.72869   0.00000  Uiso   1.00
H79    H     0.04825   0.94385   0.75844   0.00000  Uiso   1.00
H80    H     0.04319   0.59762   0.86109   0.00000  Uiso   1.00
H81    H     0.20694   0.73383   0.70095   0.00000  Uiso   1.00
H82    H     0.01876   0.15729   0.76368   0.00000  Uiso   1.00
H83    H     0.00809   0.42718   0.98014   0.00000  Uiso   1.00
O84    O     0.25419   0.77015   0.80408   0.00000  Uiso   1.00
O85    O     0.00731   0.32571   0.88639   0.00000  Uiso   1.00
O86    O     0.99331   0.36783   0.17039   0.00000  Uiso   1.00
N87    N     0.20932   0.81084   0.92170   0.00000  Uiso   1.00
N88    N     0.03339   0.20676   0.98034   0.00000  Uiso   1.00
N89    N     0.02341   0.52419   0.18273   0.00000  Uiso   1.00
N90    N     0.20178   0.75871   0.77244   0.00000  Uiso   1.00
N91    N     0.02585   0.15463   0.83108   0.00000  Uiso   1.00
N92    N     0.01587   0.47206   0.03346   0.00000  Uiso   1.00
C93    C     0.41342   0.18123   0.45468   0.00000  Uiso   1.00
C94    C     0.37834   0.17284   0.50178   0.00000  Uiso   1.00
C95    C     0.35239   0.19404   0.45388   0.00000  Uiso   1.00
C96    C     0.32219   0.18170   0.50995   0.00000  Uiso   1.00
C97    C     0.26833   0.17365   0.56784   0.00000  Uiso   1.00
C98    C     0.42873   0.25960   0.52022   0.00000  Uiso   1.00
C99    C     0.44515   0.35374   0.48781   0.00000  Uiso   1.00
C100   C     0.45737   0.41442   0.55940   0.00000  Uiso   1.00
C101   C     0.48177   0.54103   0.64590   0.00000  Uiso   1.00
C102   C     0.42807   0.07041   0.46864   0.00000  Uiso   1.00
C103   C     0.44395   0.00548   0.39287   0.00000  Uiso   1.00
C104   C     0.45562   0.90689   0.42104   0.00000  Uiso   1.00
C105   C     0.47900   0.73975   0.42745   0.00000  Uiso   1.00
C106   C     0.40595   0.12161   0.63943   0.00000  Uiso   1.00
C107   C     0.37428   0.14046   0.60213   0.00000  Uiso   1.00
C108   C     0.34411   0.12808   0.65829   0.00000  Uiso   1.00
C109   C     0.31812   0.14925   0.61047   0.00000  Uiso   1.00
C110   C     0.42467   0.22722   0.62056   0.00000  Uiso   1.00
C111   C     0.43687   0.28778   0.69222   0.00000  Uiso   1.00
C112   C     0.45330   0.38198   0.65993   0.00000  Uiso   1.00
C113   C     0.42401   0.03803   0.56899   0.00000  Uiso   1.00
C114   C     0.43567   0.93952   0.59728   0.00000  Uiso   1.00
C115   C     0.45156   0.87445   0.52157   0.00000  Uiso   1.00
H116   H     0.41659   0.20645   0.37655   0.00000  Uiso   1.00
H117   H     0.35554   0.21911   0.37622   0.00000  Uiso   1.00
H118   H     0.44829   0.37877   0.41015   0.00000  Uiso   1.00
H119   H     0.44708   0.03057   0.31522   0.00000  Uiso   1.00
H120   H     0.28607   0.21890   0.42012   0.00000  Uiso   1.00
H121   H     0.48164   0.55554   0.49165   0.00000  Uiso   1.00
H122   H     0.47911   0.82129   0.29148   0.00000  Uiso   1.00
H123   H     0.40278   0.09640   0.71756   0.00000  Uiso   1.00
H124   H     0.34098   0.10302   0.73594   0.00000  Uiso   1.00
H125   H     0.43373   0.26269   0.76986   0.00000  Uiso   1.00
H126   H     0.43252   0.91449   0.67494   0.00000  Uiso   1.00
H127   H     0.27425   0.12468   0.71208   0.00000  Uiso   1.00
H128   H     0.46983   0.46133   0.78361   0.00000  Uiso   1.00
H129   H     0.46729   0.72707   0.58344   0.00000  Uiso   1.00
O130   O     0.23975   0.17817   0.57205   0.00000  Uiso   1.00
O131   O     0.49634   0.61982   0.66589   0.00000  Uiso   1.00
O132   O     0.49301   0.65649   0.40327   0.00000  Uiso   1.00
N133   N     0.29177   0.19580   0.48631   0.00000  Uiso   1.00
N134   N     0.47462   0.51055   0.55318   0.00000  Uiso   1.00
N135   N     0.47225   0.82410   0.36605   0.00000  Uiso   1.00
N136   N     0.28541   0.14510   0.64341   0.00000  Uiso   1.00
N137   N     0.46826   0.45985   0.71029   0.00000  Uiso   1.00
N138   N     0.46589   0.77340   0.52315   0.00000  Uiso   1.00
C139   C     0.58939   0.35180   0.04140   0.00000  Uiso   1.00
C140   C     0.62060   0.32776   0.97194   0.00000  Uiso   1.00
C141   C     0.65104   0.33659   0.99668   0.00000  Uiso   1.00
C142   C     0.67653   0.31093   0.92261   0.00000  Uiso   1.00
C143   C     0.72573   0.27871   0.82924   0.00000  Uiso   1.00
C144   C     0.57211   0.43689   0.98809   0.00000  Uiso   1.00
C145   C     0.56179   0.53747   0.02642   0.00000  Uiso   1.00
C146   C     0.54646   0.60366   0.96595   0.00000  Uiso   1.00
C147   C     0.52036   0.74084   0.89770   0.00000  Uiso   1.00
C148   C     0.56937   0.24877   0.04387   0.00000  Uiso   1.00
C149   C     0.55673   0.19118   0.12909   0.00000  Uiso   1.00
C150   C     0.53908   0.09900   0.11559   0.00000  Uiso   1.00
C151   C     0.50872   0.94408   0.13393   0.00000  Uiso   1.00
C152   C     0.58051   0.29050   0.86586   0.00000  Uiso   1.00
C153   C     0.61578   0.29447   0.87659   0.00000  Uiso   1.00
C154   C     0.64123   0.26877   0.80247   0.00000  Uiso   1.00
C155   C     0.67170   0.27757   0.82709   0.00000  Uiso   1.00
C156   C     0.56729   0.40360   0.89275   0.00000  Uiso   1.00
C157   C     0.55198   0.46965   0.83221   0.00000  Uiso   1.00
C158   C     0.54163   0.57031   0.87044   0.00000  Uiso   1.00
C159   C     0.56455   0.21547   0.94852   0.00000  Uiso   1.00
C160   C     0.54692   0.12336   0.93488   0.00000  Uiso   1.00
C161   C     0.53425   0.06565   0.02007   0.00000  Uiso   1.00
H162   H     0.59314   0.37773   0.11562   0.00000  Uiso   1.00
H163   H     0.65476   0.36238   0.07047   0.00000  Uiso   1.00
H164   H     0.56552   0.56321   0.10021   0.00000  Uiso   1.00
H165   H     0.56046   0.21697   0.20286   0.00000  Uiso   1.00
H166   H     0.72096   0.33070   0.97834   0.00000  Uiso   1.00
H167   H     0.53278   0.75416   0.04107   0.00000  Uiso   1.00
H168   H     0.52211   0.02406   0.25754   0.00000  Uiso   1.00
H169   H     0.57676   0.26458   0.79163   0.00000  Uiso   1.00
H170   H     0.63749   0.24301   0.72869   0.00000  Uiso   1.00
H171   H     0.54825   0.44385   0.75844   0.00000  Uiso   1.00
H172   H     0.54319   0.09762   0.86109   0.00000  Uiso   1.00
H173   H     0.70694   0.23383   0.70095   0.00000  Uiso   1.00
H174   H     0.51876   0.65729   0.76368   0.00000  Uiso   1.00
H175   H     0.50809   0.92718   0.98014   0.00000  Uiso   1.00
O176   O     0.75419   0.27015   0.80408   0.00000  Uiso   1.00
O177   O     0.50731   0.82571   0.88639   0.00000  Uiso   1.00
O178   O     0.49331   0.86783   0.17039   0.00000  Uiso   1.00
N179   N     0.70932   0.31084   0.92170   0.00000  Uiso   1.00
N180   N     0.53339   0.70676   0.98034   0.00000  Uiso   1.00
N181   N     0.52341   0.02419   0.18273   0.00000  Uiso   1.00
N182   N     0.70178   0.25871   0.77244   0.00000  Uiso   1.00
N183   N     0.52585   0.65463   0.83108   0.00000  Uiso   1.00
N184   N     0.51587   0.97206   0.03346   0.00000  Uiso   1.00
C185   C     0.91342   0.31877   0.95468   0.00000  Uiso   1.00
C186   C     0.87834   0.32716   0.00178   0.00000  Uiso   1.00
C187   C     0.85239   0.30596   0.95388   0.00000  Uiso   1.00
C188   C     0.82219   0.31830   0.00995   0.00000  Uiso   1.00
C189   C     0.76833   0.32635   0.06784   0.00000  Uiso   1.00
C190   C     0.92873   0.24040   0.02022   0.00000  Uiso   1.00
C191   C     0.94515   0.14626   0.98781   0.00000  Uiso   1.00
C192   C     0.95737   0.08558   0.05940   0.00000  Uiso   1.00
C193   C     0.98177   0.95897   0.14590   0.00000  Uiso   1.00
C194   C     0.92807   0.42959   0.96864   0.00000  Uiso   1.00
C195   C     0.94395   0.49452   0.89287   0.00000  Uiso   1.00
C196   C     0.95562   0.59311   0.92104   0.00000  Uiso   1.00
C197   C     0.97900   0.76025   0.92745   0.00000  Uiso   1.00
C198   C     0.90595   0.37839   0.13943   0.00000  Uiso   1.00
C199   C     0.87428   0.35954   0.10213   0.00000  Uiso   1.00
C200   C     0.84411   0.37192   0.15829   0.00000  Uiso   1.00
C201   C     0.81812   0.35075   0.11047   0.00000  Uiso   1.00
C202   C     0.92467   0.27278   0.12056   0.00000  Uiso   1.00
C203   C     0.93687   0.21222   0.19222   0.00000  Uiso   1.00
C204   C     0.95330   0.11802   0.15993   0.00000  Uiso   1.00
C205   C     0.92401   0.46197   0.06899   0.00000  Uiso   1.00
C206   C     0.93567   0.56048   0.09728   0.00000  Uiso   1.00
C207   C     0.95156   0.62555   0.02157   0.00000  Uiso   1.00
H208   H     0.91659   0.29355   0.87655   0.00000  Uiso   1.00
H209   H     0.85554   0.28089   0.87622   0.00000  Uiso   1.00
H210   H     0.94829   0.12123   0.91015   0.00000  Uiso   1.00
H211   H     0.94708   0.46943   0.81522   0.00000  Uiso   1.00
H212   H     0.78607   0.28110   0.92012   0.00000  Uiso   1.00
H213   H     0.98164   0.94446   0.99165   0.00000  Uiso   1.00
H214   H     0.97911   0.67871   0.79148   0.00000  Uiso   1.00
H215   H     0.90278   0.40360   0.21756   0.00000  Uiso   1.00
H216   H     0.84098   0.39698   0.23594   0.00000  Uiso   1.00
H217   H     0.93373   0.23731   0.26986   0.00000  Uiso   1.00
H218   H     0.93252   0.58551   0.17494   0.00000  Uiso   1.00
H219   H     0.77425   0.37532   0.21208   0.00000  Uiso   1.00
H220   H     0.96983   0.03867   0.28361   0.00000  Uiso   1.00
H221   H     0.96729   0.77293   0.08344   0.00000  Uiso   1.00
O222   O     0.73975   0.32183   0.07205   0.00000  Uiso   1.00
O223   O     0.99634   0.88018   0.16589   0.00000  Uiso   1.00
O224   O     0.99301   0.84351   0.90327   0.00000  Uiso   1.00
N225   N     0.79177   0.30420   0.98631   0.00000  Uiso   1.00
N226   N     0.97462   0.98945   0.05318   0.00000  Uiso   1.00
N227   N     0.97225   0.67590   0.86605   0.00000  Uiso   1.00
N228   N     0.78541   0.35490   0.14341   0.00000  Uiso   1.00
N229   N     0.96826   0.04015   0.21029   0.00000  Uiso   1.00
N230   N     0.96589   0.72660   0.02315   0.00000  Uiso   1.00
C231   C     0.08939   0.14820   0.54140   0.00000  Uiso   1.00
C232   C     0.12060   0.17224   0.47194   0.00000  Uiso   1.00
C233   C     0.15104   0.16341   0.49668   0.00000  Uiso   1.00
C234   C     0.17653   0.18907   0.42261   0.00000  Uiso   1.00
C235   C     0.22573   0.22129   0.32924   0.00000  Uiso   1.00
C236   C     0.07211   0.06311   0.48809   0.00000  Uiso   1.00
C237   C     0.06179   0.96253   0.52642   0.00000  Uiso   1.00
C238   C     0.04646   0.89634   0.46595   0.00000  Uiso   1.00
C239   C     0.02036   0.75916   0.39770   0.00000  Uiso   1.00
C240   C     0.06937   0.25123   0.54387   0.00000  Uiso   1.00
C241   C     0.05673   0.30882   0.62909   0.00000  Uiso   1.00
C242   C     0.03908   0.40100   0.61559   0.00000  Uiso   1.00
C243   C     0.00872   0.55592   0.63393   0.00000  Uiso   1.00
C244   C     0.08051   0.20950   0.36586   0.00000  Uiso   1.00
C245   C     0.11578   0.20553   0.37659   0.00000  Uiso   1.00
C246   C     0.14123   0.23123   0.30247   0.00000  Uiso   1.00
C247   C     0.17170   0.22243   0.32709   0.00000  Uiso   1.00
C248   C     0.06729   0.09640   0.39275   0.00000  Uiso   1.00
C249   C     0.05198   0.03035   0.33221   0.00000  Uiso   1.00
C250   C     0.04163   0.92969   0.37044   0.00000  Uiso   1.00
C251   C     0.06455   0.28453   0.44852   0.00000  Uiso   1.00
C252   C     0.04692   0.37664   0.43488   0.00000  Uiso   1.00
C253   C     0.03425   0.43435   0.52007   0.00000  Uiso   1.00
H254   H     0.09314   0.12227   0.61562   0.00000  Uiso   1.00
H255   H     0.15476   0.13762   0.57047   0.00000  Uiso   1.00
H256   H     0.06552   0.93679   0.60021   0.00000  Uiso   1.00
H257   H     0.06046   0.28303   0.70286   0.00000  Uiso   1.00
H258   H     0.22096   0.16930   0.47834   0.00000  Uiso   1.00
H259   H     0.03278   0.74584   0.54107   0.00000  Uiso   1.00
H260   H     0.02211   0.47594   0.75754   0.00000  Uiso   1.00
H261   H     0.07676   0.23542   0.29163   0.00000  Uiso   1.00
H262   H     0.13749   0.25699   0.22869   0.00000  Uiso   1.00
H263   H     0.04825   0.05615   0.25844   0.00000  Uiso   1.00
H264   H     0.04319   0.40238   0.36109   0.00000  Uiso   1.00
H265   H     0.20694   0.26617   0.20095   0.00000  Uiso   1.00
H266   H     0.01876   0.84271   0.26368   0.00000  Uiso   1.00
H267   H     0.00809   0.57282   0.48014   0.00000  Uiso   1.00
O268   O     0.25419   0.22985   0.30408   0.00000  Uiso   1.00
O269   O     0.00731   0.67429   0.38639   0.00000  Uiso   1.00
O270   O     0.99331   0.63217   0.67039   0.00000  Uiso   1.00
N271   N     0.20932   0.18916   0.42170   0.00000  Uiso   1.00
N272   N     0.03339   0.79324   0.48034   0.00000  Uiso   1.00
N273   N     0.02341   0.47581   0.68273   0.00000  Uiso   1.00
N274   N     0.20178   0.24129   0.27244   0.00000  Uiso   1.00
N275   N     0.02585   0.84537   0.33108   0.00000  Uiso   1.00
N276   N     0.01587   0.52794   0.53346   0.00000  Uiso   1.00
C277   C     0.41342   0.81877   0.95468   0.00000  Uiso   1.00
C278   C     0.37834   0.82716   0.00178   0.00000  Uiso   1.00
C279   C     0.35239   0.80596   0.95388   0.00000  Uiso   1.00
C280   C     0.32219   0.81830   0.00995   0.00000  Uiso   1.00
C281   C     0.26833   0.82635   0.06784   0.00000  Uiso   1.00
C282   C     0.42873   0.74040   0.02022   0.00000  Uiso   1.00
C283   C     0.44515   0.64626   0.98781   0.00000  Uiso   1.00
C284   C     0.45737   0.58558   0.05940   0.00000  Uiso   1.00
C285   C     0.48177   0.45897   0.14590   0.00000  Uiso   1.00
C286   C     0.42807   0.92959   0.96864   0.00000  Uiso   1.00
C287   C     0.44395   0.99452   0.89287   0.00000  Uiso   1.00
C288   C     0.45562   0.09311   0.92104   0.00000  Uiso   1.00
C289   C     0.47900   0.26025   0.92745   0.00000  Uiso   1.00
C290   C     0.40595   0.87839   0.13943   0.00000  Uiso   1.00
C291   C     0.37428   0.85954   0.10213   0.00000  Uiso   1.00
C292   C     0.34411   0.87192   0.15829   0.00000  Uiso   1.00
C293   C     0.31812   0.85075   0.11047   0.00000  Uiso   1.00
C294   C     0.42467   0.77278   0.12056   0.00000  Uiso   1.00
C295   C     0.43687   0.71222   0.19222   0.00000  Uiso   1.00
C296   C     0.45330   0.61802   0.15993   0.00000  Uiso   1.00
C297   C     0.42401   0.96197   0.06899   0.00000  Uiso   1.00
C298   C     0.43567   0.06048   0.09728   0.00000  Uiso   1.00
C299   C     0.45156   0.12555   0.02157   0.00000  Uiso   1.00
H300   H     0.41659   0.79355   0.87655   0.00000  Uiso   1.00
H301   H     0.35554   0.78089   0.87622   0.00000  Uiso   1.00
H302   H     0.44829   0.62123   0.91015   0.00000  Uiso   1.00
H303   H     0.44708   0.96943   0.81522   0.00000  Uiso   1.00
H304   H     0.28607   0.78110   0.92012   0.00000  Uiso   1.00
H305   H     0.48164   0.44446   0.99165   0.00000  Uiso   1.00
H306   H     0.47911   0.17871   0.79148   0.00000  Uiso   1.00
H307   H     0.40278   0.90360   0.21756   0.00000  Uiso   1.00
H308   H     0.34098   0.89698   0.23594   0.00000  Uiso   1.00
H309   H     0.43373   0.73731   0.26986   0.00000  Uiso   1.00
H310   H     0.43252   0.08551   0.17494   0.00000  Uiso   1.00
H311   H     0.27425   0.87532   0.21208   0.00000  Uiso   1.00
H312   H     0.46983   0.53867   0.28361   0.00000  Uiso   1.00
H313   H     0.46729   0.27293   0.08344   0.00000  Uiso   1.00
O314   O     0.23975   0.82183   0.07205   0.00000  Uiso   1.00
O315   O     0.49634   0.38018   0.16589   0.00000  Uiso   1.00
O316   O     0.49301   0.34351   0.90327   0.00000  Uiso   1.00
N317   N     0.29177   0.80420   0.98631   0.00000  Uiso   1.00
N318   N     0.47462   0.48945   0.05318   0.00000  Uiso   1.00
N319   N     0.47225   0.17590   0.86605   0.00000  Uiso   1.00
N320   N     0.28541   0.85490   0.14341   0.00000  Uiso   1.00
N321   N     0.46826   0.54015   0.21029   0.00000  Uiso   1.00
N322   N     0.46589   0.22660   0.02315   0.00000  Uiso   1.00
C323   C     0.58939   0.64820   0.54140   0.00000  Uiso   1.00
C324   C     0.62060   0.67224   0.47194   0.00000  Uiso   1.00
C325   C     0.65104   0.66341   0.49668   0.00000  Uiso   1.00
C326   C     0.67653   0.68907   0.42261   0.00000  Uiso   1.00
C327   C     0.72573   0.72129   0.32924   0.00000  Uiso   1.00
C328   C     0.57211   0.56311   0.48809   0.00000  Uiso   1.00
C329   C     0.56179   0.46253   0.52642   0.00000  Uiso   1.00
C330   C     0.54646   0.39634   0.46595   0.00000  Uiso   1.00
C331   C     0.52036   0.25916   0.39770   0.00000  Uiso   1.00
C332   C     0.56937   0.75123   0.54387   0.00000  Uiso   1.00
C333   C     0.55673   0.80882   0.62909   0.00000  Uiso   1.00
C334   C     0.53908   0.90100   0.61559   0.00000  Uiso   1.00
C335   C     0.50872   0.05592   0.63393   0.00000  Uiso   1.00
C336   C     0.58051   0.70950   0.36586   0.00000  Uiso   1.00
C337   C     0.61578   0.70553   0.37659   0.00000  Uiso   1.00
C338   C     0.64123   0.73123   0.30247   0.00000  Uiso   1.00
C339   C     0.67170   0.72243   0.32709   0.00000  Uiso   1.00
C340   C     0.56729   0.59640   0.39275   0.00000  Uiso   1.00
C341   C     0.55198   0.53035   0.33221   0.00000  Uiso   1.00
C342   C     0.54163   0.42969   0.37044   0.00000  Uiso   1.00
C343   C     0.56455   0.78453   0.44852   0.00000  Uiso   1.00
C344   C     0.54692   0.87664   0.43488   0.00000  Uiso   1.00
C345   C     0.53425   0.93435   0.52007   0.00000  Uiso   1.00
H346   H     0.59314   0.62227   0.61562   0.00000  Uiso   1.00
H347   H     0.65476   0.63762   0.57047   0.00000  Uiso   1.00
H348   H     0.56552   0.43679   0.60021   0.00000  Uiso   1.00
H349   H     0.56046   0.78303   0.70286   0.00000  Uiso   1.00
H350   H     0.72096   0.66930   0.47834   0.00000  Uiso   1.00
H351   H     0.53278   0.24584   0.54107   0.00000  Uiso   1.00
H352   H     0.52211   0.97594   0.75754   0.00000  Uiso   1.00
H353   H     0.57676   0.73542   0.29163   0.00000  Uiso   1.00
H354   H     0.63749   0.75699   0.22869   0.00000  Uiso   1.00
H355   H     0.54825   0.55615   0.25844   0.00000  Uiso   1.00
H356   H     0.54319   0.90238   0.36109   0.00000  Uiso   1.00
H357   H     0.70694   0.76617   0.20095   0.00000  Uiso   1.00
H358   H     0.51876   0.34271   0.26368   0.00000  Uiso   1.00
H359   H     0.50809   0.07282   0.48014   0.00000  Uiso   1.00
O360   O     0.75419   0.72985   0.30408   0.00000  Uiso   1.00
O361   O     0.50731   0.17429   0.38639   0.00000  Uiso   1.00
O362   O     0.49331   0.13217   0.67039   0.00000  Uiso   1.00
N363   N     0.70932   0.68916   0.42170   0.00000  Uiso   1.00
N364   N     0.53339   0.29324   0.48034   0.00000  Uiso   1.00
N365   N     0.52341   0.97581   0.68273   0.00000  Uiso   1.00
N366   N     0.70178   0.74129   0.27244   0.00000  Uiso   1.00
N367   N     0.52585   0.34537   0.33108   0.00000  Uiso   1.00
N368   N     0.51587   0.02794   0.53346   0.00000  Uiso   1.00
