data_job_04734
_audit_creation_date              2018-12-19
_audit_creation_method            'Materials Studio'
_symmetry_space_group_name_H-M    'P1'
_symmetry_Int_Tables_number       1
_symmetry_cell_setting            triclinic
loop_
_symmetry_equiv_pos_as_xyz
  x,y,z
_cell_length_a                    15.6616
_cell_length_b                    12.6222
_cell_length_c                    33.9482
_cell_angle_alpha                 90.0000
_cell_angle_beta                  127.0073
_cell_angle_gamma                 90.0000
loop_
_atom_site_label
_atom_site_type_symbol
_atom_site_fract_x
_atom_site_fract_y
_atom_site_fract_z
_atom_site_U_iso_or_equiv
_atom_site_adp_type
_atom_site_occupancy
C1     C     0.02542   0.03955   0.67860   0.00000  Uiso   1.00
C2     C     0.12167   0.10679   0.69370   0.00000  Uiso   1.00
C3     C     0.19800   0.14698   0.74053   0.00000  Uiso   1.00
C4     C     0.27988   0.20667   0.74684   0.00000  Uiso   1.00
C5     C     0.42851   0.30827   0.77623   0.00000  Uiso   1.00
C6     C     0.92739   0.09781   0.63575   0.00000  Uiso   1.00
C7     C     0.84036   0.13042   0.63386   0.00000  Uiso   1.00
C8     C     0.75869   0.18254   0.59139   0.00000  Uiso   1.00
C9     C     0.60565   0.27013   0.53080   0.00000  Uiso   1.00
C10    C     0.03384   0.93774   0.65696   0.00000  Uiso   1.00
C11    C     0.03628   0.83575   0.67289   0.00000  Uiso   1.00
C12    C     0.04421   0.75310   0.64827   0.00000  Uiso   1.00
C13    C     0.05645   0.59214   0.62061   0.00000  Uiso   1.00
C14    C     0.03512   0.07410   0.60653   0.00000  Uiso   1.00
C15    C     0.12694   0.12556   0.65455   0.00000  Uiso   1.00
C16    C     0.20873   0.18521   0.66079   0.00000  Uiso   1.00
C17    C     0.28517   0.22547   0.70762   0.00000  Uiso   1.00
C18    C     0.93266   0.11658   0.59661   0.00000  Uiso   1.00
C19    C     0.85109   0.16865   0.55412   0.00000  Uiso   1.00
C20    C     0.76397   0.20135   0.55217   0.00000  Uiso   1.00
C21    C     0.03911   0.95650   0.61782   0.00000  Uiso   1.00
C22    C     0.04702   0.87399   0.59316   0.00000  Uiso   1.00
C23    C     0.04949   0.77190   0.60905   0.00000  Uiso   1.00
H24    H     0.02131   0.02494   0.70908   0.00000  Uiso   1.00
H25    H     0.19389   0.13244   0.77082   0.00000  Uiso   1.00
H26    H     0.83630   0.11588   0.66416   0.00000  Uiso   1.00
H27    H     0.03220   0.82126   0.70319   0.00000  Uiso   1.00
H28    H     0.38752   0.25994   0.82200   0.00000  Uiso   1.00
H29    H     0.63351   0.22498   0.59710   0.00000  Uiso   1.00
H30    H     0.04661   0.60372   0.67940   0.00000  Uiso   1.00
H31    H     0.03922   0.08872   0.57605   0.00000  Uiso   1.00
H32    H     0.21279   0.19972   0.63049   0.00000  Uiso   1.00
H33    H     0.85520   0.18316   0.52383   0.00000  Uiso   1.00
H34    H     0.05110   0.88854   0.56286   0.00000  Uiso   1.00
H35    H     0.40286   0.31454   0.70810   0.00000  Uiso   1.00
H36    H     0.64884   0.27959   0.48320   0.00000  Uiso   1.00
H37    H     0.06194   0.65833   0.56550   0.00000  Uiso   1.00
O38    O     0.50902   0.35914   0.80326   0.00000  Uiso   1.00
O39    O     0.51978   0.31326   0.50820   0.00000  Uiso   1.00
O40    O     0.06176   0.49818   0.61617   0.00000  Uiso   1.00
N41    N     0.36732   0.25754   0.78772   0.00000  Uiso   1.00
N42    N     0.66238   0.22487   0.57746   0.00000  Uiso   1.00
N43    N     0.04856   0.64404   0.65440   0.00000  Uiso   1.00
N44    N     0.37558   0.28692   0.72644   0.00000  Uiso   1.00
N45    N     0.67063   0.25426   0.51618   0.00000  Uiso   1.00
N46    N     0.05681   0.67342   0.59311   0.00000  Uiso   1.00
C47    C     0.52762   0.36018   0.17915   0.00000  Uiso   1.00
C48    C     0.62396   0.42777   0.19464   0.00000  Uiso   1.00
C49    C     0.69843   0.46966   0.24131   0.00000  Uiso   1.00
C50    C     0.78074   0.52938   0.24804   0.00000  Uiso   1.00
C51    C     0.92916   0.63176   0.27796   0.00000  Uiso   1.00
C52    C     0.43003   0.41694   0.13532   0.00000  Uiso   1.00
C53    C     0.34145   0.44972   0.13212   0.00000  Uiso   1.00
C54    C     0.26051   0.50030   0.08891   0.00000  Uiso   1.00
C55    C     0.10783   0.58580   0.02672   0.00000  Uiso   1.00
C56    C     0.53830   0.25747   0.15880   0.00000  Uiso   1.00
C57    C     0.54072   0.15615   0.17533   0.00000  Uiso   1.00
C58    C     0.55091   0.07247   0.15188   0.00000  Uiso   1.00
C59    C     0.56632   0.91036   0.12614   0.00000  Uiso   1.00
C60    C     0.54138   0.39172   0.10810   0.00000  Uiso   1.00
C61    C     0.63142   0.44490   0.15605   0.00000  Uiso   1.00
C62    C     0.71365   0.50456   0.16271   0.00000  Uiso   1.00
C63    C     0.78823   0.54653   0.20939   0.00000  Uiso   1.00
C64    C     0.43750   0.43407   0.09673   0.00000  Uiso   1.00
C65    C     0.35667   0.48461   0.05352   0.00000  Uiso   1.00
C66    C     0.26800   0.51746   0.05025   0.00000  Uiso   1.00
C67    C     0.54577   0.27459   0.12021   0.00000  Uiso   1.00
C68    C     0.55595   0.19105   0.09673   0.00000  Uiso   1.00
C69    C     0.55839   0.08963   0.11322   0.00000  Uiso   1.00
H70    H     0.52180   0.34685   0.20919   0.00000  Uiso   1.00
H71    H     0.69261   0.45640   0.27117   0.00000  Uiso   1.00
H72    H     0.33569   0.43644   0.16199   0.00000  Uiso   1.00
H73    H     0.53493   0.14293   0.20519   0.00000  Uiso   1.00
H74    H     0.88526   0.58544   0.32286   0.00000  Uiso   1.00
H75    H     0.13265   0.54333   0.09264   0.00000  Uiso   1.00
H76    H     0.55279   0.92439   0.18374   0.00000  Uiso   1.00
H77    H     0.54719   0.40506   0.07806   0.00000  Uiso   1.00
H78    H     0.71941   0.51780   0.13284   0.00000  Uiso   1.00
H79    H     0.36248   0.49785   0.02366   0.00000  Uiso   1.00
H80    H     0.56173   0.20433   0.06687   0.00000  Uiso   1.00
H81    H     0.90701   0.63528   0.21059   0.00000  Uiso   1.00
H82    H     0.15440   0.59317   0.98036   0.00000  Uiso   1.00
H83    H     0.57454   0.97423   0.07147   0.00000  Uiso   1.00
O84    O     0.00895   0.68351   0.30512   0.00000  Uiso   1.00
O85    O     0.02155   0.62824   0.00308   0.00000  Uiso   1.00
O86    O     0.57277   0.81621   0.12261   0.00000  Uiso   1.00
N87    N     0.86676   0.58168   0.28892   0.00000  Uiso   1.00
N88    N     0.16312   0.54232   0.07368   0.00000  Uiso   1.00
N89    N     0.55589   0.96367   0.15885   0.00000  Uiso   1.00
N90    N     0.87846   0.60850   0.22851   0.00000  Uiso   1.00
N91    N     0.17483   0.56914   0.01327   0.00000  Uiso   1.00
N92    N     0.56759   0.99049   0.09844   0.00000  Uiso   1.00
C93    C     0.97458   0.03955   0.82140   0.00000  Uiso   1.00
C94    C     0.87833   0.10679   0.80630   0.00000  Uiso   1.00
C95    C     0.80200   0.14698   0.75947   0.00000  Uiso   1.00
C96    C     0.72012   0.20667   0.75316   0.00000  Uiso   1.00
C97    C     0.57149   0.30827   0.72377   0.00000  Uiso   1.00
C98    C     0.07261   0.09781   0.86425   0.00000  Uiso   1.00
C99    C     0.15964   0.13042   0.86614   0.00000  Uiso   1.00
C100   C     0.24131   0.18254   0.90861   0.00000  Uiso   1.00
C101   C     0.39435   0.27013   0.96920   0.00000  Uiso   1.00
C102   C     0.96616   0.93774   0.84304   0.00000  Uiso   1.00
C103   C     0.96372   0.83575   0.82711   0.00000  Uiso   1.00
C104   C     0.95579   0.75310   0.85173   0.00000  Uiso   1.00
C105   C     0.94355   0.59214   0.87939   0.00000  Uiso   1.00
C106   C     0.96488   0.07410   0.89347   0.00000  Uiso   1.00
C107   C     0.87306   0.12556   0.84545   0.00000  Uiso   1.00
C108   C     0.79127   0.18521   0.83921   0.00000  Uiso   1.00
C109   C     0.71483   0.22547   0.79238   0.00000  Uiso   1.00
C110   C     0.06734   0.11658   0.90339   0.00000  Uiso   1.00
C111   C     0.14891   0.16865   0.94588   0.00000  Uiso   1.00
C112   C     0.23603   0.20135   0.94783   0.00000  Uiso   1.00
C113   C     0.96089   0.95650   0.88218   0.00000  Uiso   1.00
C114   C     0.95298   0.87399   0.90684   0.00000  Uiso   1.00
C115   C     0.95051   0.77190   0.89095   0.00000  Uiso   1.00
H116   H     0.97869   0.02494   0.79092   0.00000  Uiso   1.00
H117   H     0.80611   0.13244   0.72918   0.00000  Uiso   1.00
H118   H     0.16370   0.11588   0.83584   0.00000  Uiso   1.00
H119   H     0.96780   0.82126   0.79681   0.00000  Uiso   1.00
H120   H     0.61248   0.25994   0.67800   0.00000  Uiso   1.00
H121   H     0.36649   0.22498   0.90290   0.00000  Uiso   1.00
H122   H     0.95339   0.60372   0.82060   0.00000  Uiso   1.00
H123   H     0.96078   0.08872   0.92395   0.00000  Uiso   1.00
H124   H     0.78721   0.19972   0.86951   0.00000  Uiso   1.00
H125   H     0.14480   0.18316   0.97617   0.00000  Uiso   1.00
H126   H     0.94890   0.88854   0.93714   0.00000  Uiso   1.00
H127   H     0.59714   0.31454   0.79190   0.00000  Uiso   1.00
H128   H     0.35116   0.27959   0.01680   0.00000  Uiso   1.00
H129   H     0.93806   0.65833   0.93450   0.00000  Uiso   1.00
O130   O     0.49098   0.35914   0.69674   0.00000  Uiso   1.00
O131   O     0.48022   0.31326   0.99180   0.00000  Uiso   1.00
O132   O     0.93824   0.49818   0.88383   0.00000  Uiso   1.00
N133   N     0.63268   0.25754   0.71228   0.00000  Uiso   1.00
N134   N     0.33762   0.22487   0.92254   0.00000  Uiso   1.00
N135   N     0.95144   0.64404   0.84560   0.00000  Uiso   1.00
N136   N     0.62442   0.28692   0.77356   0.00000  Uiso   1.00
N137   N     0.32937   0.25426   0.98382   0.00000  Uiso   1.00
N138   N     0.94319   0.67342   0.90689   0.00000  Uiso   1.00
C139   C     0.47238   0.36018   0.32085   0.00000  Uiso   1.00
C140   C     0.37604   0.42777   0.30536   0.00000  Uiso   1.00
C141   C     0.30157   0.46966   0.25869   0.00000  Uiso   1.00
C142   C     0.21926   0.52938   0.25196   0.00000  Uiso   1.00
C143   C     0.07084   0.63176   0.22204   0.00000  Uiso   1.00
C144   C     0.56997   0.41694   0.36468   0.00000  Uiso   1.00
C145   C     0.65855   0.44972   0.36788   0.00000  Uiso   1.00
C146   C     0.73949   0.50030   0.41109   0.00000  Uiso   1.00
C147   C     0.89217   0.58580   0.47328   0.00000  Uiso   1.00
C148   C     0.46170   0.25747   0.34120   0.00000  Uiso   1.00
C149   C     0.45928   0.15615   0.32467   0.00000  Uiso   1.00
C150   C     0.44909   0.07247   0.34812   0.00000  Uiso   1.00
C151   C     0.43368   0.91036   0.37386   0.00000  Uiso   1.00
C152   C     0.45862   0.39172   0.39190   0.00000  Uiso   1.00
C153   C     0.36858   0.44490   0.34395   0.00000  Uiso   1.00
C154   C     0.28635   0.50456   0.33729   0.00000  Uiso   1.00
C155   C     0.21177   0.54653   0.29061   0.00000  Uiso   1.00
C156   C     0.56250   0.43407   0.40327   0.00000  Uiso   1.00
C157   C     0.64333   0.48461   0.44648   0.00000  Uiso   1.00
C158   C     0.73200   0.51746   0.44975   0.00000  Uiso   1.00
C159   C     0.45423   0.27459   0.37979   0.00000  Uiso   1.00
C160   C     0.44405   0.19105   0.40327   0.00000  Uiso   1.00
C161   C     0.44161   0.08963   0.38678   0.00000  Uiso   1.00
H162   H     0.47820   0.34685   0.29081   0.00000  Uiso   1.00
H163   H     0.30739   0.45640   0.22883   0.00000  Uiso   1.00
H164   H     0.66431   0.43644   0.33801   0.00000  Uiso   1.00
H165   H     0.46507   0.14293   0.29481   0.00000  Uiso   1.00
H166   H     0.11474   0.58544   0.17714   0.00000  Uiso   1.00
H167   H     0.86735   0.54333   0.40736   0.00000  Uiso   1.00
H168   H     0.44721   0.92439   0.31626   0.00000  Uiso   1.00
H169   H     0.45281   0.40506   0.42194   0.00000  Uiso   1.00
H170   H     0.28059   0.51780   0.36716   0.00000  Uiso   1.00
H171   H     0.63752   0.49785   0.47634   0.00000  Uiso   1.00
H172   H     0.43827   0.20433   0.43313   0.00000  Uiso   1.00
H173   H     0.09299   0.63528   0.28941   0.00000  Uiso   1.00
H174   H     0.84560   0.59317   0.51964   0.00000  Uiso   1.00
H175   H     0.42546   0.97423   0.42853   0.00000  Uiso   1.00
O176   O     0.99105   0.68351   0.19488   0.00000  Uiso   1.00
O177   O     0.97845   0.62824   0.49692   0.00000  Uiso   1.00
O178   O     0.42723   0.81621   0.37739   0.00000  Uiso   1.00
N179   N     0.13324   0.58168   0.21108   0.00000  Uiso   1.00
N180   N     0.83688   0.54232   0.42632   0.00000  Uiso   1.00
N181   N     0.44411   0.96367   0.34115   0.00000  Uiso   1.00
N182   N     0.12154   0.60850   0.27149   0.00000  Uiso   1.00
N183   N     0.82517   0.56914   0.48673   0.00000  Uiso   1.00
N184   N     0.43241   0.99049   0.40156   0.00000  Uiso   1.00
C185   C     0.97458   0.96045   0.32140   0.00000  Uiso   1.00
C186   C     0.87833   0.89321   0.30630   0.00000  Uiso   1.00
C187   C     0.80200   0.85302   0.25947   0.00000  Uiso   1.00
C188   C     0.72012   0.79333   0.25316   0.00000  Uiso   1.00
C189   C     0.57149   0.69173   0.22377   0.00000  Uiso   1.00
C190   C     0.07261   0.90219   0.36425   0.00000  Uiso   1.00
C191   C     0.15964   0.86958   0.36614   0.00000  Uiso   1.00
C192   C     0.24131   0.81746   0.40861   0.00000  Uiso   1.00
C193   C     0.39435   0.72987   0.46920   0.00000  Uiso   1.00
C194   C     0.96616   0.06226   0.34304   0.00000  Uiso   1.00
C195   C     0.96372   0.16425   0.32711   0.00000  Uiso   1.00
C196   C     0.95579   0.24690   0.35173   0.00000  Uiso   1.00
C197   C     0.94355   0.40786   0.37939   0.00000  Uiso   1.00
C198   C     0.96488   0.92590   0.39347   0.00000  Uiso   1.00
C199   C     0.87306   0.87444   0.34545   0.00000  Uiso   1.00
C200   C     0.79127   0.81479   0.33921   0.00000  Uiso   1.00
C201   C     0.71483   0.77453   0.29238   0.00000  Uiso   1.00
C202   C     0.06734   0.88342   0.40339   0.00000  Uiso   1.00
C203   C     0.14891   0.83135   0.44588   0.00000  Uiso   1.00
C204   C     0.23603   0.79865   0.44783   0.00000  Uiso   1.00
C205   C     0.96089   0.04350   0.38218   0.00000  Uiso   1.00
C206   C     0.95298   0.12601   0.40684   0.00000  Uiso   1.00
C207   C     0.95051   0.22810   0.39095   0.00000  Uiso   1.00
H208   H     0.97869   0.97506   0.29092   0.00000  Uiso   1.00
H209   H     0.80611   0.86756   0.22918   0.00000  Uiso   1.00
H210   H     0.16370   0.88412   0.33584   0.00000  Uiso   1.00
H211   H     0.96780   0.17874   0.29681   0.00000  Uiso   1.00
H212   H     0.61248   0.74006   0.17800   0.00000  Uiso   1.00
H213   H     0.36649   0.77502   0.40290   0.00000  Uiso   1.00
H214   H     0.95339   0.39628   0.32060   0.00000  Uiso   1.00
H215   H     0.96078   0.91128   0.42395   0.00000  Uiso   1.00
H216   H     0.78721   0.80028   0.36951   0.00000  Uiso   1.00
H217   H     0.14480   0.81684   0.47617   0.00000  Uiso   1.00
H218   H     0.94890   0.11146   0.43714   0.00000  Uiso   1.00
H219   H     0.59714   0.68546   0.29190   0.00000  Uiso   1.00
H220   H     0.35116   0.72041   0.51680   0.00000  Uiso   1.00
H221   H     0.93806   0.34167   0.43450   0.00000  Uiso   1.00
O222   O     0.49098   0.64086   0.19674   0.00000  Uiso   1.00
O223   O     0.48022   0.68674   0.49180   0.00000  Uiso   1.00
O224   O     0.93824   0.50182   0.38383   0.00000  Uiso   1.00
N225   N     0.63268   0.74246   0.21228   0.00000  Uiso   1.00
N226   N     0.33762   0.77513   0.42254   0.00000  Uiso   1.00
N227   N     0.95144   0.35596   0.34560   0.00000  Uiso   1.00
N228   N     0.62442   0.71308   0.27356   0.00000  Uiso   1.00
N229   N     0.32937   0.74574   0.48382   0.00000  Uiso   1.00
N230   N     0.94319   0.32658   0.40689   0.00000  Uiso   1.00
C231   C     0.47238   0.63982   0.82085   0.00000  Uiso   1.00
C232   C     0.37604   0.57223   0.80536   0.00000  Uiso   1.00
C233   C     0.30157   0.53034   0.75869   0.00000  Uiso   1.00
C234   C     0.21926   0.47062   0.75196   0.00000  Uiso   1.00
C235   C     0.07084   0.36824   0.72204   0.00000  Uiso   1.00
C236   C     0.56997   0.58306   0.86468   0.00000  Uiso   1.00
C237   C     0.65855   0.55028   0.86788   0.00000  Uiso   1.00
C238   C     0.73949   0.49970   0.91109   0.00000  Uiso   1.00
C239   C     0.89217   0.41420   0.97328   0.00000  Uiso   1.00
C240   C     0.46170   0.74253   0.84120   0.00000  Uiso   1.00
C241   C     0.45928   0.84385   0.82467   0.00000  Uiso   1.00
C242   C     0.44909   0.92753   0.84812   0.00000  Uiso   1.00
C243   C     0.43368   0.08964   0.87386   0.00000  Uiso   1.00
C244   C     0.45862   0.60828   0.89190   0.00000  Uiso   1.00
C245   C     0.36858   0.55510   0.84395   0.00000  Uiso   1.00
C246   C     0.28635   0.49544   0.83729   0.00000  Uiso   1.00
C247   C     0.21177   0.45347   0.79061   0.00000  Uiso   1.00
C248   C     0.56250   0.56593   0.90327   0.00000  Uiso   1.00
C249   C     0.64333   0.51539   0.94648   0.00000  Uiso   1.00
C250   C     0.73200   0.48254   0.94975   0.00000  Uiso   1.00
C251   C     0.45423   0.72541   0.87979   0.00000  Uiso   1.00
C252   C     0.44405   0.80895   0.90327   0.00000  Uiso   1.00
C253   C     0.44161   0.91037   0.88678   0.00000  Uiso   1.00
H254   H     0.47820   0.65315   0.79081   0.00000  Uiso   1.00
H255   H     0.30739   0.54360   0.72883   0.00000  Uiso   1.00
H256   H     0.66431   0.56356   0.83801   0.00000  Uiso   1.00
H257   H     0.46507   0.85707   0.79481   0.00000  Uiso   1.00
H258   H     0.11474   0.41456   0.67714   0.00000  Uiso   1.00
H259   H     0.86735   0.45667   0.90736   0.00000  Uiso   1.00
H260   H     0.44721   0.07561   0.81626   0.00000  Uiso   1.00
H261   H     0.45281   0.59494   0.92194   0.00000  Uiso   1.00
H262   H     0.28059   0.48220   0.86716   0.00000  Uiso   1.00
H263   H     0.63752   0.50215   0.97634   0.00000  Uiso   1.00
H264   H     0.43827   0.79567   0.93313   0.00000  Uiso   1.00
H265   H     0.09299   0.36472   0.78941   0.00000  Uiso   1.00
H266   H     0.84560   0.40683   0.01964   0.00000  Uiso   1.00
H267   H     0.42546   0.02577   0.92853   0.00000  Uiso   1.00
O268   O     0.99105   0.31649   0.69488   0.00000  Uiso   1.00
O269   O     0.97845   0.37176   0.99692   0.00000  Uiso   1.00
O270   O     0.42723   0.18379   0.87739   0.00000  Uiso   1.00
N271   N     0.13324   0.41832   0.71108   0.00000  Uiso   1.00
N272   N     0.83688   0.45768   0.92632   0.00000  Uiso   1.00
N273   N     0.44411   0.03633   0.84115   0.00000  Uiso   1.00
N274   N     0.12154   0.39150   0.77149   0.00000  Uiso   1.00
N275   N     0.82517   0.43086   0.98673   0.00000  Uiso   1.00
N276   N     0.43241   0.00951   0.90156   0.00000  Uiso   1.00
C277   C     0.02542   0.96045   0.17860   0.00000  Uiso   1.00
C278   C     0.12167   0.89321   0.19370   0.00000  Uiso   1.00
C279   C     0.19800   0.85302   0.24053   0.00000  Uiso   1.00
C280   C     0.27988   0.79333   0.24684   0.00000  Uiso   1.00
C281   C     0.42851   0.69173   0.27623   0.00000  Uiso   1.00
C282   C     0.92739   0.90219   0.13575   0.00000  Uiso   1.00
C283   C     0.84036   0.86958   0.13386   0.00000  Uiso   1.00
C284   C     0.75869   0.81746   0.09139   0.00000  Uiso   1.00
C285   C     0.60565   0.72987   0.03080   0.00000  Uiso   1.00
C286   C     0.03384   0.06226   0.15696   0.00000  Uiso   1.00
C287   C     0.03628   0.16425   0.17289   0.00000  Uiso   1.00
C288   C     0.04421   0.24690   0.14827   0.00000  Uiso   1.00
C289   C     0.05645   0.40786   0.12061   0.00000  Uiso   1.00
C290   C     0.03512   0.92590   0.10653   0.00000  Uiso   1.00
C291   C     0.12694   0.87444   0.15455   0.00000  Uiso   1.00
C292   C     0.20873   0.81479   0.16079   0.00000  Uiso   1.00
C293   C     0.28517   0.77453   0.20762   0.00000  Uiso   1.00
C294   C     0.93266   0.88342   0.09661   0.00000  Uiso   1.00
C295   C     0.85109   0.83135   0.05412   0.00000  Uiso   1.00
C296   C     0.76397   0.79865   0.05217   0.00000  Uiso   1.00
C297   C     0.03911   0.04350   0.11782   0.00000  Uiso   1.00
C298   C     0.04702   0.12601   0.09316   0.00000  Uiso   1.00
C299   C     0.04949   0.22810   0.10905   0.00000  Uiso   1.00
H300   H     0.02131   0.97506   0.20908   0.00000  Uiso   1.00
H301   H     0.19389   0.86756   0.27082   0.00000  Uiso   1.00
H302   H     0.83630   0.88412   0.16416   0.00000  Uiso   1.00
H303   H     0.03220   0.17874   0.20319   0.00000  Uiso   1.00
H304   H     0.38752   0.74006   0.32200   0.00000  Uiso   1.00
H305   H     0.63351   0.77502   0.09710   0.00000  Uiso   1.00
H306   H     0.04661   0.39628   0.17940   0.00000  Uiso   1.00
H307   H     0.03922   0.91128   0.07605   0.00000  Uiso   1.00
H308   H     0.21279   0.80028   0.13049   0.00000  Uiso   1.00
H309   H     0.85520   0.81684   0.02383   0.00000  Uiso   1.00
H310   H     0.05110   0.11146   0.06286   0.00000  Uiso   1.00
H311   H     0.40286   0.68546   0.20810   0.00000  Uiso   1.00
H312   H     0.64884   0.72041   0.98320   0.00000  Uiso   1.00
H313   H     0.06194   0.34167   0.06550   0.00000  Uiso   1.00
O314   O     0.50902   0.64086   0.30326   0.00000  Uiso   1.00
O315   O     0.51978   0.68674   0.00820   0.00000  Uiso   1.00
O316   O     0.06176   0.50182   0.11617   0.00000  Uiso   1.00
N317   N     0.36732   0.74246   0.28772   0.00000  Uiso   1.00
N318   N     0.66238   0.77513   0.07746   0.00000  Uiso   1.00
N319   N     0.04856   0.35596   0.15440   0.00000  Uiso   1.00
N320   N     0.37558   0.71308   0.22644   0.00000  Uiso   1.00
N321   N     0.67063   0.74574   0.01618   0.00000  Uiso   1.00
N322   N     0.05681   0.32658   0.09311   0.00000  Uiso   1.00
C323   C     0.52762   0.63982   0.67915   0.00000  Uiso   1.00
C324   C     0.62396   0.57223   0.69464   0.00000  Uiso   1.00
C325   C     0.69843   0.53034   0.74131   0.00000  Uiso   1.00
C326   C     0.78074   0.47062   0.74804   0.00000  Uiso   1.00
C327   C     0.92916   0.36824   0.77796   0.00000  Uiso   1.00
C328   C     0.43003   0.58306   0.63532   0.00000  Uiso   1.00
C329   C     0.34145   0.55028   0.63212   0.00000  Uiso   1.00
C330   C     0.26051   0.49970   0.58891   0.00000  Uiso   1.00
C331   C     0.10783   0.41420   0.52672   0.00000  Uiso   1.00
C332   C     0.53830   0.74253   0.65880   0.00000  Uiso   1.00
C333   C     0.54072   0.84385   0.67533   0.00000  Uiso   1.00
C334   C     0.55091   0.92753   0.65188   0.00000  Uiso   1.00
C335   C     0.56632   0.08964   0.62614   0.00000  Uiso   1.00
C336   C     0.54138   0.60828   0.60810   0.00000  Uiso   1.00
C337   C     0.63142   0.55510   0.65605   0.00000  Uiso   1.00
C338   C     0.71365   0.49544   0.66271   0.00000  Uiso   1.00
C339   C     0.78823   0.45347   0.70939   0.00000  Uiso   1.00
C340   C     0.43750   0.56593   0.59673   0.00000  Uiso   1.00
C341   C     0.35667   0.51539   0.55352   0.00000  Uiso   1.00
C342   C     0.26800   0.48254   0.55025   0.00000  Uiso   1.00
C343   C     0.54577   0.72541   0.62021   0.00000  Uiso   1.00
C344   C     0.55595   0.80895   0.59673   0.00000  Uiso   1.00
C345   C     0.55839   0.91037   0.61322   0.00000  Uiso   1.00
H346   H     0.52180   0.65315   0.70919   0.00000  Uiso   1.00
H347   H     0.69261   0.54360   0.77117   0.00000  Uiso   1.00
H348   H     0.33569   0.56356   0.66199   0.00000  Uiso   1.00
H349   H     0.53493   0.85707   0.70519   0.00000  Uiso   1.00
H350   H     0.88526   0.41456   0.82286   0.00000  Uiso   1.00
H351   H     0.13265   0.45667   0.59264   0.00000  Uiso   1.00
H352   H     0.55279   0.07561   0.68374   0.00000  Uiso   1.00
H353   H     0.54719   0.59494   0.57806   0.00000  Uiso   1.00
H354   H     0.71941   0.48220   0.63284   0.00000  Uiso   1.00
H355   H     0.36248   0.50215   0.52366   0.00000  Uiso   1.00
H356   H     0.56173   0.79567   0.56687   0.00000  Uiso   1.00
H357   H     0.90701   0.36472   0.71059   0.00000  Uiso   1.00
H358   H     0.15440   0.40683   0.48036   0.00000  Uiso   1.00
H359   H     0.57454   0.02577   0.57147   0.00000  Uiso   1.00
O360   O     0.00895   0.31649   0.80512   0.00000  Uiso   1.00
O361   O     0.02155   0.37176   0.50308   0.00000  Uiso   1.00
O362   O     0.57277   0.18379   0.62261   0.00000  Uiso   1.00
N363   N     0.86676   0.41832   0.78892   0.00000  Uiso   1.00
N364   N     0.16312   0.45768   0.57368   0.00000  Uiso   1.00
N365   N     0.55589   0.03633   0.65885   0.00000  Uiso   1.00
N366   N     0.87846   0.39150   0.72851   0.00000  Uiso   1.00
N367   N     0.17483   0.43086   0.51327   0.00000  Uiso   1.00
N368   N     0.56759   0.00951   0.59844   0.00000  Uiso   1.00
