data_job_04012
_audit_creation_date              2018-12-19
_audit_creation_method            'Materials Studio'
_symmetry_space_group_name_H-M    'P1'
_symmetry_Int_Tables_number       1
_symmetry_cell_setting            triclinic
loop_
_symmetry_equiv_pos_as_xyz
  x,y,z
_cell_length_a                    21.1937
_cell_length_b                    21.1937
_cell_length_c                    12.2424
_cell_angle_alpha                 90.0000
_cell_angle_beta                  90.0000
_cell_angle_gamma                 90.0000
loop_
_atom_site_label
_atom_site_type_symbol
_atom_site_fract_x
_atom_site_fract_y
_atom_site_fract_z
_atom_site_U_iso_or_equiv
_atom_site_adp_type
_atom_site_occupancy
C1     C     0.55120   0.71087   0.13679   0.00000  Uiso   1.00
C2     C     0.48953   0.69796   0.19694   0.00000  Uiso   1.00
C3     C     0.46066   0.63952   0.20773   0.00000  Uiso   1.00
C4     C     0.40443   0.63757   0.26580   0.00000  Uiso   1.00
C5     C     0.31266   0.60923   0.35221   0.00000  Uiso   1.00
C6     C     0.53610   0.76104   0.05141   0.00000  Uiso   1.00
C7     C     0.54640   0.75563   0.93984   0.00000  Uiso   1.00
C8     C     0.52937   0.80679   0.87542   0.00000  Uiso   1.00
C9     C     0.50995   0.87639   0.73590   0.00000  Uiso   1.00
C10    C     0.59472   0.74246   0.21955   0.00000  Uiso   1.00
C11    C     0.65430   0.72145   0.24934   0.00000  Uiso   1.00
C12    C     0.68663   0.75698   0.32645   0.00000  Uiso   1.00
C13    C     0.75822   0.79775   0.44800   0.00000  Uiso   1.00
C14    C     0.50267   0.81133   0.22074   0.00000  Uiso   1.00
C15    C     0.46317   0.75253   0.24253   0.00000  Uiso   1.00
C16    C     0.40697   0.75067   0.30061   0.00000  Uiso   1.00
C17    C     0.37802   0.69223   0.31149   0.00000  Uiso   1.00
C18    C     0.50974   0.81560   0.09700   0.00000  Uiso   1.00
C19    C     0.49271   0.86678   0.03273   0.00000  Uiso   1.00
C20    C     0.50297   0.86145   0.92110   0.00000  Uiso   1.00
C21    C     0.56836   0.79703   0.26515   0.00000  Uiso   1.00
C22    C     0.60061   0.83260   0.34223   0.00000  Uiso   1.00
C23    C     0.66023   0.81165   0.37213   0.00000  Uiso   1.00
H24    H     0.57172   0.66839   0.10128   0.00000  Uiso   1.00
H25    H     0.48107   0.59730   0.17242   0.00000  Uiso   1.00
H26    H     0.56680   0.71340   0.90458   0.00000  Uiso   1.00
H27    H     0.67468   0.67923   0.21403   0.00000  Uiso   1.00
H28    H     0.36893   0.54255   0.27136   0.00000  Uiso   1.00
H29    H     0.54971   0.78736   0.70662   0.00000  Uiso   1.00
H30    H     0.77721   0.71530   0.35915   0.00000  Uiso   1.00
H31    H     0.48215   0.85382   0.25624   0.00000  Uiso   1.00
H32    H     0.38658   0.79290   0.33589   0.00000  Uiso   1.00
H33    H     0.47231   0.90900   0.06805   0.00000  Uiso   1.00
H34    H     0.58019   0.87483   0.37750   0.00000  Uiso   1.00
H35    H     0.29224   0.70131   0.40403   0.00000  Uiso   1.00
H36    H     0.47302   0.94612   0.83929   0.00000  Uiso   1.00
H37    H     0.70052   0.87406   0.49182   0.00000  Uiso   1.00
O38    O     0.26932   0.57852   0.38726   0.00000  Uiso   1.00
O39    O     0.50651   0.89970   0.64635   0.00000  Uiso   1.00
O40    O     0.80498   0.80516   0.50245   0.00000  Uiso   1.00
N41    N     0.36400   0.58827   0.29167   0.00000  Uiso   1.00
N42    N     0.53302   0.81715   0.76367   0.00000  Uiso   1.00
N43    N     0.74571   0.74979   0.37371   0.00000  Uiso   1.00
N44    N     0.32274   0.67370   0.36306   0.00000  Uiso   1.00
N45    N     0.49175   0.90258   0.83506   0.00000  Uiso   1.00
N46    N     0.70444   0.83522   0.44510   0.00000  Uiso   1.00
C47    C     0.05120   0.21087   0.63679   0.00000  Uiso   1.00
C48    C     0.98953   0.19796   0.69694   0.00000  Uiso   1.00
C49    C     0.96066   0.13952   0.70773   0.00000  Uiso   1.00
C50    C     0.90443   0.13757   0.76580   0.00000  Uiso   1.00
C51    C     0.81266   0.10923   0.85221   0.00000  Uiso   1.00
C52    C     0.03610   0.26104   0.55141   0.00000  Uiso   1.00
C53    C     0.04640   0.25563   0.43984   0.00000  Uiso   1.00
C54    C     0.02937   0.30679   0.37542   0.00000  Uiso   1.00
C55    C     0.00995   0.37639   0.23590   0.00000  Uiso   1.00
C56    C     0.09472   0.24246   0.71955   0.00000  Uiso   1.00
C57    C     0.15430   0.22145   0.74934   0.00000  Uiso   1.00
C58    C     0.18663   0.25698   0.82645   0.00000  Uiso   1.00
C59    C     0.25822   0.29775   0.94800   0.00000  Uiso   1.00
C60    C     0.00267   0.31133   0.72074   0.00000  Uiso   1.00
C61    C     0.96317   0.25253   0.74253   0.00000  Uiso   1.00
C62    C     0.90697   0.25067   0.80061   0.00000  Uiso   1.00
C63    C     0.87802   0.19223   0.81149   0.00000  Uiso   1.00
C64    C     0.00974   0.31560   0.59700   0.00000  Uiso   1.00
C65    C     0.99271   0.36678   0.53273   0.00000  Uiso   1.00
C66    C     0.00297   0.36145   0.42110   0.00000  Uiso   1.00
C67    C     0.06836   0.29703   0.76515   0.00000  Uiso   1.00
C68    C     0.10061   0.33260   0.84223   0.00000  Uiso   1.00
C69    C     0.16023   0.31165   0.87213   0.00000  Uiso   1.00
H70    H     0.07172   0.16839   0.60128   0.00000  Uiso   1.00
H71    H     0.98107   0.09730   0.67242   0.00000  Uiso   1.00
H72    H     0.06680   0.21340   0.40458   0.00000  Uiso   1.00
H73    H     0.17468   0.17923   0.71403   0.00000  Uiso   1.00
H74    H     0.86893   0.04255   0.77136   0.00000  Uiso   1.00
H75    H     0.04971   0.28736   0.20662   0.00000  Uiso   1.00
H76    H     0.27721   0.21530   0.85915   0.00000  Uiso   1.00
H77    H     0.98215   0.35382   0.75624   0.00000  Uiso   1.00
H78    H     0.88658   0.29290   0.83589   0.00000  Uiso   1.00
H79    H     0.97231   0.40900   0.56805   0.00000  Uiso   1.00
H80    H     0.08019   0.37483   0.87750   0.00000  Uiso   1.00
H81    H     0.79224   0.20131   0.90403   0.00000  Uiso   1.00
H82    H     0.97302   0.44612   0.33929   0.00000  Uiso   1.00
H83    H     0.20052   0.37406   0.99182   0.00000  Uiso   1.00
O84    O     0.76932   0.07852   0.88726   0.00000  Uiso   1.00
O85    O     0.00651   0.39970   0.14635   0.00000  Uiso   1.00
O86    O     0.30498   0.30516   0.00245   0.00000  Uiso   1.00
N87    N     0.86400   0.08827   0.79167   0.00000  Uiso   1.00
N88    N     0.03302   0.31715   0.26367   0.00000  Uiso   1.00
N89    N     0.24571   0.24979   0.87371   0.00000  Uiso   1.00
N90    N     0.82274   0.17370   0.86306   0.00000  Uiso   1.00
N91    N     0.99175   0.40258   0.33506   0.00000  Uiso   1.00
N92    N     0.20444   0.33522   0.94510   0.00000  Uiso   1.00
C93    C     0.44880   0.28913   0.13679   0.00000  Uiso   1.00
C94    C     0.51047   0.30204   0.19694   0.00000  Uiso   1.00
C95    C     0.53934   0.36048   0.20773   0.00000  Uiso   1.00
C96    C     0.59557   0.36243   0.26580   0.00000  Uiso   1.00
C97    C     0.68734   0.39077   0.35221   0.00000  Uiso   1.00
C98    C     0.46390   0.23896   0.05141   0.00000  Uiso   1.00
C99    C     0.45360   0.24437   0.93984   0.00000  Uiso   1.00
C100   C     0.47063   0.19321   0.87542   0.00000  Uiso   1.00
C101   C     0.49005   0.12361   0.73590   0.00000  Uiso   1.00
C102   C     0.40528   0.25754   0.21955   0.00000  Uiso   1.00
C103   C     0.34570   0.27855   0.24934   0.00000  Uiso   1.00
C104   C     0.31337   0.24302   0.32645   0.00000  Uiso   1.00
C105   C     0.24178   0.20225   0.44800   0.00000  Uiso   1.00
C106   C     0.49733   0.18867   0.22074   0.00000  Uiso   1.00
C107   C     0.53683   0.24747   0.24253   0.00000  Uiso   1.00
C108   C     0.59303   0.24933   0.30061   0.00000  Uiso   1.00
C109   C     0.62198   0.30777   0.31149   0.00000  Uiso   1.00
C110   C     0.49026   0.18440   0.09700   0.00000  Uiso   1.00
C111   C     0.50729   0.13322   0.03273   0.00000  Uiso   1.00
C112   C     0.49703   0.13855   0.92110   0.00000  Uiso   1.00
C113   C     0.43164   0.20297   0.26515   0.00000  Uiso   1.00
C114   C     0.39939   0.16740   0.34223   0.00000  Uiso   1.00
C115   C     0.33977   0.18835   0.37213   0.00000  Uiso   1.00
H116   H     0.42828   0.33161   0.10128   0.00000  Uiso   1.00
H117   H     0.51893   0.40270   0.17242   0.00000  Uiso   1.00
H118   H     0.43320   0.28660   0.90458   0.00000  Uiso   1.00
H119   H     0.32532   0.32077   0.21403   0.00000  Uiso   1.00
H120   H     0.63107   0.45745   0.27136   0.00000  Uiso   1.00
H121   H     0.45029   0.21264   0.70662   0.00000  Uiso   1.00
H122   H     0.22279   0.28470   0.35915   0.00000  Uiso   1.00
H123   H     0.51785   0.14618   0.25624   0.00000  Uiso   1.00
H124   H     0.61342   0.20710   0.33589   0.00000  Uiso   1.00
H125   H     0.52769   0.09100   0.06805   0.00000  Uiso   1.00
H126   H     0.41981   0.12517   0.37750   0.00000  Uiso   1.00
H127   H     0.70776   0.29869   0.40403   0.00000  Uiso   1.00
H128   H     0.52698   0.05388   0.83929   0.00000  Uiso   1.00
H129   H     0.29948   0.12594   0.49182   0.00000  Uiso   1.00
O130   O     0.73068   0.42148   0.38726   0.00000  Uiso   1.00
O131   O     0.49349   0.10030   0.64635   0.00000  Uiso   1.00
O132   O     0.19502   0.19484   0.50245   0.00000  Uiso   1.00
N133   N     0.63600   0.41173   0.29167   0.00000  Uiso   1.00
N134   N     0.46698   0.18285   0.76367   0.00000  Uiso   1.00
N135   N     0.25429   0.25021   0.37371   0.00000  Uiso   1.00
N136   N     0.67726   0.32630   0.36306   0.00000  Uiso   1.00
N137   N     0.50825   0.09742   0.83506   0.00000  Uiso   1.00
N138   N     0.29556   0.16478   0.44510   0.00000  Uiso   1.00
C139   C     0.94880   0.78913   0.63679   0.00000  Uiso   1.00
C140   C     0.01047   0.80204   0.69694   0.00000  Uiso   1.00
C141   C     0.03934   0.86048   0.70773   0.00000  Uiso   1.00
C142   C     0.09557   0.86243   0.76580   0.00000  Uiso   1.00
C143   C     0.18734   0.89077   0.85221   0.00000  Uiso   1.00
C144   C     0.96390   0.73896   0.55141   0.00000  Uiso   1.00
C145   C     0.95360   0.74437   0.43984   0.00000  Uiso   1.00
C146   C     0.97063   0.69321   0.37542   0.00000  Uiso   1.00
C147   C     0.99005   0.62361   0.23590   0.00000  Uiso   1.00
C148   C     0.90528   0.75754   0.71955   0.00000  Uiso   1.00
C149   C     0.84570   0.77855   0.74934   0.00000  Uiso   1.00
C150   C     0.81337   0.74302   0.82645   0.00000  Uiso   1.00
C151   C     0.74178   0.70225   0.94800   0.00000  Uiso   1.00
C152   C     0.99733   0.68867   0.72074   0.00000  Uiso   1.00
C153   C     0.03683   0.74747   0.74253   0.00000  Uiso   1.00
C154   C     0.09303   0.74933   0.80061   0.00000  Uiso   1.00
C155   C     0.12198   0.80777   0.81149   0.00000  Uiso   1.00
C156   C     0.99026   0.68440   0.59700   0.00000  Uiso   1.00
C157   C     0.00729   0.63322   0.53273   0.00000  Uiso   1.00
C158   C     0.99703   0.63855   0.42110   0.00000  Uiso   1.00
C159   C     0.93164   0.70297   0.76515   0.00000  Uiso   1.00
C160   C     0.89939   0.66740   0.84223   0.00000  Uiso   1.00
C161   C     0.83977   0.68835   0.87213   0.00000  Uiso   1.00
H162   H     0.92828   0.83161   0.60128   0.00000  Uiso   1.00
H163   H     0.01893   0.90270   0.67242   0.00000  Uiso   1.00
H164   H     0.93320   0.78660   0.40458   0.00000  Uiso   1.00
H165   H     0.82532   0.82077   0.71403   0.00000  Uiso   1.00
H166   H     0.13107   0.95745   0.77136   0.00000  Uiso   1.00
H167   H     0.95029   0.71264   0.20662   0.00000  Uiso   1.00
H168   H     0.72279   0.78470   0.85915   0.00000  Uiso   1.00
H169   H     0.01785   0.64618   0.75624   0.00000  Uiso   1.00
H170   H     0.11342   0.70710   0.83589   0.00000  Uiso   1.00
H171   H     0.02769   0.59100   0.56805   0.00000  Uiso   1.00
H172   H     0.91981   0.62517   0.87750   0.00000  Uiso   1.00
H173   H     0.20776   0.79869   0.90403   0.00000  Uiso   1.00
H174   H     0.02698   0.55388   0.33929   0.00000  Uiso   1.00
H175   H     0.79948   0.62594   0.99182   0.00000  Uiso   1.00
O176   O     0.23068   0.92148   0.88726   0.00000  Uiso   1.00
O177   O     0.99349   0.60030   0.14635   0.00000  Uiso   1.00
O178   O     0.69502   0.69484   0.00245   0.00000  Uiso   1.00
N179   N     0.13600   0.91173   0.79167   0.00000  Uiso   1.00
N180   N     0.96698   0.68285   0.26367   0.00000  Uiso   1.00
N181   N     0.75429   0.75021   0.87371   0.00000  Uiso   1.00
N182   N     0.17726   0.82630   0.86306   0.00000  Uiso   1.00
N183   N     0.00825   0.59742   0.33506   0.00000  Uiso   1.00
N184   N     0.79556   0.66478   0.94510   0.00000  Uiso   1.00
C185   C     0.71087   0.44880   0.86321   0.00000  Uiso   1.00
C186   C     0.69796   0.51047   0.80306   0.00000  Uiso   1.00
C187   C     0.63952   0.53934   0.79227   0.00000  Uiso   1.00
C188   C     0.63757   0.59557   0.73420   0.00000  Uiso   1.00
C189   C     0.60923   0.68734   0.64779   0.00000  Uiso   1.00
C190   C     0.76104   0.46390   0.94859   0.00000  Uiso   1.00
C191   C     0.75563   0.45360   0.06016   0.00000  Uiso   1.00
C192   C     0.80679   0.47063   0.12458   0.00000  Uiso   1.00
C193   C     0.87639   0.49005   0.26410   0.00000  Uiso   1.00
C194   C     0.74246   0.40528   0.78045   0.00000  Uiso   1.00
C195   C     0.72145   0.34570   0.75066   0.00000  Uiso   1.00
C196   C     0.75698   0.31337   0.67355   0.00000  Uiso   1.00
C197   C     0.79775   0.24178   0.55200   0.00000  Uiso   1.00
C198   C     0.81133   0.49733   0.77926   0.00000  Uiso   1.00
C199   C     0.75253   0.53683   0.75747   0.00000  Uiso   1.00
C200   C     0.75067   0.59303   0.69939   0.00000  Uiso   1.00
C201   C     0.69223   0.62198   0.68851   0.00000  Uiso   1.00
C202   C     0.81560   0.49026   0.90300   0.00000  Uiso   1.00
C203   C     0.86678   0.50729   0.96727   0.00000  Uiso   1.00
C204   C     0.86145   0.49703   0.07890   0.00000  Uiso   1.00
C205   C     0.79703   0.43164   0.73485   0.00000  Uiso   1.00
C206   C     0.83260   0.39939   0.65777   0.00000  Uiso   1.00
C207   C     0.81165   0.33977   0.62787   0.00000  Uiso   1.00
H208   H     0.66839   0.42828   0.89872   0.00000  Uiso   1.00
H209   H     0.59730   0.51893   0.82758   0.00000  Uiso   1.00
H210   H     0.71340   0.43320   0.09542   0.00000  Uiso   1.00
H211   H     0.67923   0.32532   0.78597   0.00000  Uiso   1.00
H212   H     0.54255   0.63107   0.72864   0.00000  Uiso   1.00
H213   H     0.78736   0.45029   0.29338   0.00000  Uiso   1.00
H214   H     0.71530   0.22279   0.64085   0.00000  Uiso   1.00
H215   H     0.85382   0.51785   0.74376   0.00000  Uiso   1.00
H216   H     0.79290   0.61342   0.66411   0.00000  Uiso   1.00
H217   H     0.90900   0.52769   0.93195   0.00000  Uiso   1.00
H218   H     0.87483   0.41981   0.62250   0.00000  Uiso   1.00
H219   H     0.70131   0.70776   0.59597   0.00000  Uiso   1.00
H220   H     0.94612   0.52698   0.16071   0.00000  Uiso   1.00
H221   H     0.87406   0.29948   0.50818   0.00000  Uiso   1.00
O222   O     0.57852   0.73068   0.61274   0.00000  Uiso   1.00
O223   O     0.89970   0.49349   0.35365   0.00000  Uiso   1.00
O224   O     0.80516   0.19502   0.49755   0.00000  Uiso   1.00
N225   N     0.58827   0.63600   0.70833   0.00000  Uiso   1.00
N226   N     0.81715   0.46698   0.23633   0.00000  Uiso   1.00
N227   N     0.74979   0.25429   0.62629   0.00000  Uiso   1.00
N228   N     0.67370   0.67726   0.63694   0.00000  Uiso   1.00
N229   N     0.90258   0.50825   0.16494   0.00000  Uiso   1.00
N230   N     0.83522   0.29556   0.55490   0.00000  Uiso   1.00
C231   C     0.21087   0.94880   0.36321   0.00000  Uiso   1.00
C232   C     0.19796   0.01047   0.30306   0.00000  Uiso   1.00
C233   C     0.13952   0.03934   0.29227   0.00000  Uiso   1.00
C234   C     0.13757   0.09557   0.23420   0.00000  Uiso   1.00
C235   C     0.10923   0.18734   0.14779   0.00000  Uiso   1.00
C236   C     0.26104   0.96390   0.44859   0.00000  Uiso   1.00
C237   C     0.25563   0.95360   0.56016   0.00000  Uiso   1.00
C238   C     0.30679   0.97063   0.62458   0.00000  Uiso   1.00
C239   C     0.37639   0.99005   0.76410   0.00000  Uiso   1.00
C240   C     0.24246   0.90528   0.28045   0.00000  Uiso   1.00
C241   C     0.22145   0.84570   0.25066   0.00000  Uiso   1.00
C242   C     0.25698   0.81337   0.17355   0.00000  Uiso   1.00
C243   C     0.29775   0.74178   0.05200   0.00000  Uiso   1.00
C244   C     0.31133   0.99733   0.27926   0.00000  Uiso   1.00
C245   C     0.25253   0.03683   0.25747   0.00000  Uiso   1.00
C246   C     0.25067   0.09303   0.19939   0.00000  Uiso   1.00
C247   C     0.19223   0.12198   0.18851   0.00000  Uiso   1.00
C248   C     0.31560   0.99026   0.40300   0.00000  Uiso   1.00
C249   C     0.36678   0.00729   0.46727   0.00000  Uiso   1.00
C250   C     0.36145   0.99703   0.57890   0.00000  Uiso   1.00
C251   C     0.29703   0.93164   0.23485   0.00000  Uiso   1.00
C252   C     0.33260   0.89939   0.15777   0.00000  Uiso   1.00
C253   C     0.31165   0.83977   0.12787   0.00000  Uiso   1.00
H254   H     0.16839   0.92828   0.39872   0.00000  Uiso   1.00
H255   H     0.09730   0.01893   0.32758   0.00000  Uiso   1.00
H256   H     0.21340   0.93320   0.59542   0.00000  Uiso   1.00
H257   H     0.17923   0.82532   0.28597   0.00000  Uiso   1.00
H258   H     0.04255   0.13107   0.22864   0.00000  Uiso   1.00
H259   H     0.28736   0.95029   0.79338   0.00000  Uiso   1.00
H260   H     0.21530   0.72279   0.14085   0.00000  Uiso   1.00
H261   H     0.35382   0.01785   0.24376   0.00000  Uiso   1.00
H262   H     0.29290   0.11342   0.16411   0.00000  Uiso   1.00
H263   H     0.40900   0.02769   0.43195   0.00000  Uiso   1.00
H264   H     0.37483   0.91981   0.12250   0.00000  Uiso   1.00
H265   H     0.20131   0.20776   0.09597   0.00000  Uiso   1.00
H266   H     0.44612   0.02698   0.66071   0.00000  Uiso   1.00
H267   H     0.37406   0.79948   0.00818   0.00000  Uiso   1.00
O268   O     0.07852   0.23068   0.11274   0.00000  Uiso   1.00
O269   O     0.39970   0.99349   0.85365   0.00000  Uiso   1.00
O270   O     0.30516   0.69502   0.99755   0.00000  Uiso   1.00
N271   N     0.08827   0.13600   0.20833   0.00000  Uiso   1.00
N272   N     0.31715   0.96698   0.73633   0.00000  Uiso   1.00
N273   N     0.24979   0.75429   0.12629   0.00000  Uiso   1.00
N274   N     0.17370   0.17726   0.13694   0.00000  Uiso   1.00
N275   N     0.40258   0.00825   0.66494   0.00000  Uiso   1.00
N276   N     0.33522   0.79556   0.05490   0.00000  Uiso   1.00
C277   C     0.28913   0.55120   0.86321   0.00000  Uiso   1.00
C278   C     0.30204   0.48953   0.80306   0.00000  Uiso   1.00
C279   C     0.36048   0.46066   0.79227   0.00000  Uiso   1.00
C280   C     0.36243   0.40443   0.73420   0.00000  Uiso   1.00
C281   C     0.39077   0.31266   0.64779   0.00000  Uiso   1.00
C282   C     0.23896   0.53610   0.94859   0.00000  Uiso   1.00
C283   C     0.24437   0.54640   0.06016   0.00000  Uiso   1.00
C284   C     0.19321   0.52937   0.12458   0.00000  Uiso   1.00
C285   C     0.12361   0.50995   0.26410   0.00000  Uiso   1.00
C286   C     0.25754   0.59472   0.78045   0.00000  Uiso   1.00
C287   C     0.27855   0.65430   0.75066   0.00000  Uiso   1.00
C288   C     0.24302   0.68663   0.67355   0.00000  Uiso   1.00
C289   C     0.20225   0.75822   0.55200   0.00000  Uiso   1.00
C290   C     0.18867   0.50267   0.77926   0.00000  Uiso   1.00
C291   C     0.24747   0.46317   0.75747   0.00000  Uiso   1.00
C292   C     0.24933   0.40697   0.69939   0.00000  Uiso   1.00
C293   C     0.30777   0.37802   0.68851   0.00000  Uiso   1.00
C294   C     0.18440   0.50974   0.90300   0.00000  Uiso   1.00
C295   C     0.13322   0.49271   0.96727   0.00000  Uiso   1.00
C296   C     0.13855   0.50297   0.07890   0.00000  Uiso   1.00
C297   C     0.20297   0.56836   0.73485   0.00000  Uiso   1.00
C298   C     0.16740   0.60061   0.65777   0.00000  Uiso   1.00
C299   C     0.18835   0.66023   0.62787   0.00000  Uiso   1.00
H300   H     0.33161   0.57172   0.89872   0.00000  Uiso   1.00
H301   H     0.40270   0.48107   0.82758   0.00000  Uiso   1.00
H302   H     0.28660   0.56680   0.09542   0.00000  Uiso   1.00
H303   H     0.32077   0.67468   0.78597   0.00000  Uiso   1.00
H304   H     0.45745   0.36893   0.72864   0.00000  Uiso   1.00
H305   H     0.21264   0.54971   0.29338   0.00000  Uiso   1.00
H306   H     0.28470   0.77721   0.64085   0.00000  Uiso   1.00
H307   H     0.14618   0.48215   0.74376   0.00000  Uiso   1.00
H308   H     0.20710   0.38658   0.66411   0.00000  Uiso   1.00
H309   H     0.09100   0.47231   0.93195   0.00000  Uiso   1.00
H310   H     0.12517   0.58019   0.62250   0.00000  Uiso   1.00
H311   H     0.29869   0.29224   0.59597   0.00000  Uiso   1.00
H312   H     0.05388   0.47302   0.16071   0.00000  Uiso   1.00
H313   H     0.12594   0.70052   0.50818   0.00000  Uiso   1.00
O314   O     0.42148   0.26932   0.61274   0.00000  Uiso   1.00
O315   O     0.10030   0.50651   0.35365   0.00000  Uiso   1.00
O316   O     0.19484   0.80498   0.49755   0.00000  Uiso   1.00
N317   N     0.41173   0.36400   0.70833   0.00000  Uiso   1.00
N318   N     0.18285   0.53302   0.23633   0.00000  Uiso   1.00
N319   N     0.25021   0.74571   0.62629   0.00000  Uiso   1.00
N320   N     0.32630   0.32274   0.63694   0.00000  Uiso   1.00
N321   N     0.09742   0.49175   0.16494   0.00000  Uiso   1.00
N322   N     0.16478   0.70444   0.55490   0.00000  Uiso   1.00
C323   C     0.78913   0.05120   0.36321   0.00000  Uiso   1.00
C324   C     0.80204   0.98953   0.30306   0.00000  Uiso   1.00
C325   C     0.86048   0.96066   0.29227   0.00000  Uiso   1.00
C326   C     0.86243   0.90443   0.23420   0.00000  Uiso   1.00
C327   C     0.89077   0.81266   0.14779   0.00000  Uiso   1.00
C328   C     0.73896   0.03610   0.44859   0.00000  Uiso   1.00
C329   C     0.74437   0.04640   0.56016   0.00000  Uiso   1.00
C330   C     0.69321   0.02937   0.62458   0.00000  Uiso   1.00
C331   C     0.62361   0.00995   0.76410   0.00000  Uiso   1.00
C332   C     0.75754   0.09472   0.28045   0.00000  Uiso   1.00
C333   C     0.77855   0.15430   0.25066   0.00000  Uiso   1.00
C334   C     0.74302   0.18663   0.17355   0.00000  Uiso   1.00
C335   C     0.70225   0.25822   0.05200   0.00000  Uiso   1.00
C336   C     0.68867   0.00267   0.27926   0.00000  Uiso   1.00
C337   C     0.74747   0.96317   0.25747   0.00000  Uiso   1.00
C338   C     0.74933   0.90697   0.19939   0.00000  Uiso   1.00
C339   C     0.80777   0.87802   0.18851   0.00000  Uiso   1.00
C340   C     0.68440   0.00974   0.40300   0.00000  Uiso   1.00
C341   C     0.63322   0.99271   0.46727   0.00000  Uiso   1.00
C342   C     0.63855   0.00297   0.57890   0.00000  Uiso   1.00
C343   C     0.70297   0.06836   0.23485   0.00000  Uiso   1.00
C344   C     0.66740   0.10061   0.15777   0.00000  Uiso   1.00
C345   C     0.68835   0.16023   0.12787   0.00000  Uiso   1.00
H346   H     0.83161   0.07172   0.39872   0.00000  Uiso   1.00
H347   H     0.90270   0.98107   0.32758   0.00000  Uiso   1.00
H348   H     0.78660   0.06680   0.59542   0.00000  Uiso   1.00
H349   H     0.82077   0.17468   0.28597   0.00000  Uiso   1.00
H350   H     0.95745   0.86893   0.22864   0.00000  Uiso   1.00
H351   H     0.71264   0.04971   0.79338   0.00000  Uiso   1.00
H352   H     0.78470   0.27721   0.14085   0.00000  Uiso   1.00
H353   H     0.64618   0.98215   0.24376   0.00000  Uiso   1.00
H354   H     0.70710   0.88658   0.16411   0.00000  Uiso   1.00
H355   H     0.59100   0.97231   0.43195   0.00000  Uiso   1.00
H356   H     0.62517   0.08019   0.12250   0.00000  Uiso   1.00
H357   H     0.79869   0.79224   0.09597   0.00000  Uiso   1.00
H358   H     0.55388   0.97302   0.66071   0.00000  Uiso   1.00
H359   H     0.62594   0.20052   0.00818   0.00000  Uiso   1.00
O360   O     0.92148   0.76932   0.11274   0.00000  Uiso   1.00
O361   O     0.60030   0.00651   0.85365   0.00000  Uiso   1.00
O362   O     0.69484   0.30498   0.99755   0.00000  Uiso   1.00
N363   N     0.91173   0.86400   0.20833   0.00000  Uiso   1.00
N364   N     0.68285   0.03302   0.73633   0.00000  Uiso   1.00
N365   N     0.75021   0.24571   0.12629   0.00000  Uiso   1.00
N366   N     0.82630   0.82274   0.13694   0.00000  Uiso   1.00
N367   N     0.59742   0.99175   0.66494   0.00000  Uiso   1.00
N368   N     0.66478   0.20444   0.05490   0.00000  Uiso   1.00
