data_job_04201
_audit_creation_date              2018-12-19
_audit_creation_method            'Materials Studio'
_symmetry_space_group_name_H-M    'P1'
_symmetry_Int_Tables_number       1
_symmetry_cell_setting            triclinic
loop_
_symmetry_equiv_pos_as_xyz
  x,y,z
_cell_length_a                    23.7422
_cell_length_b                    9.7407
_cell_length_c                    15.7938
_cell_angle_alpha                 90.0000
_cell_angle_beta                  62.5319
_cell_angle_gamma                 90.0000
loop_
_atom_site_label
_atom_site_type_symbol
_atom_site_fract_x
_atom_site_fract_y
_atom_site_fract_z
_atom_site_U_iso_or_equiv
_atom_site_adp_type
_atom_site_occupancy
C1     C     0.34258   0.87484   0.25195   0.00000  Uiso   1.00
C2     C     0.33109   0.75422   0.20030   0.00000  Uiso   1.00
C3     C     0.28941   0.75321   0.16116   0.00000  Uiso   1.00
C4     C     0.28573   0.63284   0.11689   0.00000  Uiso   1.00
C5     C     0.26229   0.46305   0.03747   0.00000  Uiso   1.00
C6     C     0.32928   0.82127   0.35014   0.00000  Uiso   1.00
C7     C     0.28609   0.87664   0.43698   0.00000  Uiso   1.00
C8     C     0.28090   0.81271   0.51885   0.00000  Uiso   1.00
C9     C     0.25468   0.74707   0.67207   0.00000  Uiso   1.00
C10    C     0.41367   0.90375   0.19924   0.00000  Uiso   1.00
C11    C     0.44144   0.02849   0.15922   0.00000  Uiso   1.00
C12    C     0.50730   0.03402   0.11405   0.00000  Uiso   1.00
C13    C     0.61211   0.09645   0.03297   0.00000  Uiso   1.00
C14    C     0.41017   0.66286   0.24293   0.00000  Uiso   1.00
C15    C     0.36780   0.63909   0.19541   0.00000  Uiso   1.00
C16    C     0.36419   0.51869   0.15118   0.00000  Uiso   1.00
C17    C     0.32251   0.51750   0.11197   0.00000  Uiso   1.00
C18    C     0.36599   0.70613   0.34525   0.00000  Uiso   1.00
C19    C     0.36087   0.64212   0.42701   0.00000  Uiso   1.00
C20    C     0.31768   0.69737   0.51395   0.00000  Uiso   1.00
C21    C     0.45039   0.78862   0.19434   0.00000  Uiso   1.00
C22    C     0.51622   0.79396   0.14923   0.00000  Uiso   1.00
C23    C     0.54408   0.91867   0.10915   0.00000  Uiso   1.00
H24    H     0.31400   0.96447   0.25577   0.00000  Uiso   1.00
H25    H     0.26100   0.84233   0.16497   0.00000  Uiso   1.00
H26    H     0.25769   0.96575   0.44075   0.00000  Uiso   1.00
H27    H     0.41302   0.11756   0.16302   0.00000  Uiso   1.00
H28    H     0.21843   0.65612   0.06217   0.00000  Uiso   1.00
H29    H     0.21146   0.91638   0.64367   0.00000  Uiso   1.00
H30    H     0.53899   0.23652   0.05803   0.00000  Uiso   1.00
H31    H     0.43875   0.57322   0.23912   0.00000  Uiso   1.00
H32    H     0.39260   0.42960   0.14740   0.00000  Uiso   1.00
H33    H     0.38929   0.55302   0.42319   0.00000  Uiso   1.00
H34    H     0.54461   0.70484   0.14546   0.00000  Uiso   1.00
H35    H     0.32523   0.32113   0.04792   0.00000  Uiso   1.00
H36    H     0.31826   0.58140   0.62942   0.00000  Uiso   1.00
H37    H     0.64579   0.90154   0.04377   0.00000  Uiso   1.00
O38    O     0.23920   0.40120   0.99504   0.00000  Uiso   1.00
O39    O     0.23007   0.74267   0.75794   0.00000  Uiso   1.00
O40    O     0.65978   0.16268   0.98959   0.00000  Uiso   1.00
N41    N     0.24990   0.59700   0.07138   0.00000  Uiso   1.00
N42    N     0.24338   0.84031   0.61505   0.00000  Uiso   1.00
N43    N     0.54960   0.13963   0.06755   0.00000  Uiso   1.00
N44    N     0.30738   0.41675   0.06371   0.00000  Uiso   1.00
N45    N     0.30085   0.66006   0.60738   0.00000  Uiso   1.00
N46    N     0.60707   0.95938   0.05988   0.00000  Uiso   1.00
C47    C     0.84258   0.37484   0.25195   0.00000  Uiso   1.00
C48    C     0.83109   0.25422   0.20030   0.00000  Uiso   1.00
C49    C     0.78941   0.25321   0.16116   0.00000  Uiso   1.00
C50    C     0.78573   0.13284   0.11689   0.00000  Uiso   1.00
C51    C     0.76229   0.96305   0.03747   0.00000  Uiso   1.00
C52    C     0.82928   0.32127   0.35014   0.00000  Uiso   1.00
C53    C     0.78609   0.37664   0.43698   0.00000  Uiso   1.00
C54    C     0.78090   0.31271   0.51885   0.00000  Uiso   1.00
C55    C     0.75468   0.24707   0.67207   0.00000  Uiso   1.00
C56    C     0.91367   0.40375   0.19924   0.00000  Uiso   1.00
C57    C     0.94144   0.52849   0.15922   0.00000  Uiso   1.00
C58    C     0.00730   0.53402   0.11405   0.00000  Uiso   1.00
C59    C     0.11211   0.59645   0.03297   0.00000  Uiso   1.00
C60    C     0.91017   0.16286   0.24293   0.00000  Uiso   1.00
C61    C     0.86780   0.13909   0.19541   0.00000  Uiso   1.00
C62    C     0.86419   0.01869   0.15118   0.00000  Uiso   1.00
C63    C     0.82251   0.01750   0.11197   0.00000  Uiso   1.00
C64    C     0.86599   0.20613   0.34525   0.00000  Uiso   1.00
C65    C     0.86087   0.14212   0.42701   0.00000  Uiso   1.00
C66    C     0.81768   0.19737   0.51395   0.00000  Uiso   1.00
C67    C     0.95039   0.28862   0.19434   0.00000  Uiso   1.00
C68    C     0.01622   0.29396   0.14923   0.00000  Uiso   1.00
C69    C     0.04408   0.41867   0.10915   0.00000  Uiso   1.00
H70    H     0.81400   0.46447   0.25577   0.00000  Uiso   1.00
H71    H     0.76100   0.34233   0.16497   0.00000  Uiso   1.00
H72    H     0.75769   0.46575   0.44075   0.00000  Uiso   1.00
H73    H     0.91302   0.61756   0.16302   0.00000  Uiso   1.00
H74    H     0.71843   0.15612   0.06217   0.00000  Uiso   1.00
H75    H     0.71146   0.41638   0.64367   0.00000  Uiso   1.00
H76    H     0.03899   0.73652   0.05803   0.00000  Uiso   1.00
H77    H     0.93875   0.07322   0.23912   0.00000  Uiso   1.00
H78    H     0.89260   0.92960   0.14740   0.00000  Uiso   1.00
H79    H     0.88929   0.05302   0.42319   0.00000  Uiso   1.00
H80    H     0.04461   0.20484   0.14546   0.00000  Uiso   1.00
H81    H     0.82523   0.82113   0.04792   0.00000  Uiso   1.00
H82    H     0.81826   0.08140   0.62942   0.00000  Uiso   1.00
H83    H     0.14579   0.40154   0.04377   0.00000  Uiso   1.00
O84    O     0.73920   0.90120   0.99504   0.00000  Uiso   1.00
O85    O     0.73007   0.24267   0.75794   0.00000  Uiso   1.00
O86    O     0.15978   0.66268   0.98959   0.00000  Uiso   1.00
N87    N     0.74990   0.09700   0.07138   0.00000  Uiso   1.00
N88    N     0.74338   0.34031   0.61505   0.00000  Uiso   1.00
N89    N     0.04960   0.63963   0.06755   0.00000  Uiso   1.00
N90    N     0.80738   0.91675   0.06371   0.00000  Uiso   1.00
N91    N     0.80085   0.16006   0.60738   0.00000  Uiso   1.00
N92    N     0.10707   0.45938   0.05988   0.00000  Uiso   1.00
C93    C     0.65742   0.87484   0.74805   0.00000  Uiso   1.00
C94    C     0.66891   0.75422   0.79970   0.00000  Uiso   1.00
C95    C     0.71059   0.75321   0.83884   0.00000  Uiso   1.00
C96    C     0.71427   0.63284   0.88311   0.00000  Uiso   1.00
C97    C     0.73771   0.46305   0.96253   0.00000  Uiso   1.00
C98    C     0.67072   0.82127   0.64986   0.00000  Uiso   1.00
C99    C     0.71391   0.87664   0.56302   0.00000  Uiso   1.00
C100   C     0.71910   0.81271   0.48115   0.00000  Uiso   1.00
C101   C     0.74532   0.74707   0.32793   0.00000  Uiso   1.00
C102   C     0.58633   0.90375   0.80076   0.00000  Uiso   1.00
C103   C     0.55856   0.02849   0.84078   0.00000  Uiso   1.00
C104   C     0.49270   0.03402   0.88595   0.00000  Uiso   1.00
C105   C     0.38789   0.09645   0.96703   0.00000  Uiso   1.00
C106   C     0.58983   0.66286   0.75707   0.00000  Uiso   1.00
C107   C     0.63220   0.63909   0.80459   0.00000  Uiso   1.00
C108   C     0.63581   0.51869   0.84882   0.00000  Uiso   1.00
C109   C     0.67749   0.51750   0.88803   0.00000  Uiso   1.00
C110   C     0.63401   0.70613   0.65475   0.00000  Uiso   1.00
C111   C     0.63913   0.64212   0.57299   0.00000  Uiso   1.00
C112   C     0.68232   0.69737   0.48605   0.00000  Uiso   1.00
C113   C     0.54961   0.78862   0.80566   0.00000  Uiso   1.00
C114   C     0.48378   0.79396   0.85077   0.00000  Uiso   1.00
C115   C     0.45592   0.91867   0.89085   0.00000  Uiso   1.00
H116   H     0.68600   0.96447   0.74423   0.00000  Uiso   1.00
H117   H     0.73900   0.84233   0.83503   0.00000  Uiso   1.00
H118   H     0.74231   0.96575   0.55925   0.00000  Uiso   1.00
H119   H     0.58698   0.11756   0.83698   0.00000  Uiso   1.00
H120   H     0.78157   0.65612   0.93783   0.00000  Uiso   1.00
H121   H     0.78854   0.91638   0.35633   0.00000  Uiso   1.00
H122   H     0.46101   0.23652   0.94197   0.00000  Uiso   1.00
H123   H     0.56125   0.57322   0.76088   0.00000  Uiso   1.00
H124   H     0.60740   0.42960   0.85260   0.00000  Uiso   1.00
H125   H     0.61071   0.55302   0.57681   0.00000  Uiso   1.00
H126   H     0.45539   0.70484   0.85454   0.00000  Uiso   1.00
H127   H     0.67477   0.32113   0.95208   0.00000  Uiso   1.00
H128   H     0.68174   0.58140   0.37058   0.00000  Uiso   1.00
H129   H     0.35421   0.90154   0.95623   0.00000  Uiso   1.00
O130   O     0.76080   0.40120   0.00496   0.00000  Uiso   1.00
O131   O     0.76993   0.74267   0.24206   0.00000  Uiso   1.00
O132   O     0.34022   0.16268   0.01041   0.00000  Uiso   1.00
N133   N     0.75010   0.59700   0.92862   0.00000  Uiso   1.00
N134   N     0.75662   0.84031   0.38495   0.00000  Uiso   1.00
N135   N     0.45040   0.13963   0.93245   0.00000  Uiso   1.00
N136   N     0.69262   0.41675   0.93629   0.00000  Uiso   1.00
N137   N     0.69915   0.66006   0.39262   0.00000  Uiso   1.00
N138   N     0.39293   0.95938   0.94012   0.00000  Uiso   1.00
C139   C     0.15742   0.37484   0.74805   0.00000  Uiso   1.00
C140   C     0.16891   0.25422   0.79970   0.00000  Uiso   1.00
C141   C     0.21059   0.25321   0.83884   0.00000  Uiso   1.00
C142   C     0.21427   0.13284   0.88311   0.00000  Uiso   1.00
C143   C     0.23771   0.96305   0.96253   0.00000  Uiso   1.00
C144   C     0.17072   0.32127   0.64986   0.00000  Uiso   1.00
C145   C     0.21391   0.37664   0.56302   0.00000  Uiso   1.00
C146   C     0.21910   0.31271   0.48115   0.00000  Uiso   1.00
C147   C     0.24532   0.24707   0.32793   0.00000  Uiso   1.00
C148   C     0.08633   0.40375   0.80076   0.00000  Uiso   1.00
C149   C     0.05856   0.52849   0.84078   0.00000  Uiso   1.00
C150   C     0.99270   0.53402   0.88595   0.00000  Uiso   1.00
C151   C     0.88789   0.59645   0.96703   0.00000  Uiso   1.00
C152   C     0.08983   0.16286   0.75707   0.00000  Uiso   1.00
C153   C     0.13220   0.13909   0.80459   0.00000  Uiso   1.00
C154   C     0.13581   0.01869   0.84882   0.00000  Uiso   1.00
C155   C     0.17749   0.01750   0.88803   0.00000  Uiso   1.00
C156   C     0.13401   0.20613   0.65475   0.00000  Uiso   1.00
C157   C     0.13913   0.14212   0.57299   0.00000  Uiso   1.00
C158   C     0.18232   0.19737   0.48605   0.00000  Uiso   1.00
C159   C     0.04961   0.28862   0.80566   0.00000  Uiso   1.00
C160   C     0.98378   0.29396   0.85077   0.00000  Uiso   1.00
C161   C     0.95592   0.41867   0.89085   0.00000  Uiso   1.00
H162   H     0.18600   0.46447   0.74423   0.00000  Uiso   1.00
H163   H     0.23900   0.34233   0.83503   0.00000  Uiso   1.00
H164   H     0.24231   0.46575   0.55925   0.00000  Uiso   1.00
H165   H     0.08698   0.61756   0.83698   0.00000  Uiso   1.00
H166   H     0.28157   0.15612   0.93783   0.00000  Uiso   1.00
H167   H     0.28854   0.41638   0.35633   0.00000  Uiso   1.00
H168   H     0.96101   0.73652   0.94197   0.00000  Uiso   1.00
H169   H     0.06125   0.07322   0.76088   0.00000  Uiso   1.00
H170   H     0.10740   0.92960   0.85260   0.00000  Uiso   1.00
H171   H     0.11071   0.05302   0.57681   0.00000  Uiso   1.00
H172   H     0.95539   0.20484   0.85454   0.00000  Uiso   1.00
H173   H     0.17477   0.82113   0.95208   0.00000  Uiso   1.00
H174   H     0.18174   0.08140   0.37058   0.00000  Uiso   1.00
H175   H     0.85421   0.40154   0.95623   0.00000  Uiso   1.00
O176   O     0.26080   0.90120   0.00496   0.00000  Uiso   1.00
O177   O     0.26993   0.24267   0.24206   0.00000  Uiso   1.00
O178   O     0.84022   0.66268   0.01041   0.00000  Uiso   1.00
N179   N     0.25010   0.09700   0.92862   0.00000  Uiso   1.00
N180   N     0.25662   0.34031   0.38495   0.00000  Uiso   1.00
N181   N     0.95040   0.63963   0.93245   0.00000  Uiso   1.00
N182   N     0.19262   0.91675   0.93629   0.00000  Uiso   1.00
N183   N     0.19915   0.16006   0.39262   0.00000  Uiso   1.00
N184   N     0.89293   0.45938   0.94012   0.00000  Uiso   1.00
