data_job_06436
_audit_creation_date              2018-12-19
_audit_creation_method            'Materials Studio'
_symmetry_space_group_name_H-M    'P1'
_symmetry_Int_Tables_number       1
_symmetry_cell_setting            triclinic
loop_
_symmetry_equiv_pos_as_xyz
  x,y,z
_cell_length_a                    16.3515
_cell_length_b                    16.0060
_cell_length_c                    15.8138
_cell_angle_alpha                 88.5888
_cell_angle_beta                  88.3912
_cell_angle_gamma                 88.5398
loop_
_atom_site_label
_atom_site_type_symbol
_atom_site_fract_x
_atom_site_fract_y
_atom_site_fract_z
_atom_site_U_iso_or_equiv
_atom_site_adp_type
_atom_site_occupancy
C1     C     0.37411   0.83789   0.74027   0.00000  Uiso   1.00
C2     C     0.39921   0.80906   0.82864   0.00000  Uiso   1.00
C3     C     0.45813   0.74785   0.84701   0.00000  Uiso   1.00
C4     C     0.47217   0.73050   0.93190   0.00000  Uiso   1.00
C5     C     0.51772   0.67926   0.05937   0.00000  Uiso   1.00
C6     C     0.28199   0.82606   0.73749   0.00000  Uiso   1.00
C7     C     0.24234   0.77915   0.67920   0.00000  Uiso   1.00
C8     C     0.15770   0.77612   0.68735   0.00000  Uiso   1.00
C9     C     0.02125   0.75132   0.67326   0.00000  Uiso   1.00
C10    C     0.38641   0.93203   0.73561   0.00000  Uiso   1.00
C11    C     0.43454   0.97422   0.67572   0.00000  Uiso   1.00
C12    C     0.43779   0.06041   0.68228   0.00000  Uiso   1.00
C13    C     0.46347   0.20013   0.66526   0.00000  Uiso   1.00
C14    C     0.29427   0.91593   0.85837   0.00000  Uiso   1.00
C15    C     0.35585   0.85145   0.89279   0.00000  Uiso   1.00
C16    C     0.36980   0.83419   0.97768   0.00000  Uiso   1.00
C17    C     0.42873   0.77297   0.99616   0.00000  Uiso   1.00
C18    C     0.23862   0.86845   0.80164   0.00000  Uiso   1.00
C19    C     0.15402   0.86549   0.80987   0.00000  Uiso   1.00
C20    C     0.11425   0.81858   0.75162   0.00000  Uiso   1.00
C21    C     0.34305   0.97442   0.79976   0.00000  Uiso   1.00
C22    C     0.34622   0.06056   0.80640   0.00000  Uiso   1.00
C23    C     0.39435   0.10287   0.74654   0.00000  Uiso   1.00
H24    H     0.40786   0.80489   0.69032   0.00000  Uiso   1.00
H25    H     0.49167   0.71505   0.79734   0.00000  Uiso   1.00
H26    H     0.27591   0.74636   0.62956   0.00000  Uiso   1.00
H27    H     0.46809   0.94139   0.62609   0.00000  Uiso   1.00
H28    H     0.56544   0.63413   0.94429   0.00000  Uiso   1.00
H29    H     0.11051   0.70016   0.59049   0.00000  Uiso   1.00
H30    H     0.51574   0.11143   0.58317   0.00000  Uiso   1.00
H31    H     0.26051   0.94894   0.90832   0.00000  Uiso   1.00
H32    H     0.33624   0.86701   0.02731   0.00000  Uiso   1.00
H33    H     0.12048   0.89831   0.85952   0.00000  Uiso   1.00
H34    H     0.31265   0.09334   0.85605   0.00000  Uiso   1.00
H35    H     0.43928   0.75745   0.13094   0.00000  Uiso   1.00
H36    H     0.98435   0.82348   0.77713   0.00000  Uiso   1.00
H37    H     0.38958   0.23476   0.76981   0.00000  Uiso   1.00
O38    O     0.55481   0.63927   0.11195   0.00000  Uiso   1.00
O39    O     0.95796   0.72592   0.64777   0.00000  Uiso   1.00
O40    O     0.48962   0.26549   0.63817   0.00000  Uiso   1.00
N41    N     0.52536   0.67441   0.97189   0.00000  Uiso   1.00
N42    N     0.10003   0.73613   0.64111   0.00000  Uiso   1.00
N43    N     0.47888   0.12064   0.63425   0.00000  Uiso   1.00
N44    N     0.45748   0.74077   0.07232   0.00000  Uiso   1.00
N45    N     0.03215   0.80249   0.74155   0.00000  Uiso   1.00
N46    N     0.41099   0.18700   0.73469   0.00000  Uiso   1.00
C47    C     0.74131   0.37499   0.83716   0.00000  Uiso   1.00
C48    C     0.82688   0.40055   0.80769   0.00000  Uiso   1.00
C49    C     0.84485   0.46072   0.74573   0.00000  Uiso   1.00
C50    C     0.92701   0.47498   0.72788   0.00000  Uiso   1.00
C51    C     0.05046   0.52138   0.67560   0.00000  Uiso   1.00
C52    C     0.73829   0.28090   0.82512   0.00000  Uiso   1.00
C53    C     0.68176   0.24047   0.77780   0.00000  Uiso   1.00
C54    C     0.68933   0.15400   0.77463   0.00000  Uiso   1.00
C55    C     0.67520   0.01464   0.74945   0.00000  Uiso   1.00
C56    C     0.73686   0.38755   0.93247   0.00000  Uiso   1.00
C57    C     0.67912   0.43677   0.97543   0.00000  Uiso   1.00
C58    C     0.68548   0.44008   0.06265   0.00000  Uiso   1.00
C59    C     0.66914   0.46630   0.20416   0.00000  Uiso   1.00
C60    C     0.85526   0.29332   0.91566   0.00000  Uiso   1.00
C61    C     0.88877   0.35619   0.85033   0.00000  Uiso   1.00
C62    C     0.97093   0.37036   0.83258   0.00000  Uiso   1.00
C63    C     0.98902   0.43054   0.77059   0.00000  Uiso   1.00
C64    C     0.80018   0.23654   0.86775   0.00000  Uiso   1.00
C65    C     0.80783   0.15011   0.86465   0.00000  Uiso   1.00
C66    C     0.75133   0.10956   0.81735   0.00000  Uiso   1.00
C67    C     0.79876   0.34319   0.97511   0.00000  Uiso   1.00
C68    C     0.80520   0.34641   0.06228   0.00000  Uiso   1.00
C69    C     0.74749   0.39563   0.10536   0.00000  Uiso   1.00
H70    H     0.69312   0.40953   0.80397   0.00000  Uiso   1.00
H71    H     0.79693   0.49503   0.71274   0.00000  Uiso   1.00
H72    H     0.63386   0.27482   0.74482   0.00000  Uiso   1.00
H73    H     0.63123   0.47109   0.94241   0.00000  Uiso   1.00
H74    H     0.93933   0.57025   0.63037   0.00000  Uiso   1.00
H75    H     0.59546   0.10590   0.69804   0.00000  Uiso   1.00
H76    H     0.58991   0.51979   0.11471   0.00000  Uiso   1.00
H77    H     0.90345   0.25878   0.94886   0.00000  Uiso   1.00
H78    H     0.01881   0.33602   0.86558   0.00000  Uiso   1.00
H79    H     0.85573   0.11580   0.89766   0.00000  Uiso   1.00
H80    H     0.85311   0.31207   0.09525   0.00000  Uiso   1.00
H81    H     0.11941   0.44118   0.75442   0.00000  Uiso   1.00
H82    H     0.77554   0.97684   0.82210   0.00000  Uiso   1.00
H83    H     0.76999   0.39072   0.23876   0.00000  Uiso   1.00
O84    O     0.10146   0.55923   0.63498   0.00000  Uiso   1.00
O85    O     0.65031   0.95003   0.72378   0.00000  Uiso   1.00
O86    O     0.64303   0.49303   0.27043   0.00000  Uiso   1.00
N87    N     0.96588   0.52929   0.67101   0.00000  Uiso   1.00
N88    N     0.64439   0.09515   0.73427   0.00000  Uiso   1.00
N89    N     0.63919   0.48208   0.12382   0.00000  Uiso   1.00
N90    N     0.06278   0.45984   0.73776   0.00000  Uiso   1.00
N91    N     0.74129   0.02570   0.80102   0.00000  Uiso   1.00
N92    N     0.73609   0.41263   0.19057   0.00000  Uiso   1.00
C93    C     0.83940   0.74082   0.37574   0.00000  Uiso   1.00
C94    C     0.81122   0.82825   0.40179   0.00000  Uiso   1.00
C95    C     0.75135   0.84666   0.46293   0.00000  Uiso   1.00
C96    C     0.73439   0.93060   0.47749   0.00000  Uiso   1.00
C97    C     0.68429   0.05674   0.52476   0.00000  Uiso   1.00
C98    C     0.82773   0.73775   0.28054   0.00000  Uiso   1.00
C99    C     0.78176   0.68006   0.23973   0.00000  Uiso   1.00
C100   C     0.77871   0.68781   0.15223   0.00000  Uiso   1.00
C101   C     0.75428   0.67342   0.01125   0.00000  Uiso   1.00
C102   C     0.93157   0.73617   0.38811   0.00000  Uiso   1.00
C103   C     0.97292   0.67714   0.43772   0.00000  Uiso   1.00
C104   C     0.05730   0.68356   0.44076   0.00000  Uiso   1.00
C105   C     0.19412   0.66672   0.46679   0.00000  Uiso   1.00
C106   C     0.91574   0.85715   0.29290   0.00000  Uiso   1.00
C107   C     0.85268   0.89143   0.35679   0.00000  Uiso   1.00
C108   C     0.83581   0.97537   0.37127   0.00000  Uiso   1.00
C109   C     0.77593   0.99390   0.43242   0.00000  Uiso   1.00
C110   C     0.86919   0.80093   0.23554   0.00000  Uiso   1.00
C111   C     0.86621   0.80877   0.14808   0.00000  Uiso   1.00
C112   C     0.82024   0.75111   0.10715   0.00000  Uiso   1.00
C113   C     0.97304   0.79936   0.34311   0.00000  Uiso   1.00
C114   C     0.05738   0.80586   0.34607   0.00000  Uiso   1.00
C115   C     0.09884   0.74685   0.39568   0.00000  Uiso   1.00
H116   H     0.80712   0.69162   0.41076   0.00000  Uiso   1.00
H117   H     0.71927   0.79774   0.49773   0.00000  Uiso   1.00
H118   H     0.74968   0.63117   0.27457   0.00000  Uiso   1.00
H119   H     0.94081   0.62826   0.47253   0.00000  Uiso   1.00
H120   H     0.64014   0.94326   0.57428   0.00000  Uiso   1.00
H121   H     0.70428   0.59201   0.10374   0.00000  Uiso   1.00
H122   H     0.10732   0.58587   0.52117   0.00000  Uiso   1.00
H123   H     0.94802   0.90634   0.25786   0.00000  Uiso   1.00
H124   H     0.86790   0.02425   0.33644   0.00000  Uiso   1.00
H125   H     0.89831   0.85767   0.11328   0.00000  Uiso   1.00
H126   H     0.08944   0.85476   0.31124   0.00000  Uiso   1.00
H127   H     0.76077   0.12710   0.44337   0.00000  Uiso   1.00
H128   H     0.82491   0.77584   0.97283   0.00000  Uiso   1.00
H129   H     0.22795   0.76971   0.39026   0.00000  Uiso   1.00
O130   O     0.64519   0.10887   0.56325   0.00000  Uiso   1.00
O131   O     0.72935   0.64803   0.94592   0.00000  Uiso   1.00
O132   O     0.25813   0.63998   0.49359   0.00000  Uiso   1.00
N133   N     0.67954   0.97035   0.53270   0.00000  Uiso   1.00
N134   N     0.73949   0.64195   0.09277   0.00000  Uiso   1.00
N135   N     0.11630   0.63620   0.48302   0.00000  Uiso   1.00
N136   N     0.74445   0.06927   0.46226   0.00000  Uiso   1.00
N137   N     0.80440   0.74087   0.02233   0.00000  Uiso   1.00
N138   N     0.18121   0.73513   0.41258   0.00000  Uiso   1.00
C139   C     0.87414   0.24061   0.33699   0.00000  Uiso   1.00
C140   C     0.89935   0.32794   0.30768   0.00000  Uiso   1.00
C141   C     0.95833   0.34613   0.24560   0.00000  Uiso   1.00
C142   C     0.97246   0.43001   0.22794   0.00000  Uiso   1.00
C143   C     0.01817   0.55599   0.17588   0.00000  Uiso   1.00
C144   C     0.78203   0.23769   0.32518   0.00000  Uiso   1.00
C145   C     0.74237   0.17999   0.27782   0.00000  Uiso   1.00
C146   C     0.65773   0.18788   0.27490   0.00000  Uiso   1.00
C147   C     0.52129   0.17370   0.25006   0.00000  Uiso   1.00
C148   C     0.88635   0.23611   0.43225   0.00000  Uiso   1.00
C149   C     0.93440   0.17707   0.47492   0.00000  Uiso   1.00
C150   C     0.93758   0.18363   0.56215   0.00000  Uiso   1.00
C151   C     0.96312   0.16699   0.70354   0.00000  Uiso   1.00
C152   C     0.79434   0.35722   0.41602   0.00000  Uiso   1.00
C153   C     0.85600   0.39128   0.35061   0.00000  Uiso   1.00
C154   C     0.87004   0.47516   0.33304   0.00000  Uiso   1.00
C155   C     0.92904   0.49347   0.27094   0.00000  Uiso   1.00
C156   C     0.73868   0.30102   0.36811   0.00000  Uiso   1.00
C157   C     0.65408   0.30901   0.36526   0.00000  Uiso   1.00
C158   C     0.61431   0.25134   0.31791   0.00000  Uiso   1.00
C159   C     0.84301   0.29945   0.47518   0.00000  Uiso   1.00
C160   C     0.84611   0.30610   0.56235   0.00000  Uiso   1.00
C161   C     0.89415   0.24708   0.60515   0.00000  Uiso   1.00
H162   H     0.90788   0.19129   0.30357   0.00000  Uiso   1.00
H163   H     0.99186   0.29710   0.21239   0.00000  Uiso   1.00
H164   H     0.77593   0.13097   0.24462   0.00000  Uiso   1.00
H165   H     0.96793   0.12806   0.44168   0.00000  Uiso   1.00
H166   H     0.06583   0.44234   0.13021   0.00000  Uiso   1.00
H167   H     0.61053   0.09203   0.19819   0.00000  Uiso   1.00
H168   H     0.01539   0.08589   0.61374   0.00000  Uiso   1.00
H169   H     0.76059   0.40654   0.44944   0.00000  Uiso   1.00
H170   H     0.83649   0.52416   0.36627   0.00000  Uiso   1.00
H171   H     0.62056   0.35803   0.39849   0.00000  Uiso   1.00
H172   H     0.81256   0.35512   0.59555   0.00000  Uiso   1.00
H173   H     0.93972   0.62663   0.25510   0.00000  Uiso   1.00
H174   H     0.48442   0.27632   0.32308   0.00000  Uiso   1.00
H175   H     0.88929   0.27018   0.73862   0.00000  Uiso   1.00
O176   O     0.05534   0.60797   0.13529   0.00000  Uiso   1.00
O177   O     0.45801   0.14837   0.22449   0.00000  Uiso   1.00
O178   O     0.98918   0.14033   0.76967   0.00000  Uiso   1.00
N179   N     0.02574   0.46957   0.17103   0.00000  Uiso   1.00
N180   N     0.60007   0.14206   0.23457   0.00000  Uiso   1.00
N181   N     0.97856   0.13631   0.62308   0.00000  Uiso   1.00
N182   N     0.95789   0.56873   0.23823   0.00000  Uiso   1.00
N183   N     0.53221   0.24123   0.30178   0.00000  Uiso   1.00
N184   N     0.91071   0.23547   0.69028   0.00000  Uiso   1.00
C185   C     0.24122   0.33800   0.87561   0.00000  Uiso   1.00
C186   C     0.32674   0.30907   0.90135   0.00000  Uiso   1.00
C187   C     0.34460   0.24793   0.96228   0.00000  Uiso   1.00
C188   C     0.42673   0.23045   0.97657   0.00000  Uiso   1.00
C189   C     0.55010   0.17907   0.02337   0.00000  Uiso   1.00
C190   C     0.23826   0.32601   0.78039   0.00000  Uiso   1.00
C191   C     0.18173   0.27913   0.73961   0.00000  Uiso   1.00
C192   C     0.18938   0.27593   0.65208   0.00000  Uiso   1.00
C193   C     0.17535   0.25091   0.51107   0.00000  Uiso   1.00
C194   C     0.23684   0.43217   0.88824   0.00000  Uiso   1.00
C195   C     0.17909   0.47456   0.93813   0.00000  Uiso   1.00
C196   C     0.18553   0.56074   0.94138   0.00000  Uiso   1.00
C197   C     0.16928   0.70054   0.96783   0.00000  Uiso   1.00
C198   C     0.35531   0.41569   0.79267   0.00000  Uiso   1.00
C199   C     0.38871   0.35126   0.85630   0.00000  Uiso   1.00
C200   C     0.47083   0.33388   0.87051   0.00000  Uiso   1.00
C201   C     0.48881   0.27273   0.93144   0.00000  Uiso   1.00
C202   C     0.30023   0.36821   0.73534   0.00000  Uiso   1.00
C203   C     0.30796   0.36508   0.64784   0.00000  Uiso   1.00
C204   C     0.25146   0.31820   0.60694   0.00000  Uiso   1.00
C205   C     0.29881   0.47437   0.84319   0.00000  Uiso   1.00
C206   C     0.30533   0.56051   0.84636   0.00000  Uiso   1.00
C207   C     0.24761   0.60301   0.89625   0.00000  Uiso   1.00
H208   H     0.19297   0.30515   0.91068   0.00000  Uiso   1.00
H209   H     0.29662   0.21528   0.99712   0.00000  Uiso   1.00
H210   H     0.13377   0.24649   0.77449   0.00000  Uiso   1.00
H211   H     0.13114   0.44188   0.97298   0.00000  Uiso   1.00
H212   H     0.43888   0.13423   0.07307   0.00000  Uiso   1.00
H213   H     0.09548   0.20005   0.60364   0.00000  Uiso   1.00
H214   H     0.08993   0.61208   0.02219   0.00000  Uiso   1.00
H215   H     0.40356   0.44855   0.75759   0.00000  Uiso   1.00
H216   H     0.51878   0.36654   0.83563   0.00000  Uiso   1.00
H217   H     0.35592   0.39775   0.61300   0.00000  Uiso   1.00
H218   H     0.35329   0.59314   0.81149   0.00000  Uiso   1.00
H219   H     0.61918   0.25700   0.94199   0.00000  Uiso   1.00
H220   H     0.27578   0.32282   0.47256   0.00000  Uiso   1.00
H221   H     0.27024   0.73485   0.89112   0.00000  Uiso   1.00
O222   O     0.60102   0.13906   0.06161   0.00000  Uiso   1.00
O223   O     0.15049   0.22543   0.44574   0.00000  Uiso   1.00
O224   O     0.14321   0.76600   0.99487   0.00000  Uiso   1.00
N225   N     0.46550   0.17439   0.03152   0.00000  Uiso   1.00
N226   N     0.14445   0.23592   0.59263   0.00000  Uiso   1.00
N227   N     0.13925   0.62113   0.98393   0.00000  Uiso   1.00
N228   N     0.56252   0.24045   0.96099   0.00000  Uiso   1.00
N229   N     0.24147   0.30198   0.52211   0.00000  Uiso   1.00
N230   N     0.23627   0.68719   0.91340   0.00000  Uiso   1.00
C231   C     0.33947   0.87509   0.24057   0.00000  Uiso   1.00
C232   C     0.31123   0.90086   0.32910   0.00000  Uiso   1.00
C233   C     0.25140   0.96117   0.34778   0.00000  Uiso   1.00
C234   C     0.23438   0.97561   0.43276   0.00000  Uiso   1.00
C235   C     0.18420   0.02233   0.56049   0.00000  Uiso   1.00
C236   C     0.32771   0.78101   0.23757   0.00000  Uiso   1.00
C237   C     0.28175   0.74056   0.17930   0.00000  Uiso   1.00
C238   C     0.27862   0.65411   0.18723   0.00000  Uiso   1.00
C239   C     0.25409   0.51477   0.17283   0.00000  Uiso   1.00
C240   C     0.43165   0.88747   0.23569   0.00000  Uiso   1.00
C241   C     0.47310   0.93651   0.17583   0.00000  Uiso   1.00
C242   C     0.55748   0.93967   0.18216   0.00000  Uiso   1.00
C243   C     0.69433   0.96562   0.16484   0.00000  Uiso   1.00
C244   C     0.41563   0.79349   0.35825   0.00000  Uiso   1.00
C245   C     0.35259   0.85653   0.39301   0.00000  Uiso   1.00
C246   C     0.33566   0.87088   0.47798   0.00000  Uiso   1.00
C247   C     0.27582   0.93121   0.49679   0.00000  Uiso   1.00
C248   C     0.36908   0.73669   0.30149   0.00000  Uiso   1.00
C249   C     0.36602   0.65028   0.30950   0.00000  Uiso   1.00
C250   C     0.32006   0.60971   0.25127   0.00000  Uiso   1.00
C251   C     0.47302   0.84315   0.29961   0.00000  Uiso   1.00
C252   C     0.55736   0.84623   0.30603   0.00000  Uiso   1.00
C253   C     0.59892   0.89527   0.24619   0.00000  Uiso   1.00
H254   H     0.30726   0.90959   0.19081   0.00000  Uiso   1.00
H255   H     0.21939   0.99545   0.29830   0.00000  Uiso   1.00
H256   H     0.24976   0.77488   0.12984   0.00000  Uiso   1.00
H257   H     0.44106   0.97080   0.12637   0.00000  Uiso   1.00
H258   H     0.14020   0.07107   0.44566   0.00000  Uiso   1.00
H259   H     0.20424   0.60598   0.09044   0.00000  Uiso   1.00
H260   H     0.60765   0.01912   0.08312   0.00000  Uiso   1.00
H261   H     0.44784   0.75897   0.40802   0.00000  Uiso   1.00
H262   H     0.36768   0.83657   0.52743   0.00000  Uiso   1.00
H263   H     0.39804   0.61600   0.35897   0.00000  Uiso   1.00
H264   H     0.58935   0.81192   0.35550   0.00000  Uiso   1.00
H265   H     0.26055   0.94212   0.63163   0.00000  Uiso   1.00
H266   H     0.32459   0.47702   0.27641   0.00000  Uiso   1.00
H267   H     0.72800   0.89016   0.26910   0.00000  Uiso   1.00
O268   O     0.14509   0.06034   0.61328   0.00000  Uiso   1.00
O269   O     0.22912   0.45016   0.14724   0.00000  Uiso   1.00
O270   O     0.75838   0.99219   0.13764   0.00000  Uiso   1.00
N271   N     0.17954   0.03009   0.47304   0.00000  Uiso   1.00
N272   N     0.23940   0.59525   0.14094   0.00000  Uiso   1.00
N273   N     0.61656   0.98149   0.13409   0.00000  Uiso   1.00
N274   N     0.24430   0.96070   0.57311   0.00000  Uiso   1.00
N275   N     0.30416   0.52587   0.24101   0.00000  Uiso   1.00
N276   N     0.68132   0.91210   0.23416   0.00000  Uiso   1.00
