data_job_00979
_audit_creation_date              2018-12-19
_audit_creation_method            'Materials Studio'
_symmetry_space_group_name_H-M    'P1'
_symmetry_Int_Tables_number       1
_symmetry_cell_setting            triclinic
loop_
_symmetry_equiv_pos_as_xyz
  x,y,z
_cell_length_a                    12.3710
_cell_length_b                    16.2795
_cell_length_c                    15.3559
_cell_angle_alpha                 90.0000
_cell_angle_beta                  81.9133
_cell_angle_gamma                 90.0000
loop_
_atom_site_label
_atom_site_type_symbol
_atom_site_fract_x
_atom_site_fract_y
_atom_site_fract_z
_atom_site_U_iso_or_equiv
_atom_site_adp_type
_atom_site_occupancy
C1     C     0.50953   0.24227   0.65578   0.00000  Uiso   1.00
C2     C     0.47185   0.27680   0.57277   0.00000  Uiso   1.00
C3     C     0.36844   0.26776   0.54882   0.00000  Uiso   1.00
C4     C     0.35017   0.30396   0.47033   0.00000  Uiso   1.00
C5     C     0.27917   0.35090   0.34941   0.00000  Uiso   1.00
C6     C     0.60950   0.18960   0.62479   0.00000  Uiso   1.00
C7     C     0.62182   0.10724   0.64458   0.00000  Uiso   1.00
C8     C     0.71942   0.07004   0.60989   0.00000  Uiso   1.00
C9     C     0.86215   0.98162   0.56978   0.00000  Uiso   1.00
C10    C     0.55104   0.31546   0.70345   0.00000  Uiso   1.00
C11    C     0.51423   0.33893   0.78940   0.00000  Uiso   1.00
C12    C     0.56264   0.40769   0.82094   0.00000  Uiso   1.00
C13    C     0.61459   0.51470   0.90297   0.00000  Uiso   1.00
C14    C     0.66098   0.32263   0.55899   0.00000  Uiso   1.00
C15    C     0.55411   0.32045   0.52020   0.00000  Uiso   1.00
C16    C     0.53600   0.35667   0.44172   0.00000  Uiso   1.00
C17    C     0.43257   0.34769   0.41766   0.00000  Uiso   1.00
C18    C     0.69175   0.23324   0.57221   0.00000  Uiso   1.00
C19    C     0.78937   0.19615   0.53749   0.00000  Uiso   1.00
C20    C     0.80183   0.11376   0.55722   0.00000  Uiso   1.00
C21    C     0.63330   0.35912   0.65088   0.00000  Uiso   1.00
C22    C     0.68178   0.42785   0.68230   0.00000  Uiso   1.00
C23    C     0.64505   0.45142   0.76827   0.00000  Uiso   1.00
H24    H     0.44550   0.20828   0.69672   0.00000  Uiso   1.00
H25    H     0.30481   0.23397   0.58952   0.00000  Uiso   1.00
H26    H     0.55815   0.07348   0.68528   0.00000  Uiso   1.00
H27    H     0.45057   0.30514   0.83007   0.00000  Uiso   1.00
H28    H     0.18511   0.28167   0.44748   0.00000  Uiso   1.00
H29    H     0.71931   0.94328   0.64940   0.00000  Uiso   1.00
H30    H     0.49247   0.43178   0.95472   0.00000  Uiso   1.00
H31    H     0.72502   0.35661   0.51805   0.00000  Uiso   1.00
H32    H     0.59967   0.39045   0.40105   0.00000  Uiso   1.00
H33    H     0.85301   0.22995   0.49680   0.00000  Uiso   1.00
H34    H     0.74543   0.46161   0.64159   0.00000  Uiso   1.00
H35    H     0.42444   0.40867   0.29450   0.00000  Uiso   1.00
H36    H     0.95864   0.07028   0.49643   0.00000  Uiso   1.00
H37    H     0.73179   0.55878   0.80175   0.00000  Uiso   1.00
O38    O     0.21728   0.36473   0.29723   0.00000  Uiso   1.00
O39    O     0.91814   0.92078   0.56217   0.00000  Uiso   1.00
O40    O     0.62052   0.56167   0.96274   0.00000  Uiso   1.00
N41    N     0.25863   0.30693   0.42754   0.00000  Uiso   1.00
N42    N     0.75807   0.99056   0.61632   0.00000  Uiso   1.00
N43    N     0.54601   0.44724   0.90177   0.00000  Uiso   1.00
N44    N     0.38741   0.37527   0.34523   0.00000  Uiso   1.00
N45    N     0.88685   0.05889   0.53400   0.00000  Uiso   1.00
N46    N     0.67479   0.51558   0.81946   0.00000  Uiso   1.00
C47    C     0.49047   0.74227   0.84422   0.00000  Uiso   1.00
C48    C     0.52815   0.77680   0.92723   0.00000  Uiso   1.00
C49    C     0.63156   0.76776   0.95118   0.00000  Uiso   1.00
C50    C     0.64983   0.80396   0.02967   0.00000  Uiso   1.00
C51    C     0.72083   0.85090   0.15059   0.00000  Uiso   1.00
C52    C     0.39050   0.68960   0.87521   0.00000  Uiso   1.00
C53    C     0.37818   0.60724   0.85542   0.00000  Uiso   1.00
C54    C     0.28058   0.57004   0.89011   0.00000  Uiso   1.00
C55    C     0.13785   0.48162   0.93022   0.00000  Uiso   1.00
C56    C     0.44896   0.81546   0.79655   0.00000  Uiso   1.00
C57    C     0.48577   0.83893   0.71060   0.00000  Uiso   1.00
C58    C     0.43736   0.90769   0.67906   0.00000  Uiso   1.00
C59    C     0.38541   0.01470   0.59703   0.00000  Uiso   1.00
C60    C     0.33902   0.82263   0.94101   0.00000  Uiso   1.00
C61    C     0.44589   0.82045   0.97980   0.00000  Uiso   1.00
C62    C     0.46400   0.85667   0.05828   0.00000  Uiso   1.00
C63    C     0.56743   0.84769   0.08234   0.00000  Uiso   1.00
C64    C     0.30825   0.73324   0.92779   0.00000  Uiso   1.00
C65    C     0.21063   0.69615   0.96251   0.00000  Uiso   1.00
C66    C     0.19817   0.61376   0.94278   0.00000  Uiso   1.00
C67    C     0.36670   0.85912   0.84912   0.00000  Uiso   1.00
C68    C     0.31822   0.92785   0.81770   0.00000  Uiso   1.00
C69    C     0.35495   0.95142   0.73173   0.00000  Uiso   1.00
H70    H     0.55450   0.70828   0.80328   0.00000  Uiso   1.00
H71    H     0.69519   0.73397   0.91048   0.00000  Uiso   1.00
H72    H     0.44185   0.57348   0.81472   0.00000  Uiso   1.00
H73    H     0.54943   0.80514   0.66993   0.00000  Uiso   1.00
H74    H     0.81489   0.78167   0.05252   0.00000  Uiso   1.00
H75    H     0.28069   0.44328   0.85060   0.00000  Uiso   1.00
H76    H     0.50753   0.93178   0.54528   0.00000  Uiso   1.00
H77    H     0.27498   0.85661   0.98195   0.00000  Uiso   1.00
H78    H     0.40033   0.89045   0.09895   0.00000  Uiso   1.00
H79    H     0.14699   0.72995   0.00320   0.00000  Uiso   1.00
H80    H     0.25457   0.96161   0.85841   0.00000  Uiso   1.00
H81    H     0.57556   0.90867   0.20550   0.00000  Uiso   1.00
H82    H     0.04136   0.57028   0.00357   0.00000  Uiso   1.00
H83    H     0.26821   0.05878   0.69825   0.00000  Uiso   1.00
O84    O     0.78272   0.86473   0.20277   0.00000  Uiso   1.00
O85    O     0.08186   0.42078   0.93783   0.00000  Uiso   1.00
O86    O     0.37948   0.06167   0.53726   0.00000  Uiso   1.00
N87    N     0.74137   0.80693   0.07246   0.00000  Uiso   1.00
N88    N     0.24193   0.49056   0.88368   0.00000  Uiso   1.00
N89    N     0.45399   0.94724   0.59823   0.00000  Uiso   1.00
N90    N     0.61259   0.87527   0.15477   0.00000  Uiso   1.00
N91    N     0.11315   0.55889   0.96600   0.00000  Uiso   1.00
N92    N     0.32521   0.01558   0.68054   0.00000  Uiso   1.00
C93    C     0.49047   0.75773   0.34422   0.00000  Uiso   1.00
C94    C     0.52815   0.72320   0.42723   0.00000  Uiso   1.00
C95    C     0.63156   0.73224   0.45118   0.00000  Uiso   1.00
C96    C     0.64983   0.69604   0.52967   0.00000  Uiso   1.00
C97    C     0.72083   0.64910   0.65059   0.00000  Uiso   1.00
C98    C     0.39050   0.81040   0.37521   0.00000  Uiso   1.00
C99    C     0.37818   0.89276   0.35542   0.00000  Uiso   1.00
C100   C     0.28058   0.92996   0.39011   0.00000  Uiso   1.00
C101   C     0.13785   0.01838   0.43022   0.00000  Uiso   1.00
C102   C     0.44896   0.68454   0.29655   0.00000  Uiso   1.00
C103   C     0.48577   0.66107   0.21060   0.00000  Uiso   1.00
C104   C     0.43736   0.59231   0.17906   0.00000  Uiso   1.00
C105   C     0.38541   0.48530   0.09703   0.00000  Uiso   1.00
C106   C     0.33902   0.67737   0.44101   0.00000  Uiso   1.00
C107   C     0.44589   0.67955   0.47980   0.00000  Uiso   1.00
C108   C     0.46400   0.64333   0.55828   0.00000  Uiso   1.00
C109   C     0.56743   0.65231   0.58234   0.00000  Uiso   1.00
C110   C     0.30825   0.76676   0.42779   0.00000  Uiso   1.00
C111   C     0.21063   0.80385   0.46251   0.00000  Uiso   1.00
C112   C     0.19817   0.88624   0.44278   0.00000  Uiso   1.00
C113   C     0.36670   0.64088   0.34912   0.00000  Uiso   1.00
C114   C     0.31822   0.57215   0.31770   0.00000  Uiso   1.00
C115   C     0.35495   0.54858   0.23173   0.00000  Uiso   1.00
H116   H     0.55450   0.79172   0.30328   0.00000  Uiso   1.00
H117   H     0.69519   0.76603   0.41048   0.00000  Uiso   1.00
H118   H     0.44185   0.92652   0.31472   0.00000  Uiso   1.00
H119   H     0.54943   0.69486   0.16993   0.00000  Uiso   1.00
H120   H     0.81489   0.71833   0.55252   0.00000  Uiso   1.00
H121   H     0.28069   0.05672   0.35060   0.00000  Uiso   1.00
H122   H     0.50753   0.56822   0.04528   0.00000  Uiso   1.00
H123   H     0.27498   0.64339   0.48195   0.00000  Uiso   1.00
H124   H     0.40033   0.60955   0.59895   0.00000  Uiso   1.00
H125   H     0.14699   0.77005   0.50320   0.00000  Uiso   1.00
H126   H     0.25457   0.53839   0.35841   0.00000  Uiso   1.00
H127   H     0.57556   0.59133   0.70550   0.00000  Uiso   1.00
H128   H     0.04136   0.92972   0.50357   0.00000  Uiso   1.00
H129   H     0.26821   0.44122   0.19825   0.00000  Uiso   1.00
O130   O     0.78272   0.63527   0.70277   0.00000  Uiso   1.00
O131   O     0.08186   0.07922   0.43783   0.00000  Uiso   1.00
O132   O     0.37948   0.43833   0.03726   0.00000  Uiso   1.00
N133   N     0.74137   0.69307   0.57246   0.00000  Uiso   1.00
N134   N     0.24193   0.00944   0.38368   0.00000  Uiso   1.00
N135   N     0.45399   0.55276   0.09823   0.00000  Uiso   1.00
N136   N     0.61259   0.62473   0.65477   0.00000  Uiso   1.00
N137   N     0.11315   0.94111   0.46600   0.00000  Uiso   1.00
N138   N     0.32521   0.48442   0.18054   0.00000  Uiso   1.00
C139   C     0.50953   0.25773   0.15578   0.00000  Uiso   1.00
C140   C     0.47185   0.22320   0.07277   0.00000  Uiso   1.00
C141   C     0.36844   0.23224   0.04882   0.00000  Uiso   1.00
C142   C     0.35017   0.19604   0.97033   0.00000  Uiso   1.00
C143   C     0.27917   0.14910   0.84941   0.00000  Uiso   1.00
C144   C     0.60950   0.31040   0.12479   0.00000  Uiso   1.00
C145   C     0.62182   0.39276   0.14458   0.00000  Uiso   1.00
C146   C     0.71942   0.42996   0.10989   0.00000  Uiso   1.00
C147   C     0.86215   0.51838   0.06978   0.00000  Uiso   1.00
C148   C     0.55104   0.18454   0.20345   0.00000  Uiso   1.00
C149   C     0.51423   0.16107   0.28940   0.00000  Uiso   1.00
C150   C     0.56264   0.09231   0.32094   0.00000  Uiso   1.00
C151   C     0.61459   0.98530   0.40297   0.00000  Uiso   1.00
C152   C     0.66098   0.17737   0.05899   0.00000  Uiso   1.00
C153   C     0.55411   0.17955   0.02020   0.00000  Uiso   1.00
C154   C     0.53600   0.14333   0.94172   0.00000  Uiso   1.00
C155   C     0.43257   0.15231   0.91766   0.00000  Uiso   1.00
C156   C     0.69175   0.26676   0.07221   0.00000  Uiso   1.00
C157   C     0.78937   0.30385   0.03749   0.00000  Uiso   1.00
C158   C     0.80183   0.38624   0.05722   0.00000  Uiso   1.00
C159   C     0.63330   0.14088   0.15088   0.00000  Uiso   1.00
C160   C     0.68178   0.07215   0.18230   0.00000  Uiso   1.00
C161   C     0.64505   0.04858   0.26827   0.00000  Uiso   1.00
H162   H     0.44550   0.29172   0.19672   0.00000  Uiso   1.00
H163   H     0.30481   0.26603   0.08952   0.00000  Uiso   1.00
H164   H     0.55815   0.42652   0.18528   0.00000  Uiso   1.00
H165   H     0.45057   0.19486   0.33007   0.00000  Uiso   1.00
H166   H     0.18511   0.21833   0.94748   0.00000  Uiso   1.00
H167   H     0.71931   0.55672   0.14940   0.00000  Uiso   1.00
H168   H     0.49247   0.06822   0.45472   0.00000  Uiso   1.00
H169   H     0.72502   0.14339   0.01805   0.00000  Uiso   1.00
H170   H     0.59967   0.10955   0.90105   0.00000  Uiso   1.00
H171   H     0.85301   0.27005   0.99680   0.00000  Uiso   1.00
H172   H     0.74543   0.03839   0.14159   0.00000  Uiso   1.00
H173   H     0.42444   0.09133   0.79450   0.00000  Uiso   1.00
H174   H     0.95864   0.42972   0.99643   0.00000  Uiso   1.00
H175   H     0.73179   0.94122   0.30175   0.00000  Uiso   1.00
O176   O     0.21728   0.13527   0.79723   0.00000  Uiso   1.00
O177   O     0.91814   0.57922   0.06217   0.00000  Uiso   1.00
O178   O     0.62052   0.93833   0.46274   0.00000  Uiso   1.00
N179   N     0.25863   0.19307   0.92754   0.00000  Uiso   1.00
N180   N     0.75807   0.50944   0.11632   0.00000  Uiso   1.00
N181   N     0.54601   0.05276   0.40177   0.00000  Uiso   1.00
N182   N     0.38741   0.12473   0.84523   0.00000  Uiso   1.00
N183   N     0.88685   0.44111   0.03400   0.00000  Uiso   1.00
N184   N     0.67479   0.98442   0.31946   0.00000  Uiso   1.00
