data_job_04561
_audit_creation_date              2018-12-19
_audit_creation_method            'Materials Studio'
_symmetry_space_group_name_H-M    'P1'
_symmetry_Int_Tables_number       1
_symmetry_cell_setting            triclinic
loop_
_symmetry_equiv_pos_as_xyz
  x,y,z
_cell_length_a                    35.4291
_cell_length_b                    11.8097
_cell_length_c                    12.8276
_cell_angle_alpha                 90.0000
_cell_angle_beta                  90.0000
_cell_angle_gamma                 90.0000
loop_
_atom_site_label
_atom_site_type_symbol
_atom_site_fract_x
_atom_site_fract_y
_atom_site_fract_z
_atom_site_U_iso_or_equiv
_atom_site_adp_type
_atom_site_occupancy
C1     C     0.64371   0.52938   0.79362   0.00000  Uiso   1.00
C2     C     0.65087   0.47067   0.89764   0.00000  Uiso   1.00
C3     C     0.68460   0.42119   0.92847   0.00000  Uiso   1.00
C4     C     0.68543   0.37177   0.02665   0.00000  Uiso   1.00
C5     C     0.70138   0.28054   0.17826   0.00000  Uiso   1.00
C6     C     0.60997   0.46908   0.74497   0.00000  Uiso   1.00
C7     C     0.60931   0.41827   0.64742   0.00000  Uiso   1.00
C8     C     0.57571   0.36753   0.61708   0.00000  Uiso   1.00
C9     C     0.52815   0.27390   0.53164   0.00000  Uiso   1.00
C10    C     0.63019   0.64853   0.82018   0.00000  Uiso   1.00
C11    C     0.64653   0.74861   0.78584   0.00000  Uiso   1.00
C12    C     0.62995   0.84895   0.81880   0.00000  Uiso   1.00
C13    C     0.61379   0.03394   0.85013   0.00000  Uiso   1.00
C14    C     0.58521   0.52960   0.91317   0.00000  Uiso   1.00
C15    C     0.61909   0.47079   0.96257   0.00000  Uiso   1.00
C16    C     0.61987   0.42143   0.06073   0.00000  Uiso   1.00
C17    C     0.65360   0.37189   0.09170   0.00000  Uiso   1.00
C18    C     0.57819   0.46919   0.80990   0.00000  Uiso   1.00
C19    C     0.54459   0.41852   0.77969   0.00000  Uiso   1.00
C20    C     0.54388   0.36764   0.68213   0.00000  Uiso   1.00
C21    C     0.59842   0.64865   0.88511   0.00000  Uiso   1.00
C22    C     0.58181   0.74885   0.91812   0.00000  Uiso   1.00
C23    C     0.59812   0.84907   0.88385   0.00000  Uiso   1.00
H24    H     0.66845   0.52928   0.74306   0.00000  Uiso   1.00
H25    H     0.70918   0.42111   0.87819   0.00000  Uiso   1.00
H26    H     0.63391   0.41821   0.59719   0.00000  Uiso   1.00
H27    H     0.67112   0.74849   0.73560   0.00000  Uiso   1.00
H28    H     0.74033   0.30119   0.05662   0.00000  Uiso   1.00
H29    H     0.58160   0.29510   0.46410   0.00000  Uiso   1.00
H30    H     0.66007   0.99157   0.75596   0.00000  Uiso   1.00
H31    H     0.56046   0.52969   0.96372   0.00000  Uiso   1.00
H32    H     0.59528   0.42154   0.11096   0.00000  Uiso   1.00
H33    H     0.52000   0.41863   0.82996   0.00000  Uiso   1.00
H34    H     0.55722   0.74891   0.96837   0.00000  Uiso   1.00
H35    H     0.64788   0.30153   0.24554   0.00000  Uiso   1.00
H36    H     0.48915   0.29545   0.65302   0.00000  Uiso   1.00
H37    H     0.56762   0.99191   0.94488   0.00000  Uiso   1.00
O38    O     0.71895   0.23018   0.24394   0.00000  Uiso   1.00
O39    O     0.51070   0.22221   0.46657   0.00000  Uiso   1.00
O40    O     0.61366   0.13595   0.84949   0.00000  Uiso   1.00
N41    N     0.71380   0.31614   0.08089   0.00000  Uiso   1.00
N42    N     0.56540   0.31043   0.52692   0.00000  Uiso   1.00
N43    N     0.63876   0.96156   0.79976   0.00000  Uiso   1.00
N44    N     0.66405   0.31632   0.18255   0.00000  Uiso   1.00
N45    N     0.51565   0.31061   0.62858   0.00000  Uiso   1.00
N46    N     0.58901   0.96175   0.90142   0.00000  Uiso   1.00
C47    C     0.14414   0.02655   0.55127   0.00000  Uiso   1.00
C48    C     0.15107   0.96669   0.65485   0.00000  Uiso   1.00
C49    C     0.18461   0.91573   0.68529   0.00000  Uiso   1.00
C50    C     0.18524   0.86543   0.78311   0.00000  Uiso   1.00
C51    C     0.20083   0.77233   0.93404   0.00000  Uiso   1.00
C52    C     0.11017   0.96789   0.50220   0.00000  Uiso   1.00
C53    C     0.10930   0.91796   0.40428   0.00000  Uiso   1.00
C54    C     0.07550   0.86869   0.37359   0.00000  Uiso   1.00
C55    C     0.02757   0.77752   0.28748   0.00000  Uiso   1.00
C56    C     0.13111   0.14594   0.57871   0.00000  Uiso   1.00
C57    C     0.14784   0.24572   0.54510   0.00000  Uiso   1.00
C58    C     0.13167   0.34636   0.57880   0.00000  Uiso   1.00
C59    C     0.11625   0.53165   0.61150   0.00000  Uiso   1.00
C60    C     0.08565   0.02784   0.67085   0.00000  Uiso   1.00
C61    C     0.11930   0.96738   0.71980   0.00000  Uiso   1.00
C62    C     0.11989   0.91716   0.81759   0.00000  Uiso   1.00
C63    C     0.15342   0.86614   0.84818   0.00000  Uiso   1.00
C64    C     0.07840   0.96858   0.56714   0.00000  Uiso   1.00
C65    C     0.04459   0.91938   0.53658   0.00000  Uiso   1.00
C66    C     0.04367   0.86939   0.43865   0.00000  Uiso   1.00
C67    C     0.09934   0.14664   0.64366   0.00000  Uiso   1.00
C68    C     0.08313   0.24714   0.67741   0.00000  Uiso   1.00
C69    C     0.09984   0.34706   0.64387   0.00000  Uiso   1.00
H70    H     0.16888   0.02600   0.50070   0.00000  Uiso   1.00
H71    H     0.20919   0.91520   0.63500   0.00000  Uiso   1.00
H72    H     0.13389   0.91744   0.35403   0.00000  Uiso   1.00
H73    H     0.17243   0.24515   0.49484   0.00000  Uiso   1.00
H74    H     0.23986   0.79263   0.81253   0.00000  Uiso   1.00
H75    H     0.08109   0.79739   0.22008   0.00000  Uiso   1.00
H76    H     0.16236   0.48843   0.51699   0.00000  Uiso   1.00
H77    H     0.06091   0.02838   0.72141   0.00000  Uiso   1.00
H78    H     0.09530   0.91771   0.86784   0.00000  Uiso   1.00
H79    H     0.02001   0.91995   0.58686   0.00000  Uiso   1.00
H80    H     0.05854   0.24765   0.72767   0.00000  Uiso   1.00
H81    H     0.14743   0.79466   0.00150   0.00000  Uiso   1.00
H82    H     0.98866   0.79942   0.40904   0.00000  Uiso   1.00
H83    H     0.06992   0.49046   0.70596   0.00000  Uiso   1.00
O84    O     0.21821   0.72077   0.99934   0.00000  Uiso   1.00
O85    O     0.00991   0.72703   0.22205   0.00000  Uiso   1.00
O86    O     0.11653   0.63365   0.61160   0.00000  Uiso   1.00
N87    N     0.21339   0.80832   0.83692   0.00000  Uiso   1.00
N88    N     0.06495   0.81275   0.28301   0.00000  Uiso   1.00
N89    N     0.14092   0.45881   0.56058   0.00000  Uiso   1.00
N90    N     0.16365   0.80941   0.93861   0.00000  Uiso   1.00
N91    N     0.01521   0.81384   0.38470   0.00000  Uiso   1.00
N92    N     0.09118   0.45991   0.66227   0.00000  Uiso   1.00
C93    C     0.35629   0.47062   0.79362   0.00000  Uiso   1.00
C94    C     0.34913   0.52933   0.89764   0.00000  Uiso   1.00
C95    C     0.31540   0.57881   0.92847   0.00000  Uiso   1.00
C96    C     0.31457   0.62823   0.02665   0.00000  Uiso   1.00
C97    C     0.29862   0.71946   0.17826   0.00000  Uiso   1.00
C98    C     0.39003   0.53092   0.74497   0.00000  Uiso   1.00
C99    C     0.39069   0.58173   0.64742   0.00000  Uiso   1.00
C100   C     0.42429   0.63247   0.61708   0.00000  Uiso   1.00
C101   C     0.47185   0.72610   0.53164   0.00000  Uiso   1.00
C102   C     0.36981   0.35147   0.82018   0.00000  Uiso   1.00
C103   C     0.35347   0.25139   0.78584   0.00000  Uiso   1.00
C104   C     0.37005   0.15105   0.81880   0.00000  Uiso   1.00
C105   C     0.38621   0.96606   0.85013   0.00000  Uiso   1.00
C106   C     0.41479   0.47040   0.91317   0.00000  Uiso   1.00
C107   C     0.38091   0.52921   0.96257   0.00000  Uiso   1.00
C108   C     0.38013   0.57857   0.06073   0.00000  Uiso   1.00
C109   C     0.34640   0.62811   0.09170   0.00000  Uiso   1.00
C110   C     0.42181   0.53081   0.80990   0.00000  Uiso   1.00
C111   C     0.45541   0.58148   0.77969   0.00000  Uiso   1.00
C112   C     0.45612   0.63236   0.68213   0.00000  Uiso   1.00
C113   C     0.40158   0.35135   0.88511   0.00000  Uiso   1.00
C114   C     0.41819   0.25115   0.91812   0.00000  Uiso   1.00
C115   C     0.40188   0.15093   0.88385   0.00000  Uiso   1.00
H116   H     0.33155   0.47072   0.74306   0.00000  Uiso   1.00
H117   H     0.29082   0.57889   0.87819   0.00000  Uiso   1.00
H118   H     0.36609   0.58179   0.59719   0.00000  Uiso   1.00
H119   H     0.32888   0.25151   0.73560   0.00000  Uiso   1.00
H120   H     0.25967   0.69881   0.05662   0.00000  Uiso   1.00
H121   H     0.41840   0.70490   0.46410   0.00000  Uiso   1.00
H122   H     0.33993   0.00843   0.75596   0.00000  Uiso   1.00
H123   H     0.43954   0.47031   0.96372   0.00000  Uiso   1.00
H124   H     0.40472   0.57846   0.11096   0.00000  Uiso   1.00
H125   H     0.48000   0.58137   0.82996   0.00000  Uiso   1.00
H126   H     0.44278   0.25109   0.96837   0.00000  Uiso   1.00
H127   H     0.35212   0.69847   0.24554   0.00000  Uiso   1.00
H128   H     0.51085   0.70455   0.65302   0.00000  Uiso   1.00
H129   H     0.43238   0.00809   0.94488   0.00000  Uiso   1.00
O130   O     0.28105   0.76982   0.24394   0.00000  Uiso   1.00
O131   O     0.48930   0.77779   0.46657   0.00000  Uiso   1.00
O132   O     0.38634   0.86405   0.84949   0.00000  Uiso   1.00
N133   N     0.28620   0.68386   0.08089   0.00000  Uiso   1.00
N134   N     0.43460   0.68957   0.52692   0.00000  Uiso   1.00
N135   N     0.36124   0.03844   0.79976   0.00000  Uiso   1.00
N136   N     0.33595   0.68368   0.18255   0.00000  Uiso   1.00
N137   N     0.48435   0.68939   0.62858   0.00000  Uiso   1.00
N138   N     0.41099   0.03825   0.90142   0.00000  Uiso   1.00
C139   C     0.85586   0.97345   0.55127   0.00000  Uiso   1.00
C140   C     0.84893   0.03331   0.65485   0.00000  Uiso   1.00
C141   C     0.81539   0.08427   0.68529   0.00000  Uiso   1.00
C142   C     0.81476   0.13457   0.78311   0.00000  Uiso   1.00
C143   C     0.79917   0.22767   0.93404   0.00000  Uiso   1.00
C144   C     0.88983   0.03211   0.50220   0.00000  Uiso   1.00
C145   C     0.89070   0.08204   0.40428   0.00000  Uiso   1.00
C146   C     0.92450   0.13131   0.37359   0.00000  Uiso   1.00
C147   C     0.97243   0.22248   0.28748   0.00000  Uiso   1.00
C148   C     0.86889   0.85406   0.57871   0.00000  Uiso   1.00
C149   C     0.85216   0.75428   0.54510   0.00000  Uiso   1.00
C150   C     0.86833   0.65364   0.57880   0.00000  Uiso   1.00
C151   C     0.88375   0.46835   0.61150   0.00000  Uiso   1.00
C152   C     0.91435   0.97216   0.67085   0.00000  Uiso   1.00
C153   C     0.88070   0.03262   0.71980   0.00000  Uiso   1.00
C154   C     0.88011   0.08284   0.81759   0.00000  Uiso   1.00
C155   C     0.84658   0.13386   0.84818   0.00000  Uiso   1.00
C156   C     0.92160   0.03142   0.56714   0.00000  Uiso   1.00
C157   C     0.95541   0.08062   0.53658   0.00000  Uiso   1.00
C158   C     0.95633   0.13061   0.43865   0.00000  Uiso   1.00
C159   C     0.90066   0.85336   0.64366   0.00000  Uiso   1.00
C160   C     0.91687   0.75286   0.67741   0.00000  Uiso   1.00
C161   C     0.90016   0.65294   0.64387   0.00000  Uiso   1.00
H162   H     0.83112   0.97400   0.50070   0.00000  Uiso   1.00
H163   H     0.79081   0.08480   0.63500   0.00000  Uiso   1.00
H164   H     0.86611   0.08256   0.35403   0.00000  Uiso   1.00
H165   H     0.82757   0.75485   0.49484   0.00000  Uiso   1.00
H166   H     0.76014   0.20737   0.81253   0.00000  Uiso   1.00
H167   H     0.91891   0.20261   0.22008   0.00000  Uiso   1.00
H168   H     0.83764   0.51157   0.51699   0.00000  Uiso   1.00
H169   H     0.93909   0.97162   0.72141   0.00000  Uiso   1.00
H170   H     0.90470   0.08229   0.86784   0.00000  Uiso   1.00
H171   H     0.97999   0.08005   0.58686   0.00000  Uiso   1.00
H172   H     0.94146   0.75235   0.72767   0.00000  Uiso   1.00
H173   H     0.85257   0.20534   0.00150   0.00000  Uiso   1.00
H174   H     0.01134   0.20058   0.40904   0.00000  Uiso   1.00
H175   H     0.93008   0.50954   0.70596   0.00000  Uiso   1.00
O176   O     0.78179   0.27923   0.99934   0.00000  Uiso   1.00
O177   O     0.99009   0.27297   0.22205   0.00000  Uiso   1.00
O178   O     0.88347   0.36635   0.61160   0.00000  Uiso   1.00
N179   N     0.78661   0.19168   0.83692   0.00000  Uiso   1.00
N180   N     0.93505   0.18725   0.28301   0.00000  Uiso   1.00
N181   N     0.85908   0.54119   0.56058   0.00000  Uiso   1.00
N182   N     0.83635   0.19059   0.93861   0.00000  Uiso   1.00
N183   N     0.98479   0.18616   0.38470   0.00000  Uiso   1.00
N184   N     0.90882   0.54009   0.66227   0.00000  Uiso   1.00
C185   C     0.64371   0.97062   0.29362   0.00000  Uiso   1.00
C186   C     0.65087   0.02933   0.39764   0.00000  Uiso   1.00
C187   C     0.68460   0.07881   0.42847   0.00000  Uiso   1.00
C188   C     0.68543   0.12823   0.52665   0.00000  Uiso   1.00
C189   C     0.70138   0.21946   0.67826   0.00000  Uiso   1.00
C190   C     0.60997   0.03092   0.24497   0.00000  Uiso   1.00
C191   C     0.60931   0.08173   0.14742   0.00000  Uiso   1.00
C192   C     0.57571   0.13247   0.11708   0.00000  Uiso   1.00
C193   C     0.52815   0.22610   0.03164   0.00000  Uiso   1.00
C194   C     0.63019   0.85147   0.32018   0.00000  Uiso   1.00
C195   C     0.64653   0.75139   0.28584   0.00000  Uiso   1.00
C196   C     0.62995   0.65105   0.31880   0.00000  Uiso   1.00
C197   C     0.61379   0.46606   0.35013   0.00000  Uiso   1.00
C198   C     0.58521   0.97040   0.41317   0.00000  Uiso   1.00
C199   C     0.61909   0.02921   0.46257   0.00000  Uiso   1.00
C200   C     0.61987   0.07857   0.56073   0.00000  Uiso   1.00
C201   C     0.65360   0.12811   0.59170   0.00000  Uiso   1.00
C202   C     0.57819   0.03081   0.30990   0.00000  Uiso   1.00
C203   C     0.54459   0.08148   0.27969   0.00000  Uiso   1.00
C204   C     0.54388   0.13236   0.18213   0.00000  Uiso   1.00
C205   C     0.59842   0.85135   0.38511   0.00000  Uiso   1.00
C206   C     0.58181   0.75115   0.41812   0.00000  Uiso   1.00
C207   C     0.59812   0.65093   0.38385   0.00000  Uiso   1.00
H208   H     0.66845   0.97072   0.24306   0.00000  Uiso   1.00
H209   H     0.70918   0.07889   0.37819   0.00000  Uiso   1.00
H210   H     0.63391   0.08179   0.09719   0.00000  Uiso   1.00
H211   H     0.67112   0.75151   0.23560   0.00000  Uiso   1.00
H212   H     0.74033   0.19881   0.55662   0.00000  Uiso   1.00
H213   H     0.58160   0.20490   0.96410   0.00000  Uiso   1.00
H214   H     0.66007   0.50843   0.25596   0.00000  Uiso   1.00
H215   H     0.56046   0.97031   0.46372   0.00000  Uiso   1.00
H216   H     0.59528   0.07846   0.61096   0.00000  Uiso   1.00
H217   H     0.52000   0.08137   0.32996   0.00000  Uiso   1.00
H218   H     0.55722   0.75109   0.46837   0.00000  Uiso   1.00
H219   H     0.64788   0.19847   0.74554   0.00000  Uiso   1.00
H220   H     0.48915   0.20455   0.15302   0.00000  Uiso   1.00
H221   H     0.56762   0.50809   0.44488   0.00000  Uiso   1.00
O222   O     0.71895   0.26982   0.74394   0.00000  Uiso   1.00
O223   O     0.51070   0.27779   0.96657   0.00000  Uiso   1.00
O224   O     0.61366   0.36405   0.34949   0.00000  Uiso   1.00
N225   N     0.71380   0.18386   0.58089   0.00000  Uiso   1.00
N226   N     0.56540   0.18957   0.02692   0.00000  Uiso   1.00
N227   N     0.63876   0.53844   0.29976   0.00000  Uiso   1.00
N228   N     0.66405   0.18368   0.68255   0.00000  Uiso   1.00
N229   N     0.51565   0.18939   0.12858   0.00000  Uiso   1.00
N230   N     0.58901   0.53825   0.40142   0.00000  Uiso   1.00
C231   C     0.14414   0.47345   0.05127   0.00000  Uiso   1.00
C232   C     0.15107   0.53331   0.15485   0.00000  Uiso   1.00
C233   C     0.18461   0.58427   0.18529   0.00000  Uiso   1.00
C234   C     0.18524   0.63457   0.28311   0.00000  Uiso   1.00
C235   C     0.20083   0.72767   0.43404   0.00000  Uiso   1.00
C236   C     0.11017   0.53211   0.00220   0.00000  Uiso   1.00
C237   C     0.10930   0.58204   0.90428   0.00000  Uiso   1.00
C238   C     0.07550   0.63131   0.87359   0.00000  Uiso   1.00
C239   C     0.02757   0.72248   0.78748   0.00000  Uiso   1.00
C240   C     0.13111   0.35406   0.07871   0.00000  Uiso   1.00
C241   C     0.14784   0.25428   0.04510   0.00000  Uiso   1.00
C242   C     0.13167   0.15364   0.07880   0.00000  Uiso   1.00
C243   C     0.11625   0.96835   0.11150   0.00000  Uiso   1.00
C244   C     0.08565   0.47216   0.17085   0.00000  Uiso   1.00
C245   C     0.11930   0.53262   0.21980   0.00000  Uiso   1.00
C246   C     0.11989   0.58284   0.31759   0.00000  Uiso   1.00
C247   C     0.15342   0.63386   0.34818   0.00000  Uiso   1.00
C248   C     0.07840   0.53142   0.06714   0.00000  Uiso   1.00
C249   C     0.04459   0.58062   0.03658   0.00000  Uiso   1.00
C250   C     0.04367   0.63061   0.93865   0.00000  Uiso   1.00
C251   C     0.09934   0.35336   0.14366   0.00000  Uiso   1.00
C252   C     0.08313   0.25286   0.17741   0.00000  Uiso   1.00
C253   C     0.09984   0.15294   0.14387   0.00000  Uiso   1.00
H254   H     0.16888   0.47400   0.00070   0.00000  Uiso   1.00
H255   H     0.20919   0.58480   0.13500   0.00000  Uiso   1.00
H256   H     0.13389   0.58256   0.85403   0.00000  Uiso   1.00
H257   H     0.17243   0.25485   0.99484   0.00000  Uiso   1.00
H258   H     0.23986   0.70737   0.31253   0.00000  Uiso   1.00
H259   H     0.08109   0.70261   0.72008   0.00000  Uiso   1.00
H260   H     0.16236   0.01157   0.01699   0.00000  Uiso   1.00
H261   H     0.06091   0.47162   0.22141   0.00000  Uiso   1.00
H262   H     0.09530   0.58229   0.36784   0.00000  Uiso   1.00
H263   H     0.02001   0.58005   0.08686   0.00000  Uiso   1.00
H264   H     0.05854   0.25235   0.22767   0.00000  Uiso   1.00
H265   H     0.14743   0.70534   0.50150   0.00000  Uiso   1.00
H266   H     0.98866   0.70058   0.90904   0.00000  Uiso   1.00
H267   H     0.06992   0.00954   0.20596   0.00000  Uiso   1.00
O268   O     0.21821   0.77923   0.49934   0.00000  Uiso   1.00
O269   O     0.00991   0.77297   0.72205   0.00000  Uiso   1.00
O270   O     0.11653   0.86635   0.11160   0.00000  Uiso   1.00
N271   N     0.21339   0.69168   0.33692   0.00000  Uiso   1.00
N272   N     0.06495   0.68725   0.78301   0.00000  Uiso   1.00
N273   N     0.14092   0.04119   0.06058   0.00000  Uiso   1.00
N274   N     0.16365   0.69059   0.43861   0.00000  Uiso   1.00
N275   N     0.01521   0.68616   0.88470   0.00000  Uiso   1.00
N276   N     0.09118   0.04009   0.16227   0.00000  Uiso   1.00
C277   C     0.35629   0.02938   0.29362   0.00000  Uiso   1.00
C278   C     0.34913   0.97067   0.39764   0.00000  Uiso   1.00
C279   C     0.31540   0.92119   0.42847   0.00000  Uiso   1.00
C280   C     0.31457   0.87177   0.52665   0.00000  Uiso   1.00
C281   C     0.29862   0.78054   0.67826   0.00000  Uiso   1.00
C282   C     0.39003   0.96908   0.24497   0.00000  Uiso   1.00
C283   C     0.39069   0.91827   0.14742   0.00000  Uiso   1.00
C284   C     0.42429   0.86753   0.11708   0.00000  Uiso   1.00
C285   C     0.47185   0.77390   0.03164   0.00000  Uiso   1.00
C286   C     0.36981   0.14853   0.32018   0.00000  Uiso   1.00
C287   C     0.35347   0.24861   0.28584   0.00000  Uiso   1.00
C288   C     0.37005   0.34895   0.31880   0.00000  Uiso   1.00
C289   C     0.38621   0.53394   0.35013   0.00000  Uiso   1.00
C290   C     0.41479   0.02960   0.41317   0.00000  Uiso   1.00
C291   C     0.38091   0.97079   0.46257   0.00000  Uiso   1.00
C292   C     0.38013   0.92143   0.56073   0.00000  Uiso   1.00
C293   C     0.34640   0.87189   0.59170   0.00000  Uiso   1.00
C294   C     0.42181   0.96919   0.30990   0.00000  Uiso   1.00
C295   C     0.45541   0.91852   0.27969   0.00000  Uiso   1.00
C296   C     0.45612   0.86764   0.18213   0.00000  Uiso   1.00
C297   C     0.40158   0.14865   0.38511   0.00000  Uiso   1.00
C298   C     0.41819   0.24885   0.41812   0.00000  Uiso   1.00
C299   C     0.40188   0.34907   0.38385   0.00000  Uiso   1.00
H300   H     0.33155   0.02928   0.24306   0.00000  Uiso   1.00
H301   H     0.29082   0.92111   0.37819   0.00000  Uiso   1.00
H302   H     0.36609   0.91821   0.09719   0.00000  Uiso   1.00
H303   H     0.32888   0.24849   0.23560   0.00000  Uiso   1.00
H304   H     0.25967   0.80119   0.55662   0.00000  Uiso   1.00
H305   H     0.41840   0.79510   0.96410   0.00000  Uiso   1.00
H306   H     0.33993   0.49157   0.25596   0.00000  Uiso   1.00
H307   H     0.43954   0.02969   0.46372   0.00000  Uiso   1.00
H308   H     0.40472   0.92154   0.61096   0.00000  Uiso   1.00
H309   H     0.48000   0.91863   0.32996   0.00000  Uiso   1.00
H310   H     0.44278   0.24891   0.46837   0.00000  Uiso   1.00
H311   H     0.35212   0.80153   0.74554   0.00000  Uiso   1.00
H312   H     0.51085   0.79545   0.15302   0.00000  Uiso   1.00
H313   H     0.43238   0.49191   0.44488   0.00000  Uiso   1.00
O314   O     0.28105   0.73018   0.74394   0.00000  Uiso   1.00
O315   O     0.48930   0.72221   0.96657   0.00000  Uiso   1.00
O316   O     0.38634   0.63595   0.34949   0.00000  Uiso   1.00
N317   N     0.28620   0.81614   0.58089   0.00000  Uiso   1.00
N318   N     0.43460   0.81043   0.02692   0.00000  Uiso   1.00
N319   N     0.36124   0.46156   0.29976   0.00000  Uiso   1.00
N320   N     0.33595   0.81632   0.68255   0.00000  Uiso   1.00
N321   N     0.48435   0.81061   0.12858   0.00000  Uiso   1.00
N322   N     0.41099   0.46175   0.40142   0.00000  Uiso   1.00
C323   C     0.85586   0.52655   0.05127   0.00000  Uiso   1.00
C324   C     0.84893   0.46669   0.15485   0.00000  Uiso   1.00
C325   C     0.81539   0.41573   0.18529   0.00000  Uiso   1.00
C326   C     0.81476   0.36543   0.28311   0.00000  Uiso   1.00
C327   C     0.79917   0.27233   0.43404   0.00000  Uiso   1.00
C328   C     0.88983   0.46789   0.00220   0.00000  Uiso   1.00
C329   C     0.89070   0.41796   0.90428   0.00000  Uiso   1.00
C330   C     0.92450   0.36869   0.87359   0.00000  Uiso   1.00
C331   C     0.97243   0.27752   0.78748   0.00000  Uiso   1.00
C332   C     0.86889   0.64594   0.07871   0.00000  Uiso   1.00
C333   C     0.85216   0.74572   0.04510   0.00000  Uiso   1.00
C334   C     0.86833   0.84636   0.07880   0.00000  Uiso   1.00
C335   C     0.88375   0.03165   0.11150   0.00000  Uiso   1.00
C336   C     0.91435   0.52784   0.17085   0.00000  Uiso   1.00
C337   C     0.88070   0.46738   0.21980   0.00000  Uiso   1.00
C338   C     0.88011   0.41716   0.31759   0.00000  Uiso   1.00
C339   C     0.84658   0.36614   0.34818   0.00000  Uiso   1.00
C340   C     0.92160   0.46858   0.06714   0.00000  Uiso   1.00
C341   C     0.95541   0.41938   0.03658   0.00000  Uiso   1.00
C342   C     0.95633   0.36939   0.93865   0.00000  Uiso   1.00
C343   C     0.90066   0.64664   0.14366   0.00000  Uiso   1.00
C344   C     0.91687   0.74714   0.17741   0.00000  Uiso   1.00
C345   C     0.90016   0.84706   0.14387   0.00000  Uiso   1.00
H346   H     0.83112   0.52600   0.00070   0.00000  Uiso   1.00
H347   H     0.79081   0.41520   0.13500   0.00000  Uiso   1.00
H348   H     0.86611   0.41744   0.85403   0.00000  Uiso   1.00
H349   H     0.82757   0.74515   0.99484   0.00000  Uiso   1.00
H350   H     0.76014   0.29263   0.31253   0.00000  Uiso   1.00
H351   H     0.91891   0.29739   0.72008   0.00000  Uiso   1.00
H352   H     0.83764   0.98843   0.01699   0.00000  Uiso   1.00
H353   H     0.93909   0.52838   0.22141   0.00000  Uiso   1.00
H354   H     0.90470   0.41771   0.36784   0.00000  Uiso   1.00
H355   H     0.97999   0.41995   0.08686   0.00000  Uiso   1.00
H356   H     0.94146   0.74765   0.22767   0.00000  Uiso   1.00
H357   H     0.85257   0.29466   0.50150   0.00000  Uiso   1.00
H358   H     0.01134   0.29942   0.90904   0.00000  Uiso   1.00
H359   H     0.93008   0.99046   0.20596   0.00000  Uiso   1.00
O360   O     0.78179   0.22077   0.49934   0.00000  Uiso   1.00
O361   O     0.99009   0.22703   0.72205   0.00000  Uiso   1.00
O362   O     0.88347   0.13365   0.11160   0.00000  Uiso   1.00
N363   N     0.78661   0.30832   0.33692   0.00000  Uiso   1.00
N364   N     0.93505   0.31275   0.78301   0.00000  Uiso   1.00
N365   N     0.85908   0.95881   0.06058   0.00000  Uiso   1.00
N366   N     0.83635   0.30941   0.43861   0.00000  Uiso   1.00
N367   N     0.98479   0.31384   0.88470   0.00000  Uiso   1.00
N368   N     0.90882   0.95991   0.16227   0.00000  Uiso   1.00
