data_job_06959
_audit_creation_date              2018-12-19
_audit_creation_method            'Materials Studio'
_symmetry_space_group_name_H-M    'P1'
_symmetry_Int_Tables_number       1
_symmetry_cell_setting            triclinic
loop_
_symmetry_equiv_pos_as_xyz
  x,y,z
_cell_length_a                    27.5507
_cell_length_b                    23.0103
_cell_length_c                    16.2948
_cell_angle_alpha                 90.3976
_cell_angle_beta                  94.6912
_cell_angle_gamma                 106.3500
loop_
_atom_site_label
_atom_site_type_symbol
_atom_site_fract_x
_atom_site_fract_y
_atom_site_fract_z
_atom_site_U_iso_or_equiv
_atom_site_adp_type
_atom_site_occupancy
C1     C     0.46594   0.49956   0.80461   0.00000  Uiso   1.00
C2     C     0.44659   0.55319   0.77873   0.00000  Uiso   1.00
C3     C     0.47521   0.61348   0.78212   0.00000  Uiso   1.00
C4     C     0.45050   0.65578   0.75564   0.00000  Uiso   1.00
C5     C     0.42828   0.74170   0.71988   0.00000  Uiso   1.00
C6     C     0.43173   0.46717   0.86909   0.00000  Uiso   1.00
C7     C     0.44785   0.45515   0.94845   0.00000  Uiso   1.00
C8     C     0.41063   0.42503   0.99802   0.00000  Uiso   1.00
C9     C     0.36533   0.37738   0.10253   0.00000  Uiso   1.00
C10    C     0.45456   0.45631   0.72965   0.00000  Uiso   1.00
C11    C     0.48988   0.43514   0.69178   0.00000  Uiso   1.00
C12    C     0.47187   0.39587   0.62396   0.00000  Uiso   1.00
C13    C     0.46202   0.33136   0.51197   0.00000  Uiso   1.00
C14    C     0.37116   0.46744   0.75155   0.00000  Uiso   1.00
C15    C     0.39511   0.53574   0.74992   0.00000  Uiso   1.00
C16    C     0.37035   0.57795   0.72342   0.00000  Uiso   1.00
C17    C     0.39893   0.63831   0.72676   0.00000  Uiso   1.00
C18    C     0.38025   0.44973   0.84028   0.00000  Uiso   1.00
C19    C     0.34299   0.41962   0.88974   0.00000  Uiso   1.00
C20    C     0.35905   0.40756   0.96915   0.00000  Uiso   1.00
C21    C     0.40308   0.43887   0.70083   0.00000  Uiso   1.00
C22    C     0.38501   0.39962   0.63307   0.00000  Uiso   1.00
C23    C     0.42030   0.37839   0.59509   0.00000  Uiso   1.00
H24    H     0.50602   0.51314   0.82705   0.00000  Uiso   1.00
H25    H     0.51505   0.62697   0.80444   0.00000  Uiso   1.00
H26    H     0.48769   0.46865   0.97073   0.00000  Uiso   1.00
H27    H     0.52971   0.44865   0.71410   0.00000  Uiso   1.00
H28    H     0.50236   0.74548   0.76668   0.00000  Uiso   1.00
H29    H     0.44467   0.41164   0.11731   0.00000  Uiso   1.00
H30    H     0.53328   0.36946   0.57615   0.00000  Uiso   1.00
H31    H     0.33108   0.45386   0.72912   0.00000  Uiso   1.00
H32    H     0.33051   0.56444   0.70112   0.00000  Uiso   1.00
H33    H     0.30316   0.40612   0.86742   0.00000  Uiso   1.00
H34    H     0.34517   0.38613   0.61078   0.00000  Uiso   1.00
H35    H     0.35258   0.69473   0.68283   0.00000  Uiso   1.00
H36    H     0.29489   0.36089   0.03346   0.00000  Uiso   1.00
H37    H     0.38350   0.31872   0.49230   0.00000  Uiso   1.00
O38    O     0.43024   0.79392   0.70813   0.00000  Uiso   1.00
O39    O     0.35457   0.35592   0.16814   0.00000  Uiso   1.00
O40    O     0.47081   0.30060   0.45815   0.00000  Uiso   1.00
N41    N     0.46719   0.71836   0.75077   0.00000  Uiso   1.00
N42    N     0.41325   0.40625   0.07860   0.00000  Uiso   1.00
N43    N     0.49609   0.36681   0.57267   0.00000  Uiso   1.00
N44    N     0.38659   0.69105   0.70565   0.00000  Uiso   1.00
N45    N     0.33266   0.37894   0.03347   0.00000  Uiso   1.00
N46    N     0.41549   0.33950   0.52755   0.00000  Uiso   1.00
C47    C     0.75661   0.26253   0.42434   0.00000  Uiso   1.00
C48    C     0.76698   0.24579   0.51313   0.00000  Uiso   1.00
C49    C     0.81031   0.27253   0.56473   0.00000  Uiso   1.00
C50    C     0.81256   0.25078   0.64380   0.00000  Uiso   1.00
C51    C     0.83471   0.23190   0.77765   0.00000  Uiso   1.00
C52    C     0.74635   0.20418   0.37258   0.00000  Uiso   1.00
C53    C     0.77233   0.19592   0.30601   0.00000  Uiso   1.00
C54    C     0.75720   0.13915   0.26676   0.00000  Uiso   1.00
C55    C     0.74730   0.05567   0.18235   0.00000  Uiso   1.00
C56    C     0.70643   0.27857   0.42064   0.00000  Uiso   1.00
C57    C     0.69884   0.33286   0.39446   0.00000  Uiso   1.00
C58    C     0.65010   0.33871   0.39565   0.00000  Uiso   1.00
C59    C     0.57821   0.37073   0.38587   0.00000  Uiso   1.00
C60    C     0.68354   0.17638   0.47300   0.00000  Uiso   1.00
C61    C     0.72729   0.19900   0.53956   0.00000  Uiso   1.00
C62    C     0.72947   0.17721   0.61858   0.00000  Uiso   1.00
C63    C     0.77280   0.20391   0.67029   0.00000  Uiso   1.00
C64    C     0.70666   0.15739   0.39901   0.00000  Uiso   1.00
C65    C     0.69148   0.10061   0.35985   0.00000  Uiso   1.00
C66    C     0.71744   0.09227   0.29324   0.00000  Uiso   1.00
C67    C     0.66674   0.23178   0.44708   0.00000  Uiso   1.00
C68    C     0.61800   0.23754   0.44831   0.00000  Uiso   1.00
C69    C     0.61034   0.29183   0.42213   0.00000  Uiso   1.00
H70    H     0.78751   0.29896   0.40375   0.00000  Uiso   1.00
H71    H     0.84102   0.30873   0.54425   0.00000  Uiso   1.00
H72    H     0.80304   0.23215   0.28556   0.00000  Uiso   1.00
H73    H     0.72957   0.36906   0.37401   0.00000  Uiso   1.00
H74    H     0.88286   0.29892   0.71167   0.00000  Uiso   1.00
H75    H     0.80276   0.13744   0.16619   0.00000  Uiso   1.00
H76    H     0.64782   0.42615   0.35268   0.00000  Uiso   1.00
H77    H     0.65263   0.13994   0.49358   0.00000  Uiso   1.00
H78    H     0.69875   0.14100   0.63901   0.00000  Uiso   1.00
H79    H     0.66077   0.06441   0.38032   0.00000  Uiso   1.00
H80    H     0.58729   0.20132   0.46876   0.00000  Uiso   1.00
H81    H     0.76738   0.16278   0.78858   0.00000  Uiso   1.00
H82    H     0.68728   0.00130   0.24309   0.00000  Uiso   1.00
H83    H     0.53234   0.29000   0.42959   0.00000  Uiso   1.00
O84    O     0.85789   0.23440   0.84416   0.00000  Uiso   1.00
O85    O     0.75280   0.02255   0.12850   0.00000  Uiso   1.00
O86    O     0.54953   0.40132   0.37319   0.00000  Uiso   1.00
N87    N     0.84935   0.26675   0.70982   0.00000  Uiso   1.00
N88    N     0.77447   0.11577   0.19983   0.00000  Uiso   1.00
N89    N     0.62961   0.38568   0.37417   0.00000  Uiso   1.00
N90    N     0.78721   0.19349   0.75120   0.00000  Uiso   1.00
N91    N     0.71233   0.04251   0.24121   0.00000  Uiso   1.00
N92    N     0.56747   0.31242   0.41555   0.00000  Uiso   1.00
C93    C     0.37294   0.65287   0.37149   0.00000  Uiso   1.00
C94    C     0.42539   0.68573   0.34569   0.00000  Uiso   1.00
C95    C     0.46344   0.72732   0.39408   0.00000  Uiso   1.00
C96    C     0.50873   0.75238   0.35922   0.00000  Uiso   1.00
C97    C     0.58911   0.80586   0.33137   0.00000  Uiso   1.00
C98    C     0.33488   0.66731   0.30730   0.00000  Uiso   1.00
C99    C     0.29682   0.69340   0.32342   0.00000  Uiso   1.00
C100   C     0.26592   0.70294   0.25624   0.00000  Uiso   1.00
C101   C     0.20575   0.72778   0.16880   0.00000  Uiso   1.00
C102   C     0.36730   0.58539   0.36007   0.00000  Uiso   1.00
C103   C     0.35649   0.54260   0.42056   0.00000  Uiso   1.00
C104   C     0.35287   0.48316   0.39780   0.00000  Uiso   1.00
C105   C     0.34304   0.38081   0.39230   0.00000  Uiso   1.00
C106   C     0.38572   0.62341   0.22352   0.00000  Uiso   1.00
C107   C     0.43233   0.66973   0.26532   0.00000  Uiso   1.00
C108   C     0.47758   0.69473   0.23037   0.00000  Uiso   1.00
C109   C     0.51569   0.73635   0.27870   0.00000  Uiso   1.00
C110   C     0.34182   0.65131   0.22693   0.00000  Uiso   1.00
C111   C     0.31096   0.66081   0.15971   0.00000  Uiso   1.00
C112   C     0.27287   0.68691   0.17572   0.00000  Uiso   1.00
C113   C     0.37424   0.56939   0.27970   0.00000  Uiso   1.00
C114   C     0.37063   0.51001   0.25685   0.00000  Uiso   1.00
C115   C     0.35982   0.46713   0.31728   0.00000  Uiso   1.00
H116   H     0.36753   0.66533   0.43406   0.00000  Uiso   1.00
H117   H     0.45805   0.73970   0.45628   0.00000  Uiso   1.00
H118   H     0.29146   0.70577   0.38563   0.00000  Uiso   1.00
H119   H     0.35112   0.55500   0.48275   0.00000  Uiso   1.00
H120   H     0.56146   0.81511   0.44545   0.00000  Uiso   1.00
H121   H     0.21018   0.74356   0.29648   0.00000  Uiso   1.00
H122   H     0.33599   0.42562   0.50128   0.00000  Uiso   1.00
H123   H     0.39112   0.61096   0.16094   0.00000  Uiso   1.00
H124   H     0.48294   0.68234   0.16817   0.00000  Uiso   1.00
H125   H     0.31634   0.64842   0.09752   0.00000  Uiso   1.00
H126   H     0.37600   0.49764   0.19464   0.00000  Uiso   1.00
H127   H     0.58166   0.76856   0.21161   0.00000  Uiso   1.00
H128   H     0.23037   0.69700   0.06265   0.00000  Uiso   1.00
H129   H     0.35618   0.37907   0.26745   0.00000  Uiso   1.00
O130   O     0.63153   0.83979   0.33821   0.00000  Uiso   1.00
O131   O     0.17065   0.74590   0.14277   0.00000  Uiso   1.00
O132   O     0.33571   0.32878   0.41146   0.00000  Uiso   1.00
N133   N     0.55362   0.79434   0.38943   0.00000  Uiso   1.00
N134   N     0.22519   0.72746   0.25016   0.00000  Uiso   1.00
N135   N     0.34280   0.43021   0.44162   0.00000  Uiso   1.00
N136   N     0.56449   0.76930   0.26361   0.00000  Uiso   1.00
N137   N     0.23606   0.70241   0.12433   0.00000  Uiso   1.00
N138   N     0.35367   0.40516   0.31579   0.00000  Uiso   1.00
C139   C     0.73648   0.23614   0.92836   0.00000  Uiso   1.00
C140   C     0.75080   0.27571   0.00699   0.00000  Uiso   1.00
C141   C     0.79960   0.30864   0.03624   0.00000  Uiso   1.00
C142   C     0.80476   0.34202   0.10935   0.00000  Uiso   1.00
C143   C     0.83339   0.40342   0.22500   0.00000  Uiso   1.00
C144   C     0.69785   0.26000   0.87696   0.00000  Uiso   1.00
C145   C     0.70213   0.27971   0.79686   0.00000  Uiso   1.00
C146   C     0.66271   0.29986   0.76050   0.00000  Uiso   1.00
C147   C     0.60913   0.33682   0.67425   0.00000  Uiso   1.00
C148   C     0.70760   0.17322   0.95445   0.00000  Uiso   1.00
C149   C     0.72008   0.11997   0.93950   0.00000  Uiso   1.00
C150   C     0.68887   0.06705   0.96836   0.00000  Uiso   1.00
C151   C     0.65043   0.96929   0.00243   0.00000  Uiso   1.00
C152   C     0.65884   0.23687   0.00619   0.00000  Uiso   1.00
C153   C     0.70862   0.27611   0.04926   0.00000  Uiso   1.00
C154   C     0.71370   0.30945   0.12235   0.00000  Uiso   1.00
C155   C     0.76251   0.34242   0.15170   0.00000  Uiso   1.00
C156   C     0.65568   0.26039   0.91923   0.00000  Uiso   1.00
C157   C     0.61624   0.28051   0.88297   0.00000  Uiso   1.00
C158   C     0.62046   0.30025   0.80285   0.00000  Uiso   1.00
C159   C     0.66543   0.17362   0.99672   0.00000  Uiso   1.00
C160   C     0.63419   0.12078   0.02561   0.00000  Uiso   1.00
C161   C     0.64662   0.06745   0.01071   0.00000  Uiso   1.00
H162   H     0.76931   0.23583   0.89544   0.00000  Uiso   1.00
H163   H     0.83223   0.30832   0.00350   0.00000  Uiso   1.00
H164   H     0.73477   0.27939   0.76416   0.00000  Uiso   1.00
H165   H     0.75272   0.11968   0.90678   0.00000  Uiso   1.00
H166   H     0.88338   0.38888   0.14194   0.00000  Uiso   1.00
H167   H     0.67788   0.32786   0.63727   0.00000  Uiso   1.00
H168   H     0.71573   0.99107   0.93800   0.00000  Uiso   1.00
H169   H     0.62601   0.23718   0.03910   0.00000  Uiso   1.00
H170   H     0.68106   0.30974   0.15505   0.00000  Uiso   1.00
H171   H     0.58361   0.28081   0.91571   0.00000  Uiso   1.00
H172   H     0.60156   0.12110   0.05832   0.00000  Uiso   1.00
H173   H     0.76069   0.39004   0.26494   0.00000  Uiso   1.00
H174   H     0.55519   0.32901   0.76026   0.00000  Uiso   1.00
H175   H     0.59304   0.99223   0.06100   0.00000  Uiso   1.00
O176   O     0.86083   0.43719   0.27710   0.00000  Uiso   1.00
O177   O     0.59122   0.35711   0.61499   0.00000  Uiso   1.00
O178   O     0.64088   0.91526   0.00955   0.00000  Uiso   1.00
N179   N     0.84695   0.37919   0.15498   0.00000  Uiso   1.00
N180   N     0.65483   0.32214   0.68315   0.00000  Uiso   1.00
N181   N     0.69020   0.00727   0.96429   0.00000  Uiso   1.00
N182   N     0.78093   0.37981   0.22117   0.00000  Uiso   1.00
N183   N     0.58881   0.32276   0.74933   0.00000  Uiso   1.00
N184   N     0.62418   0.00789   0.03047   0.00000  Uiso   1.00
C185   C     0.27547   0.93217   0.84985   0.00000  Uiso   1.00
C186   C     0.27496   0.99646   0.82870   0.00000  Uiso   1.00
C187   C     0.30780   0.04932   0.86468   0.00000  Uiso   1.00
C188   C     0.30114   0.10367   0.83678   0.00000  Uiso   1.00
C189   C     0.30616   0.20329   0.81328   0.00000  Uiso   1.00
C190   C     0.28095   0.90155   0.76920   0.00000  Uiso   1.00
C191   C     0.31882   0.87462   0.75516   0.00000  Uiso   1.00
C192   C     0.31720   0.84908   0.67718   0.00000  Uiso   1.00
C193   C     0.33150   0.80132   0.56134   0.00000  Uiso   1.00
C194   C     0.22238   0.90020   0.87385   0.00000  Uiso   1.00
C195   C     0.21100   0.87212   0.94779   0.00000  Uiso   1.00
C196   C     0.16006   0.84542   0.95790   0.00000  Uiso   1.00
C197   C     0.08343   0.79556   0.00454   0.00000  Uiso   1.00
C198   C     0.20524   0.93467   0.73632   0.00000  Uiso   1.00
C199   C     0.23681   0.99781   0.76703   0.00000  Uiso   1.00
C200   C     0.23010   0.05209   0.73907   0.00000  Uiso   1.00
C201   C     0.26292   0.10503   0.77501   0.00000  Uiso   1.00
C202   C     0.24281   0.90291   0.70754   0.00000  Uiso   1.00
C203   C     0.24112   0.87739   0.62956   0.00000  Uiso   1.00
C204   C     0.27899   0.85044   0.61541   0.00000  Uiso   1.00
C205   C     0.18423   0.90156   0.81218   0.00000  Uiso   1.00
C206   C     0.13330   0.87489   0.82218   0.00000  Uiso   1.00
C207   C     0.12185   0.84678   0.89613   0.00000  Uiso   1.00
H208   H     0.30517   0.93110   0.89785   0.00000  Uiso   1.00
H209   H     0.33731   0.04825   0.91239   0.00000  Uiso   1.00
H210   H     0.34833   0.87357   0.80290   0.00000  Uiso   1.00
H211   H     0.24053   0.87108   0.99549   0.00000  Uiso   1.00
H212   H     0.35615   0.17873   0.90129   0.00000  Uiso   1.00
H213   H     0.37937   0.81040   0.67043   0.00000  Uiso   1.00
H214   H     0.15205   0.80512   0.07655   0.00000  Uiso   1.00
H215   H     0.17554   0.93573   0.68831   0.00000  Uiso   1.00
H216   H     0.20058   0.05313   0.69136   0.00000  Uiso   1.00
H217   H     0.21160   0.87845   0.58186   0.00000  Uiso   1.00
H218   H     0.10379   0.87595   0.77445   0.00000  Uiso   1.00
H219   H     0.24517   0.18269   0.72189   0.00000  Uiso   1.00
H220   H     0.26839   0.81435   0.49103   0.00000  Uiso   1.00
H221   H     0.04107   0.80908   0.89715   0.00000  Uiso   1.00
O222   O     0.31947   0.25786   0.81735   0.00000  Uiso   1.00
O223   O     0.34994   0.77461   0.51448   0.00000  Uiso   1.00
O224   O     0.05169   0.76770   0.04730   0.00000  Uiso   1.00
N225   N     0.32658   0.16355   0.85866   0.00000  Uiso   1.00
N226   N     0.34830   0.81919   0.64282   0.00000  Uiso   1.00
N227   N     0.13577   0.81424   0.02250   0.00000  Uiso   1.00
N228   N     0.26687   0.16568   0.76213   0.00000  Uiso   1.00
N229   N     0.28859   0.82132   0.54628   0.00000  Uiso   1.00
N230   N     0.07606   0.81637   0.92596   0.00000  Uiso   1.00
C231   C     0.84357   0.79616   0.23817   0.00000  Uiso   1.00
C232   C     0.89947   0.79919   0.23626   0.00000  Uiso   1.00
C233   C     0.93855   0.82986   0.29351   0.00000  Uiso   1.00
C234   C     0.98709   0.82713   0.28087   0.00000  Uiso   1.00
C235   C     0.07251   0.83672   0.28819   0.00000  Uiso   1.00
C236   C     0.81482   0.72899   0.23730   0.00000  Uiso   1.00
C237   C     0.78271   0.70062   0.29542   0.00000  Uiso   1.00
C238   C     0.75999   0.63880   0.28364   0.00000  Uiso   1.00
C239   C     0.71394   0.53940   0.29254   0.00000  Uiso   1.00
C240   C     0.82789   0.81962   0.15582   0.00000  Uiso   1.00
C241   C     0.80676   0.86744   0.14542   0.00000  Uiso   1.00
C242   C     0.79503   0.88191   0.06505   0.00000  Uiso   1.00
C243   C     0.76929   0.92323   0.94744   0.00000  Uiso   1.00
C244   C     0.86031   0.73680   0.11391   0.00000  Uiso   1.00
C245   C     0.90857   0.76695   0.16876   0.00000  Uiso   1.00
C246   C     0.95707   0.76417   0.15603   0.00000  Uiso   1.00
C247   C     0.99621   0.79483   0.21326   0.00000  Uiso   1.00
C248   C     0.82391   0.69674   0.16981   0.00000  Uiso   1.00
C249   C     0.80123   0.63494   0.15794   0.00000  Uiso   1.00
C250   C     0.76910   0.60649   0.21603   0.00000  Uiso   1.00
C251   C     0.83699   0.78737   0.08832   0.00000  Uiso   1.00
C252   C     0.82529   0.80176   0.00795   0.00000  Uiso   1.00
C253   C     0.80414   0.84961   0.99744   0.00000  Uiso   1.00
H254   H     0.83649   0.82126   0.29072   0.00000  Uiso   1.00
H255   H     0.93149   0.85480   0.34574   0.00000  Uiso   1.00
H256   H     0.77567   0.72559   0.34764   0.00000  Uiso   1.00
H257   H     0.79973   0.89239   0.19767   0.00000  Uiso   1.00
H258   H     0.04083   0.87774   0.37699   0.00000  Uiso   1.00
H259   H     0.71226   0.60530   0.38098   0.00000  Uiso   1.00
H260   H     0.76298   0.95702   0.06474   0.00000  Uiso   1.00
H261   H     0.86739   0.71169   0.06137   0.00000  Uiso   1.00
H262   H     0.96410   0.73922   0.10380   0.00000  Uiso   1.00
H263   H     0.80827   0.61001   0.10570   0.00000  Uiso   1.00
H264   H     0.83233   0.77680   0.95573   0.00000  Uiso   1.00
H265   H     0.06729   0.78393   0.18062   0.00000  Uiso   1.00
H266   H     0.73872   0.51149   0.18461   0.00000  Uiso   1.00
H267   H     0.78944   0.86321   0.86838   0.00000  Uiso   1.00
O268   O     0.11711   0.85090   0.31087   0.00000  Uiso   1.00
O269   O     0.68604   0.49348   0.31610   0.00000  Uiso   1.00
O270   O     0.75259   0.95493   0.90121   0.00000  Uiso   1.00
N271   N     0.03379   0.85190   0.32494   0.00000  Uiso   1.00
N272   N     0.72660   0.59718   0.32868   0.00000  Uiso   1.00
N273   N     0.77401   0.92600   0.03303   0.00000  Uiso   1.00
N274   N     0.04803   0.80142   0.21928   0.00000  Uiso   1.00
N275   N     0.74084   0.54670   0.22302   0.00000  Uiso   1.00
N276   N     0.78825   0.87552   0.92736   0.00000  Uiso   1.00
C277   C     0.59754   0.46887   0.88484   0.00000  Uiso   1.00
C278   C     0.56229   0.41428   0.92278   0.00000  Uiso   1.00
C279   C     0.51652   0.37814   0.88563   0.00000  Uiso   1.00
C280   C     0.48988   0.33034   0.93051   0.00000  Uiso   1.00
C281   C     0.43234   0.24726   0.97735   0.00000  Uiso   1.00
C282   C     0.64902   0.45616   0.88627   0.00000  Uiso   1.00
C283   C     0.67616   0.45523   0.81842   0.00000  Uiso   1.00
C284   C     0.72252   0.44269   0.83256   0.00000  Uiso   1.00
C285   C     0.79964   0.42466   0.82273   0.00000  Uiso   1.00
C286   C     0.60467   0.52206   0.94536   0.00000  Uiso   1.00
C287   C     0.59454   0.57655   0.92720   0.00000  Uiso   1.00
C288   C     0.60357   0.61951   0.99109   0.00000  Uiso   1.00
C289   C     0.61183   0.70381   0.07302   0.00000  Uiso   1.00
C290   C     0.63160   0.44828   0.03060   0.00000  Uiso   1.00
C291   C     0.58079   0.40310   0.00195   0.00000  Uiso   1.00
C292   C     0.55421   0.35535   0.04689   0.00000  Uiso   1.00
C293   C     0.50841   0.31914   0.00982   0.00000  Uiso   1.00
C294   C     0.66752   0.44497   0.96543   0.00000  Uiso   1.00
C295   C     0.71385   0.43244   0.97968   0.00000  Uiso   1.00
C296   C     0.74106   0.43148   0.91187   0.00000  Uiso   1.00
C297   C     0.62317   0.51087   0.02453   0.00000  Uiso   1.00
C298   C     0.63222   0.55376   0.08846   0.00000  Uiso   1.00
C299   C     0.62211   0.60830   0.07041   0.00000  Uiso   1.00
H300   H     0.58314   0.47758   0.82320   0.00000  Uiso   1.00
H301   H     0.50222   0.38681   0.82436   0.00000  Uiso   1.00
H302   H     0.66184   0.46389   0.75716   0.00000  Uiso   1.00
H303   H     0.58023   0.58519   0.86593   0.00000  Uiso   1.00
H304   H     0.42067   0.28121   0.86054   0.00000  Uiso   1.00
H305   H     0.75724   0.44377   0.71886   0.00000  Uiso   1.00
H306   H     0.58515   0.69956   0.94821   0.00000  Uiso   1.00
H307   H     0.64601   0.43957   0.09224   0.00000  Uiso   1.00
H308   H     0.56853   0.34670   0.10816   0.00000  Uiso   1.00
H309   H     0.72815   0.42378   0.04096   0.00000  Uiso   1.00
H310   H     0.64654   0.54509   0.14972   0.00000  Uiso   1.00
H311   H     0.47449   0.24866   0.09088   0.00000  Uiso   1.00
H312   H     0.81107   0.41122   0.94919   0.00000  Uiso   1.00
H313   H     0.63897   0.66701   0.17855   0.00000  Uiso   1.00
O314   O     0.39549   0.20452   0.98132   0.00000  Uiso   1.00
O315   O     0.83706   0.41780   0.79543   0.00000  Uiso   1.00
O316   O     0.61127   0.75339   0.09634   0.00000  Uiso   1.00
N317   N     0.44397   0.28630   0.91257   0.00000  Uiso   1.00
N318   N     0.75864   0.43828   0.78010   0.00000  Uiso   1.00
N319   N     0.59775   0.67743   0.99452   0.00000  Uiso   1.00
N320   N     0.47293   0.26879   0.03652   0.00000  Uiso   1.00
N321   N     0.78760   0.42076   0.90405   0.00000  Uiso   1.00
N322   N     0.62671   0.65991   0.11847   0.00000  Uiso   1.00
C323   C     0.09618   0.40195   0.51290   0.00000  Uiso   1.00
C324   C     0.07454   0.40428   0.42420   0.00000  Uiso   1.00
C325   C     0.02515   0.40437   0.39941   0.00000  Uiso   1.00
C326   C     0.01278   0.40669   0.31541   0.00000  Uiso   1.00
C327   C     0.97373   0.41000   0.18637   0.00000  Uiso   1.00
C328   C     0.14232   0.45730   0.52652   0.00000  Uiso   1.00
C329   C     0.14993   0.50196   0.58776   0.00000  Uiso   1.00
C330   C     0.19462   0.54891   0.58989   0.00000  Uiso   1.00
C331   C     0.26082   0.63452   0.61975   0.00000  Uiso   1.00
C332   C     0.11681   0.34700   0.51596   0.00000  Uiso   1.00
C333   C     0.10299   0.29892   0.56833   0.00000  Uiso   1.00
C334   C     0.12621   0.25301   0.56158   0.00000  Uiso   1.00
C335   C     0.15281   0.16736   0.57503   0.00000  Uiso   1.00
C336   C     0.16202   0.40591   0.40781   0.00000  Uiso   1.00
C337   C     0.11030   0.40643   0.36713   0.00000  Uiso   1.00
C338   C     0.09799   0.40875   0.28314   0.00000  Uiso   1.00
C339   C     0.04860   0.40884   0.25822   0.00000  Uiso   1.00
C340   C     0.17808   0.45945   0.46944   0.00000  Uiso   1.00
C341   C     0.22277   0.50634   0.47149   0.00000  Uiso   1.00
C342   C     0.23044   0.55107   0.53271   0.00000  Uiso   1.00
C343   C     0.15257   0.34915   0.45887   0.00000  Uiso   1.00
C344   C     0.17582   0.30331   0.45205   0.00000  Uiso   1.00
C345   C     0.16203   0.25517   0.50440   0.00000  Uiso   1.00
H346   H     0.06835   0.40028   0.55734   0.00000  Uiso   1.00
H347   H     0.99749   0.40271   0.44360   0.00000  Uiso   1.00
H348   H     0.12225   0.50028   0.63193   0.00000  Uiso   1.00
H349   H     0.07532   0.29728   0.61249   0.00000  Uiso   1.00
H350   H     0.93471   0.40637   0.29233   0.00000  Uiso   1.00
H351   H     0.19778   0.61210   0.68945   0.00000  Uiso   1.00
H352   H     0.09881   0.18402   0.64846   0.00000  Uiso   1.00
H353   H     0.18986   0.40759   0.36337   0.00000  Uiso   1.00
H354   H     0.12567   0.41041   0.23898   0.00000  Uiso   1.00
H355   H     0.25043   0.50799   0.42731   0.00000  Uiso   1.00
H356   H     0.20349   0.30498   0.40787   0.00000  Uiso   1.00
H357   H     0.03875   0.41263   0.12625   0.00000  Uiso   1.00
H358   H     0.30182   0.61836   0.52337   0.00000  Uiso   1.00
H359   H     0.20284   0.19028   0.48239   0.00000  Uiso   1.00
O360   O     0.94232   0.41124   0.13097   0.00000  Uiso   1.00
O361   O     0.28746   0.68115   0.65198   0.00000  Uiso   1.00
O362   O     0.15760   0.11952   0.59821   0.00000  Uiso   1.00
N363   N     0.96800   0.40744   0.27032   0.00000  Uiso   1.00
N364   N     0.21396   0.59979   0.64159   0.00000  Uiso   1.00
N365   N     0.12143   0.19958   0.60329   0.00000  Uiso   1.00
N366   N     0.02398   0.41081   0.18095   0.00000  Uiso   1.00
N367   N     0.26994   0.60316   0.55222   0.00000  Uiso   1.00
N368   N     0.17741   0.20295   0.51392   0.00000  Uiso   1.00
C369   C     0.34564   0.99789   0.44024   0.00000  Uiso   1.00
C370   C     0.29223   0.99899   0.45689   0.00000  Uiso   1.00
C371   C     0.24741   0.95721   0.42602   0.00000  Uiso   1.00
C372   C     0.20243   0.96613   0.44845   0.00000  Uiso   1.00
C373   C     0.11951   0.96037   0.46651   0.00000  Uiso   1.00
C374   C     0.37406   0.99744   0.52446   0.00000  Uiso   1.00
C375   C     0.39803   0.95436   0.55040   0.00000  Uiso   1.00
C376   C     0.42194   0.96199   0.62972   0.00000  Uiso   1.00
C377   C     0.46610   0.95385   0.75266   0.00000  Uiso   1.00
C378   C     0.37053   0.05901   0.40431   0.00000  Uiso   1.00
C379   C     0.39154   0.06771   0.32923   0.00000  Uiso   1.00
C380   C     0.41249   0.12718   0.30739   0.00000  Uiso   1.00
C381   C     0.45115   0.21464   0.24377   0.00000  Uiso   1.00
C382   C     0.34548   0.08804   0.53498   0.00000  Uiso   1.00
C383   C     0.29215   0.04795   0.50835   0.00000  Uiso   1.00
C384   C     0.24723   0.05694   0.53083   0.00000  Uiso   1.00
C385   C     0.20234   0.01518   0.50000   0.00000  Uiso   1.00
C386   C     0.37397   0.04640   0.57592   0.00000  Uiso   1.00
C387   C     0.39786   0.05410   0.65522   0.00000  Uiso   1.00
C388   C     0.42186   0.01104   0.68127   0.00000  Uiso   1.00
C389   C     0.37044   0.10798   0.45576   0.00000  Uiso   1.00
C390   C     0.39136   0.16744   0.43404   0.00000  Uiso   1.00
C391   C     0.41240   0.17623   0.35894   0.00000  Uiso   1.00
H392   H     0.34571   0.95977   0.40018   0.00000  Uiso   1.00
H393   H     0.24749   0.91932   0.38620   0.00000  Uiso   1.00
H394   H     0.39810   0.91648   0.51056   0.00000  Uiso   1.00
H395   H     0.39160   0.02981   0.28942   0.00000  Uiso   1.00
H396   H     0.13855   0.89605   0.39342   0.00000  Uiso   1.00
H397   H     0.45613   0.89008   0.65563   0.00000  Uiso   1.00
H398   H     0.44244   0.12905   0.18931   0.00000  Uiso   1.00
H399   H     0.34542   0.12616   0.57505   0.00000  Uiso   1.00
H400   H     0.24718   0.09484   0.57066   0.00000  Uiso   1.00
H401   H     0.39779   0.09200   0.69502   0.00000  Uiso   1.00
H402   H     0.39129   0.20532   0.47388   0.00000  Uiso   1.00
H403   H     0.13830   0.03850   0.54313   0.00000  Uiso   1.00
H404   H     0.45588   0.03253   0.80534   0.00000  Uiso   1.00
H405   H     0.44218   0.27151   0.33903   0.00000  Uiso   1.00
O406   O     0.07380   0.94366   0.46226   0.00000  Uiso   1.00
O407   O     0.49047   0.93583   0.80626   0.00000  Uiso   1.00
O408   O     0.47250   0.24936   0.19446   0.00000  Uiso   1.00
N409   N     0.15197   0.93388   0.42924   0.00000  Uiso   1.00
N410   N     0.44889   0.92829   0.67440   0.00000  Uiso   1.00
N411   N     0.43610   0.15171   0.23844   0.00000  Uiso   1.00
N412   N     0.15184   0.01054   0.50980   0.00000  Uiso   1.00
N413   N     0.44875   0.00495   0.75496   0.00000  Uiso   1.00
N414   N     0.43596   0.22837   0.31900   0.00000  Uiso   1.00
C415   C     0.91065   0.52089   0.01696   0.00000  Uiso   1.00
C416   C     0.93174   0.48666   0.95484   0.00000  Uiso   1.00
C417   C     0.91795   0.42423   0.94228   0.00000  Uiso   1.00
C418   C     0.94162   0.40172   0.88256   0.00000  Uiso   1.00
C419   C     0.96889   0.34269   0.79305   0.00000  Uiso   1.00
C420   C     0.95645   0.55907   0.07111   0.00000  Uiso   1.00
C421   C     0.96344   0.55753   0.15630   0.00000  Uiso   1.00
C422   C     0.00791   0.59598   0.19444   0.00000  Uiso   1.00
C423   C     0.07352   0.64940   0.28544   0.00000  Uiso   1.00
C424   C     0.88937   0.56563   0.96757   0.00000  Uiso   1.00
C425   C     0.83996   0.56961   0.96572   0.00000  Uiso   1.00
C426   C     0.82796   0.61360   0.91671   0.00000  Uiso   1.00
C427   C     0.78942   0.67720   0.84695   0.00000  Uiso   1.00
C428   C     0.97720   0.59193   0.93324   0.00000  Uiso   1.00
C429   C     0.96789   0.52525   0.90937   0.00000  Uiso   1.00
C430   C     0.99158   0.50283   0.84965   0.00000  Uiso   1.00
C431   C     0.97783   0.44037   0.83700   0.00000  Uiso   1.00
C432   C     0.99260   0.59766   0.02563   0.00000  Uiso   1.00
C433   C     0.03707   0.63612   0.06366   0.00000  Uiso   1.00
C434   C     0.04412   0.63463   0.14889   0.00000  Uiso   1.00
C435   C     0.92552   0.60422   0.92209   0.00000  Uiso   1.00
C436   C     0.91359   0.64821   0.87308   0.00000  Uiso   1.00
C437   C     0.86417   0.65225   0.87115   0.00000  Uiso   1.00
H438   H     0.88251   0.49086   0.05237   0.00000  Uiso   1.00
H439   H     0.88998   0.39438   0.97749   0.00000  Uiso   1.00
H440   H     0.93546   0.52767   0.19147   0.00000  Uiso   1.00
H441   H     0.81200   0.53975   0.00092   0.00000  Uiso   1.00
H442   H     0.91422   0.30444   0.87444   0.00000  Uiso   1.00
H443   H     0.01010   0.58549   0.32563   0.00000  Uiso   1.00
H444   H     0.74976   0.61097   0.92382   0.00000  Uiso   1.00
H445   H     0.00534   0.62198   0.89783   0.00000  Uiso   1.00
H446   H     0.01955   0.53270   0.81446   0.00000  Uiso   1.00
H447   H     0.06503   0.66598   0.02845   0.00000  Uiso   1.00
H448   H     0.94157   0.67806   0.83790   0.00000  Uiso   1.00
H449   H     0.01938   0.41670   0.74212   0.00000  Uiso   1.00
H450   H     0.11526   0.69775   0.19332   0.00000  Uiso   1.00
H451   H     0.85493   0.72322   0.79150   0.00000  Uiso   1.00
O452   O     0.97394   0.29947   0.75625   0.00000  Uiso   1.00
O453   O     0.09973   0.66821   0.34820   0.00000  Uiso   1.00
O454   O     0.75818   0.70162   0.82102   0.00000  Uiso   1.00
N455   N     0.93701   0.34312   0.85473   0.00000  Uiso   1.00
N456   N     0.02666   0.60587   0.27657   0.00000  Uiso   1.00
N457   N     0.78327   0.62970   0.90092   0.00000  Uiso   1.00
N458   N     0.99360   0.40352   0.78353   0.00000  Uiso   1.00
N459   N     0.08325   0.66628   0.20537   0.00000  Uiso   1.00
N460   N     0.83986   0.69010   0.82972   0.00000  Uiso   1.00
C461   C     0.44604   0.96299   0.10020   0.00000  Uiso   1.00
C462   C     0.47460   0.92071   0.06837   0.00000  Uiso   1.00
C463   C     0.47083   0.89908   0.98770   0.00000  Uiso   1.00
C464   C     0.50008   0.86087   0.97101   0.00000  Uiso   1.00
C465   C     0.53956   0.79763   0.91218   0.00000  Uiso   1.00
C466   C     0.41722   0.93041   0.17038   0.00000  Uiso   1.00
C467   C     0.36521   0.91693   0.17550   0.00000  Uiso   1.00
C468   C     0.34616   0.88689   0.24469   0.00000  Uiso   1.00
C469   C     0.29657   0.83874   0.34427   0.00000  Uiso   1.00
C470   C     0.48648   0.01771   0.13984   0.00000  Uiso   1.00
C471   C     0.49269   0.07765   0.11930   0.00000  Uiso   1.00
C472   C     0.53194   0.12111   0.16279   0.00000  Uiso   1.00
C473   C     0.58988   0.20852   0.21495   0.00000  Uiso   1.00
C474   C     0.50468   0.93362   0.21400   0.00000  Uiso   1.00
C475   C     0.50645   0.90476   0.13018   0.00000  Uiso   1.00
C476   C     0.53572   0.86658   0.11360   0.00000  Uiso   1.00
C477   C     0.53199   0.84489   0.03292   0.00000  Uiso   1.00
C478   C     0.44907   0.91446   0.23219   0.00000  Uiso   1.00
C479   C     0.43009   0.88443   0.30139   0.00000  Uiso   1.00
C480   C     0.37807   0.87091   0.30661   0.00000  Uiso   1.00
C481   C     0.51833   0.00176   0.20165   0.00000  Uiso   1.00
C482   C     0.55758   0.04515   0.24519   0.00000  Uiso   1.00
C483   C     0.56385   0.10513   0.22471   0.00000  Uiso   1.00
H484   H     0.42124   0.97541   0.05209   0.00000  Uiso   1.00
H485   H     0.44617   0.91143   0.93989   0.00000  Uiso   1.00
H486   H     0.34057   0.92929   0.12766   0.00000  Uiso   1.00
H487   H     0.46803   0.08997   0.07146   0.00000  Uiso   1.00
H488   H     0.48785   0.83344   0.84276   0.00000  Uiso   1.00
H489   H     0.26519   0.87111   0.23869   0.00000  Uiso   1.00
H490   H     0.53396   0.20996   0.12020   0.00000  Uiso   1.00
H491   H     0.52948   0.92120   0.26212   0.00000  Uiso   1.00
H492   H     0.56036   0.85424   0.16144   0.00000  Uiso   1.00
H493   H     0.45476   0.87210   0.34921   0.00000  Uiso   1.00
H494   H     0.58222   0.03278   0.29302   0.00000  Uiso   1.00
H495   H     0.58053   0.78702   0.02258   0.00000  Uiso   1.00
H496   H     0.35786   0.82470   0.41852   0.00000  Uiso   1.00
H497   H     0.62664   0.16354   0.30002   0.00000  Uiso   1.00
O498   O     0.55254   0.76714   0.86266   0.00000  Uiso   1.00
O499   O     0.26041   0.81658   0.38212   0.00000  Uiso   1.00
O500   O     0.61304   0.26113   0.22664   0.00000  Uiso   1.00
N501   N     0.50543   0.83171   0.89889   0.00000  Uiso   1.00
N502   N     0.29725   0.86693   0.26906   0.00000  Uiso   1.00
N503   N     0.54853   0.18372   0.15829   0.00000  Uiso   1.00
N504   N     0.55530   0.80673   0.99565   0.00000  Uiso   1.00
N505   N     0.34712   0.84195   0.36582   0.00000  Uiso   1.00
N506   N     0.59840   0.15874   0.25505   0.00000  Uiso   1.00
C507   C     0.86031   0.96673   0.55644   0.00000  Uiso   1.00
C508   C     0.80397   0.95188   0.56929   0.00000  Uiso   1.00
C509   C     0.76420   0.92304   0.51205   0.00000  Uiso   1.00
C510   C     0.71535   0.91362   0.53561   0.00000  Uiso   1.00
C511   C     0.62919   0.88775   0.54367   0.00000  Uiso   1.00
C512   C     0.88192   0.03490   0.57227   0.00000  Uiso   1.00
C513   C     0.90770   0.07585   0.51753   0.00000  Uiso   1.00
C514   C     0.92446   0.13632   0.54361   0.00000  Uiso   1.00
C515   C     0.95936   0.23933   0.55632   0.00000  Uiso   1.00
C516   C     0.88405   0.93709   0.62620   0.00000  Uiso   1.00
C517   C     0.91163   0.89581   0.61682   0.00000  Uiso   1.00
C518   C     0.93020   0.87393   0.68832   0.00000  Uiso   1.00
C519   C     0.96839   0.82506   0.78477   0.00000  Uiso   1.00
C520   C     0.84427   0.00130   0.70008   0.00000  Uiso   1.00
C521   C     0.79526   0.97066   0.64731   0.00000  Uiso   1.00
C522   C     0.74645   0.96129   0.67097   0.00000  Uiso   1.00
C523   C     0.70662   0.93243   0.61377   0.00000  Uiso   1.00
C524   C     0.87321   0.05368   0.65028   0.00000  Uiso   1.00
C525   C     0.88995   0.11410   0.67645   0.00000  Uiso   1.00
C526   C     0.91574   0.15514   0.62177   0.00000  Uiso   1.00
C527   C     0.87534   0.95586   0.70422   0.00000  Uiso   1.00
C528   C     0.89387   0.93405   0.77574   0.00000  Uiso   1.00
C529   C     0.92147   0.89274   0.76648   0.00000  Uiso   1.00
H530   H     0.86710   0.95211   0.49570   0.00000  Uiso   1.00
H531   H     0.77096   0.90852   0.45167   0.00000  Uiso   1.00
H532   H     0.91444   0.06131   0.45717   0.00000  Uiso   1.00
H533   H     0.91836   0.88129   0.55644   0.00000  Uiso   1.00
H534   H     0.66053   0.86849   0.43726   0.00000  Uiso   1.00
H535   H     0.96307   0.19065   0.44884   0.00000  Uiso   1.00
H536   H     0.97135   0.81104   0.65819   0.00000  Uiso   1.00
H537   H     0.83749   0.01592   0.76082   0.00000  Uiso   1.00
H538   H     0.73972   0.97582   0.73135   0.00000  Uiso   1.00
H539   H     0.88320   0.12862   0.73683   0.00000  Uiso   1.00
H540   H     0.88712   0.94859   0.83611   0.00000  Uiso   1.00
H541   H     0.63518   0.92312   0.66425   0.00000  Uiso   1.00
H542   H     0.93772   0.24528   0.67583   0.00000  Uiso   1.00
H543   H     0.94600   0.86567   0.88517   0.00000  Uiso   1.00
O544   O     0.58408   0.86830   0.52656   0.00000  Uiso   1.00
O545   O     0.98101   0.29096   0.54177   0.00000  Uiso   1.00
O546   O     0.99186   0.79292   0.81642   0.00000  Uiso   1.00
N547   N     0.66798   0.88684   0.49473   0.00000  Uiso   1.00
N548   N     0.95083   0.18804   0.50556   0.00000  Uiso   1.00
N549   N     0.95858   0.83315   0.70127   0.00000  Uiso   1.00
N550   N     0.65434   0.91623   0.61687   0.00000  Uiso   1.00
N551   N     0.93719   0.21744   0.62770   0.00000  Uiso   1.00
N552   N     0.94494   0.86255   0.82342   0.00000  Uiso   1.00
