data_job_01409
_audit_creation_date              2018-12-19
_audit_creation_method            'Materials Studio'
_symmetry_space_group_name_H-M    'P1'
_symmetry_Int_Tables_number       1
_symmetry_cell_setting            triclinic
loop_
_symmetry_equiv_pos_as_xyz
  x,y,z
_cell_length_a                    16.6766
_cell_length_b                    13.4063
_cell_length_c                    23.9407
_cell_angle_alpha                 90.0000
_cell_angle_beta                  90.0000
_cell_angle_gamma                 90.0000
loop_
_atom_site_label
_atom_site_type_symbol
_atom_site_fract_x
_atom_site_fract_y
_atom_site_fract_z
_atom_site_U_iso_or_equiv
_atom_site_adp_type
_atom_site_occupancy
C1     C     0.28710   0.14915   0.82310   0.00000  Uiso   1.00
C2     C     0.23770   0.12214   0.77168   0.00000  Uiso   1.00
C3     C     0.21833   0.18624   0.72822   0.00000  Uiso   1.00
C4     C     0.17257   0.14724   0.68497   0.00000  Uiso   1.00
C5     C     0.09969   0.12045   0.60510   0.00000  Uiso   1.00
C6     C     0.23474   0.12418   0.87342   0.00000  Uiso   1.00
C7     C     0.21290   0.19001   0.91549   0.00000  Uiso   1.00
C8     C     0.16465   0.15272   0.95789   0.00000  Uiso   1.00
C9     C     0.08723   0.12910   0.03599   0.00000  Uiso   1.00
C10    C     0.35676   0.07552   0.82456   0.00000  Uiso   1.00
C11    C     0.43753   0.10043   0.82556   0.00000  Uiso   1.00
C12    C     0.49202   0.02216   0.82684   0.00000  Uiso   1.00
C13    C     0.60407   0.92298   0.82908   0.00000  Uiso   1.00
C14    C     0.24027   0.96586   0.82360   0.00000  Uiso   1.00
C15    C     0.21226   0.02258   0.77196   0.00000  Uiso   1.00
C16    C     0.16652   0.98346   0.72877   0.00000  Uiso   1.00
C17    C     0.14709   0.04750   0.68524   0.00000  Uiso   1.00
C18    C     0.20930   0.02464   0.87369   0.00000  Uiso   1.00
C19    C     0.16108   0.98723   0.91604   0.00000  Uiso   1.00
C20    C     0.13917   0.05299   0.95817   0.00000  Uiso   1.00
C21    C     0.33133   0.97596   0.82483   0.00000  Uiso   1.00
C22    C     0.38571   0.89764   0.82611   0.00000  Uiso   1.00
C23    C     0.46654   0.92243   0.82712   0.00000  Uiso   1.00
H24    H     0.30690   0.22665   0.82290   0.00000  Uiso   1.00
H25    H     0.23802   0.26329   0.72802   0.00000  Uiso   1.00
H26    H     0.23259   0.26705   0.91527   0.00000  Uiso   1.00
H27    H     0.45719   0.17747   0.82535   0.00000  Uiso   1.00
H28    H     0.15041   0.26001   0.62297   0.00000  Uiso   1.00
H29    H     0.13900   0.26793   0.01780   0.00000  Uiso   1.00
H30    H     0.61259   0.07905   0.82820   0.00000  Uiso   1.00
H31    H     0.22046   0.88835   0.82382   0.00000  Uiso   1.00
H32    H     0.14684   0.90642   0.72899   0.00000  Uiso   1.00
H33    H     0.14142   0.91019   0.91624   0.00000  Uiso   1.00
H34    H     0.36601   0.82061   0.82632   0.00000  Uiso   1.00
H35    H     0.07641   0.97036   0.62375   0.00000  Uiso   1.00
H36    H     0.06499   0.97829   0.01859   0.00000  Uiso   1.00
H37    H     0.53859   0.78941   0.82898   0.00000  Uiso   1.00
O38    O     0.06651   0.13318   0.56097   0.00000  Uiso   1.00
O39    O     0.05155   0.14358   0.07899   0.00000  Uiso   1.00
O40    O     0.67289   0.89577   0.83022   0.00000  Uiso   1.00
N41    N     0.14311   0.18935   0.63616   0.00000  Uiso   1.00
N42    N     0.13243   0.19677   0.00530   0.00000  Uiso   1.00
N43    N     0.57520   0.02018   0.82805   0.00000  Uiso   1.00
N44    N     0.10329   0.03350   0.63658   0.00000  Uiso   1.00
N45    N     0.09261   0.04092   0.00573   0.00000  Uiso   1.00
N46    N     0.53538   0.86433   0.82847   0.00000  Uiso   1.00
C47    C     0.21290   0.35085   0.32310   0.00000  Uiso   1.00
C48    C     0.26230   0.37786   0.27168   0.00000  Uiso   1.00
C49    C     0.28167   0.31376   0.22822   0.00000  Uiso   1.00
C50    C     0.32743   0.35276   0.18497   0.00000  Uiso   1.00
C51    C     0.40031   0.37955   0.10510   0.00000  Uiso   1.00
C52    C     0.26526   0.37582   0.37342   0.00000  Uiso   1.00
C53    C     0.28710   0.30999   0.41549   0.00000  Uiso   1.00
C54    C     0.33535   0.34728   0.45789   0.00000  Uiso   1.00
C55    C     0.41277   0.37090   0.53599   0.00000  Uiso   1.00
C56    C     0.14324   0.42448   0.32456   0.00000  Uiso   1.00
C57    C     0.06247   0.39957   0.32556   0.00000  Uiso   1.00
C58    C     0.00798   0.47784   0.32684   0.00000  Uiso   1.00
C59    C     0.89593   0.57702   0.32908   0.00000  Uiso   1.00
C60    C     0.25973   0.53414   0.32360   0.00000  Uiso   1.00
C61    C     0.28774   0.47742   0.27196   0.00000  Uiso   1.00
C62    C     0.33348   0.51654   0.22877   0.00000  Uiso   1.00
C63    C     0.35291   0.45250   0.18524   0.00000  Uiso   1.00
C64    C     0.29070   0.47536   0.37369   0.00000  Uiso   1.00
C65    C     0.33892   0.51277   0.41604   0.00000  Uiso   1.00
C66    C     0.36083   0.44701   0.45817   0.00000  Uiso   1.00
C67    C     0.16867   0.52404   0.32483   0.00000  Uiso   1.00
C68    C     0.11429   0.60236   0.32611   0.00000  Uiso   1.00
C69    C     0.03346   0.57757   0.32712   0.00000  Uiso   1.00
H70    H     0.19310   0.27335   0.32290   0.00000  Uiso   1.00
H71    H     0.26198   0.23671   0.22802   0.00000  Uiso   1.00
H72    H     0.26741   0.23295   0.41527   0.00000  Uiso   1.00
H73    H     0.04281   0.32253   0.32535   0.00000  Uiso   1.00
H74    H     0.34959   0.23999   0.12297   0.00000  Uiso   1.00
H75    H     0.36100   0.23207   0.51780   0.00000  Uiso   1.00
H76    H     0.88741   0.42095   0.32820   0.00000  Uiso   1.00
H77    H     0.27954   0.61165   0.32382   0.00000  Uiso   1.00
H78    H     0.35316   0.59358   0.22899   0.00000  Uiso   1.00
H79    H     0.35858   0.58981   0.41624   0.00000  Uiso   1.00
H80    H     0.13399   0.67939   0.32632   0.00000  Uiso   1.00
H81    H     0.42359   0.52964   0.12375   0.00000  Uiso   1.00
H82    H     0.43501   0.52171   0.51859   0.00000  Uiso   1.00
H83    H     0.96141   0.71059   0.32898   0.00000  Uiso   1.00
O84    O     0.43349   0.36682   0.06097   0.00000  Uiso   1.00
O85    O     0.44845   0.35642   0.57899   0.00000  Uiso   1.00
O86    O     0.82711   0.60423   0.33022   0.00000  Uiso   1.00
N87    N     0.35689   0.31065   0.13616   0.00000  Uiso   1.00
N88    N     0.36757   0.30323   0.50530   0.00000  Uiso   1.00
N89    N     0.92480   0.47982   0.32805   0.00000  Uiso   1.00
N90    N     0.39671   0.46650   0.13658   0.00000  Uiso   1.00
N91    N     0.40739   0.45908   0.50573   0.00000  Uiso   1.00
N92    N     0.96462   0.63567   0.32847   0.00000  Uiso   1.00
C93    C     0.71290   0.14915   0.67690   0.00000  Uiso   1.00
C94    C     0.76230   0.12214   0.72832   0.00000  Uiso   1.00
C95    C     0.78167   0.18624   0.77178   0.00000  Uiso   1.00
C96    C     0.82743   0.14724   0.81503   0.00000  Uiso   1.00
C97    C     0.90031   0.12045   0.89490   0.00000  Uiso   1.00
C98    C     0.76526   0.12418   0.62658   0.00000  Uiso   1.00
C99    C     0.78710   0.19001   0.58451   0.00000  Uiso   1.00
C100   C     0.83535   0.15272   0.54211   0.00000  Uiso   1.00
C101   C     0.91277   0.12910   0.46401   0.00000  Uiso   1.00
C102   C     0.64324   0.07552   0.67544   0.00000  Uiso   1.00
C103   C     0.56247   0.10043   0.67444   0.00000  Uiso   1.00
C104   C     0.50798   0.02216   0.67316   0.00000  Uiso   1.00
C105   C     0.39593   0.92298   0.67092   0.00000  Uiso   1.00
C106   C     0.75973   0.96586   0.67640   0.00000  Uiso   1.00
C107   C     0.78774   0.02258   0.72804   0.00000  Uiso   1.00
C108   C     0.83348   0.98346   0.77123   0.00000  Uiso   1.00
C109   C     0.85291   0.04750   0.81476   0.00000  Uiso   1.00
C110   C     0.79070   0.02464   0.62631   0.00000  Uiso   1.00
C111   C     0.83892   0.98723   0.58396   0.00000  Uiso   1.00
C112   C     0.86083   0.05299   0.54183   0.00000  Uiso   1.00
C113   C     0.66867   0.97596   0.67517   0.00000  Uiso   1.00
C114   C     0.61429   0.89764   0.67389   0.00000  Uiso   1.00
C115   C     0.53346   0.92243   0.67288   0.00000  Uiso   1.00
H116   H     0.69310   0.22665   0.67710   0.00000  Uiso   1.00
H117   H     0.76198   0.26329   0.77198   0.00000  Uiso   1.00
H118   H     0.76741   0.26705   0.58473   0.00000  Uiso   1.00
H119   H     0.54281   0.17747   0.67465   0.00000  Uiso   1.00
H120   H     0.84959   0.26001   0.87703   0.00000  Uiso   1.00
H121   H     0.86100   0.26793   0.48220   0.00000  Uiso   1.00
H122   H     0.38741   0.07905   0.67180   0.00000  Uiso   1.00
H123   H     0.77954   0.88835   0.67618   0.00000  Uiso   1.00
H124   H     0.85316   0.90642   0.77101   0.00000  Uiso   1.00
H125   H     0.85858   0.91019   0.58376   0.00000  Uiso   1.00
H126   H     0.63399   0.82061   0.67368   0.00000  Uiso   1.00
H127   H     0.92359   0.97036   0.87625   0.00000  Uiso   1.00
H128   H     0.93501   0.97829   0.48141   0.00000  Uiso   1.00
H129   H     0.46141   0.78941   0.67102   0.00000  Uiso   1.00
O130   O     0.93349   0.13318   0.93903   0.00000  Uiso   1.00
O131   O     0.94845   0.14358   0.42101   0.00000  Uiso   1.00
O132   O     0.32711   0.89577   0.66978   0.00000  Uiso   1.00
N133   N     0.85689   0.18935   0.86384   0.00000  Uiso   1.00
N134   N     0.86757   0.19677   0.49470   0.00000  Uiso   1.00
N135   N     0.42480   0.02018   0.67195   0.00000  Uiso   1.00
N136   N     0.89671   0.03350   0.86342   0.00000  Uiso   1.00
N137   N     0.90739   0.04092   0.49427   0.00000  Uiso   1.00
N138   N     0.46462   0.86433   0.67153   0.00000  Uiso   1.00
C139   C     0.78710   0.35085   0.17690   0.00000  Uiso   1.00
C140   C     0.73770   0.37786   0.22832   0.00000  Uiso   1.00
C141   C     0.71833   0.31376   0.27178   0.00000  Uiso   1.00
C142   C     0.67257   0.35276   0.31503   0.00000  Uiso   1.00
C143   C     0.59969   0.37955   0.39490   0.00000  Uiso   1.00
C144   C     0.73474   0.37582   0.12658   0.00000  Uiso   1.00
C145   C     0.71290   0.30999   0.08451   0.00000  Uiso   1.00
C146   C     0.66465   0.34728   0.04211   0.00000  Uiso   1.00
C147   C     0.58723   0.37090   0.96401   0.00000  Uiso   1.00
C148   C     0.85676   0.42448   0.17544   0.00000  Uiso   1.00
C149   C     0.93753   0.39957   0.17444   0.00000  Uiso   1.00
C150   C     0.99202   0.47784   0.17316   0.00000  Uiso   1.00
C151   C     0.10407   0.57702   0.17092   0.00000  Uiso   1.00
C152   C     0.74027   0.53414   0.17640   0.00000  Uiso   1.00
C153   C     0.71226   0.47742   0.22804   0.00000  Uiso   1.00
C154   C     0.66652   0.51654   0.27123   0.00000  Uiso   1.00
C155   C     0.64709   0.45250   0.31476   0.00000  Uiso   1.00
C156   C     0.70930   0.47536   0.12631   0.00000  Uiso   1.00
C157   C     0.66108   0.51277   0.08396   0.00000  Uiso   1.00
C158   C     0.63917   0.44701   0.04183   0.00000  Uiso   1.00
C159   C     0.83133   0.52404   0.17517   0.00000  Uiso   1.00
C160   C     0.88571   0.60236   0.17389   0.00000  Uiso   1.00
C161   C     0.96654   0.57757   0.17288   0.00000  Uiso   1.00
H162   H     0.80690   0.27335   0.17710   0.00000  Uiso   1.00
H163   H     0.73802   0.23671   0.27198   0.00000  Uiso   1.00
H164   H     0.73259   0.23295   0.08473   0.00000  Uiso   1.00
H165   H     0.95719   0.32253   0.17465   0.00000  Uiso   1.00
H166   H     0.65041   0.23999   0.37703   0.00000  Uiso   1.00
H167   H     0.63900   0.23207   0.98220   0.00000  Uiso   1.00
H168   H     0.11259   0.42095   0.17180   0.00000  Uiso   1.00
H169   H     0.72046   0.61165   0.17618   0.00000  Uiso   1.00
H170   H     0.64684   0.59358   0.27101   0.00000  Uiso   1.00
H171   H     0.64142   0.58981   0.08376   0.00000  Uiso   1.00
H172   H     0.86601   0.67939   0.17368   0.00000  Uiso   1.00
H173   H     0.57641   0.52964   0.37625   0.00000  Uiso   1.00
H174   H     0.56499   0.52171   0.98141   0.00000  Uiso   1.00
H175   H     0.03859   0.71059   0.17102   0.00000  Uiso   1.00
O176   O     0.56651   0.36682   0.43903   0.00000  Uiso   1.00
O177   O     0.55155   0.35642   0.92101   0.00000  Uiso   1.00
O178   O     0.17289   0.60423   0.16978   0.00000  Uiso   1.00
N179   N     0.64311   0.31065   0.36384   0.00000  Uiso   1.00
N180   N     0.63243   0.30323   0.99470   0.00000  Uiso   1.00
N181   N     0.07520   0.47982   0.17195   0.00000  Uiso   1.00
N182   N     0.60329   0.46650   0.36342   0.00000  Uiso   1.00
N183   N     0.59261   0.45908   0.99427   0.00000  Uiso   1.00
N184   N     0.03538   0.63567   0.17153   0.00000  Uiso   1.00
C185   C     0.71290   0.85085   0.17690   0.00000  Uiso   1.00
C186   C     0.76230   0.87786   0.22832   0.00000  Uiso   1.00
C187   C     0.78167   0.81376   0.27178   0.00000  Uiso   1.00
C188   C     0.82743   0.85276   0.31503   0.00000  Uiso   1.00
C189   C     0.90031   0.87955   0.39490   0.00000  Uiso   1.00
C190   C     0.76526   0.87582   0.12658   0.00000  Uiso   1.00
C191   C     0.78710   0.80999   0.08451   0.00000  Uiso   1.00
C192   C     0.83535   0.84728   0.04211   0.00000  Uiso   1.00
C193   C     0.91277   0.87090   0.96401   0.00000  Uiso   1.00
C194   C     0.64324   0.92448   0.17544   0.00000  Uiso   1.00
C195   C     0.56247   0.89957   0.17444   0.00000  Uiso   1.00
C196   C     0.50798   0.97784   0.17316   0.00000  Uiso   1.00
C197   C     0.39593   0.07702   0.17092   0.00000  Uiso   1.00
C198   C     0.75973   0.03414   0.17640   0.00000  Uiso   1.00
C199   C     0.78774   0.97742   0.22804   0.00000  Uiso   1.00
C200   C     0.83348   0.01654   0.27123   0.00000  Uiso   1.00
C201   C     0.85291   0.95250   0.31476   0.00000  Uiso   1.00
C202   C     0.79070   0.97536   0.12631   0.00000  Uiso   1.00
C203   C     0.83892   0.01277   0.08396   0.00000  Uiso   1.00
C204   C     0.86083   0.94701   0.04183   0.00000  Uiso   1.00
C205   C     0.66867   0.02404   0.17517   0.00000  Uiso   1.00
C206   C     0.61429   0.10236   0.17389   0.00000  Uiso   1.00
C207   C     0.53346   0.07757   0.17288   0.00000  Uiso   1.00
H208   H     0.69310   0.77335   0.17710   0.00000  Uiso   1.00
H209   H     0.76198   0.73671   0.27198   0.00000  Uiso   1.00
H210   H     0.76741   0.73295   0.08473   0.00000  Uiso   1.00
H211   H     0.54281   0.82253   0.17465   0.00000  Uiso   1.00
H212   H     0.84959   0.73999   0.37703   0.00000  Uiso   1.00
H213   H     0.86100   0.73207   0.98220   0.00000  Uiso   1.00
H214   H     0.38741   0.92095   0.17180   0.00000  Uiso   1.00
H215   H     0.77954   0.11165   0.17618   0.00000  Uiso   1.00
H216   H     0.85316   0.09358   0.27101   0.00000  Uiso   1.00
H217   H     0.85858   0.08981   0.08376   0.00000  Uiso   1.00
H218   H     0.63399   0.17939   0.17368   0.00000  Uiso   1.00
H219   H     0.92359   0.02964   0.37625   0.00000  Uiso   1.00
H220   H     0.93501   0.02171   0.98141   0.00000  Uiso   1.00
H221   H     0.46141   0.21059   0.17102   0.00000  Uiso   1.00
O222   O     0.93349   0.86682   0.43903   0.00000  Uiso   1.00
O223   O     0.94845   0.85642   0.92101   0.00000  Uiso   1.00
O224   O     0.32711   0.10423   0.16978   0.00000  Uiso   1.00
N225   N     0.85689   0.81065   0.36384   0.00000  Uiso   1.00
N226   N     0.86757   0.80323   0.99470   0.00000  Uiso   1.00
N227   N     0.42480   0.97982   0.17195   0.00000  Uiso   1.00
N228   N     0.89671   0.96650   0.36342   0.00000  Uiso   1.00
N229   N     0.90739   0.95908   0.99427   0.00000  Uiso   1.00
N230   N     0.46462   0.13567   0.17153   0.00000  Uiso   1.00
C231   C     0.78710   0.64915   0.67690   0.00000  Uiso   1.00
C232   C     0.73770   0.62214   0.72832   0.00000  Uiso   1.00
C233   C     0.71833   0.68624   0.77178   0.00000  Uiso   1.00
C234   C     0.67257   0.64724   0.81503   0.00000  Uiso   1.00
C235   C     0.59969   0.62045   0.89490   0.00000  Uiso   1.00
C236   C     0.73474   0.62418   0.62658   0.00000  Uiso   1.00
C237   C     0.71290   0.69001   0.58451   0.00000  Uiso   1.00
C238   C     0.66465   0.65272   0.54211   0.00000  Uiso   1.00
C239   C     0.58723   0.62910   0.46401   0.00000  Uiso   1.00
C240   C     0.85676   0.57552   0.67544   0.00000  Uiso   1.00
C241   C     0.93753   0.60043   0.67444   0.00000  Uiso   1.00
C242   C     0.99202   0.52216   0.67316   0.00000  Uiso   1.00
C243   C     0.10407   0.42298   0.67092   0.00000  Uiso   1.00
C244   C     0.74027   0.46586   0.67640   0.00000  Uiso   1.00
C245   C     0.71226   0.52258   0.72804   0.00000  Uiso   1.00
C246   C     0.66652   0.48346   0.77123   0.00000  Uiso   1.00
C247   C     0.64709   0.54750   0.81476   0.00000  Uiso   1.00
C248   C     0.70930   0.52464   0.62631   0.00000  Uiso   1.00
C249   C     0.66108   0.48723   0.58396   0.00000  Uiso   1.00
C250   C     0.63917   0.55299   0.54183   0.00000  Uiso   1.00
C251   C     0.83133   0.47596   0.67517   0.00000  Uiso   1.00
C252   C     0.88571   0.39764   0.67389   0.00000  Uiso   1.00
C253   C     0.96654   0.42243   0.67288   0.00000  Uiso   1.00
H254   H     0.80690   0.72665   0.67710   0.00000  Uiso   1.00
H255   H     0.73802   0.76329   0.77198   0.00000  Uiso   1.00
H256   H     0.73259   0.76705   0.58473   0.00000  Uiso   1.00
H257   H     0.95719   0.67747   0.67465   0.00000  Uiso   1.00
H258   H     0.65041   0.76001   0.87703   0.00000  Uiso   1.00
H259   H     0.63900   0.76793   0.48220   0.00000  Uiso   1.00
H260   H     0.11259   0.57905   0.67180   0.00000  Uiso   1.00
H261   H     0.72046   0.38835   0.67618   0.00000  Uiso   1.00
H262   H     0.64684   0.40642   0.77101   0.00000  Uiso   1.00
H263   H     0.64142   0.41019   0.58376   0.00000  Uiso   1.00
H264   H     0.86601   0.32061   0.67368   0.00000  Uiso   1.00
H265   H     0.57641   0.47036   0.87625   0.00000  Uiso   1.00
H266   H     0.56499   0.47829   0.48141   0.00000  Uiso   1.00
H267   H     0.03859   0.28941   0.67102   0.00000  Uiso   1.00
O268   O     0.56651   0.63318   0.93903   0.00000  Uiso   1.00
O269   O     0.55155   0.64358   0.42101   0.00000  Uiso   1.00
O270   O     0.17289   0.39577   0.66978   0.00000  Uiso   1.00
N271   N     0.64311   0.68935   0.86384   0.00000  Uiso   1.00
N272   N     0.63243   0.69677   0.49470   0.00000  Uiso   1.00
N273   N     0.07520   0.52018   0.67195   0.00000  Uiso   1.00
N274   N     0.60329   0.53350   0.86342   0.00000  Uiso   1.00
N275   N     0.59261   0.54092   0.49427   0.00000  Uiso   1.00
N276   N     0.03538   0.36433   0.67153   0.00000  Uiso   1.00
C277   C     0.28710   0.85085   0.32310   0.00000  Uiso   1.00
C278   C     0.23770   0.87786   0.27168   0.00000  Uiso   1.00
C279   C     0.21833   0.81376   0.22822   0.00000  Uiso   1.00
C280   C     0.17257   0.85276   0.18497   0.00000  Uiso   1.00
C281   C     0.09969   0.87955   0.10510   0.00000  Uiso   1.00
C282   C     0.23474   0.87582   0.37342   0.00000  Uiso   1.00
C283   C     0.21290   0.80999   0.41549   0.00000  Uiso   1.00
C284   C     0.16465   0.84728   0.45789   0.00000  Uiso   1.00
C285   C     0.08723   0.87090   0.53599   0.00000  Uiso   1.00
C286   C     0.35676   0.92448   0.32456   0.00000  Uiso   1.00
C287   C     0.43753   0.89957   0.32556   0.00000  Uiso   1.00
C288   C     0.49202   0.97784   0.32684   0.00000  Uiso   1.00
C289   C     0.60407   0.07702   0.32908   0.00000  Uiso   1.00
C290   C     0.24027   0.03414   0.32360   0.00000  Uiso   1.00
C291   C     0.21226   0.97742   0.27196   0.00000  Uiso   1.00
C292   C     0.16652   0.01654   0.22877   0.00000  Uiso   1.00
C293   C     0.14709   0.95250   0.18524   0.00000  Uiso   1.00
C294   C     0.20930   0.97536   0.37369   0.00000  Uiso   1.00
C295   C     0.16108   0.01277   0.41604   0.00000  Uiso   1.00
C296   C     0.13917   0.94701   0.45817   0.00000  Uiso   1.00
C297   C     0.33133   0.02404   0.32483   0.00000  Uiso   1.00
C298   C     0.38571   0.10236   0.32611   0.00000  Uiso   1.00
C299   C     0.46654   0.07757   0.32712   0.00000  Uiso   1.00
H300   H     0.30690   0.77335   0.32290   0.00000  Uiso   1.00
H301   H     0.23802   0.73671   0.22802   0.00000  Uiso   1.00
H302   H     0.23259   0.73295   0.41527   0.00000  Uiso   1.00
H303   H     0.45719   0.82253   0.32535   0.00000  Uiso   1.00
H304   H     0.15041   0.73999   0.12297   0.00000  Uiso   1.00
H305   H     0.13900   0.73207   0.51780   0.00000  Uiso   1.00
H306   H     0.61259   0.92095   0.32820   0.00000  Uiso   1.00
H307   H     0.22046   0.11165   0.32382   0.00000  Uiso   1.00
H308   H     0.14684   0.09358   0.22899   0.00000  Uiso   1.00
H309   H     0.14142   0.08981   0.41624   0.00000  Uiso   1.00
H310   H     0.36601   0.17939   0.32632   0.00000  Uiso   1.00
H311   H     0.07641   0.02964   0.12375   0.00000  Uiso   1.00
H312   H     0.06499   0.02171   0.51859   0.00000  Uiso   1.00
H313   H     0.53859   0.21059   0.32898   0.00000  Uiso   1.00
O314   O     0.06651   0.86682   0.06097   0.00000  Uiso   1.00
O315   O     0.05155   0.85642   0.57899   0.00000  Uiso   1.00
O316   O     0.67289   0.10423   0.33022   0.00000  Uiso   1.00
N317   N     0.14311   0.81065   0.13616   0.00000  Uiso   1.00
N318   N     0.13243   0.80323   0.50530   0.00000  Uiso   1.00
N319   N     0.57520   0.97982   0.32805   0.00000  Uiso   1.00
N320   N     0.10329   0.96650   0.13658   0.00000  Uiso   1.00
N321   N     0.09261   0.95908   0.50573   0.00000  Uiso   1.00
N322   N     0.53538   0.13567   0.32847   0.00000  Uiso   1.00
C323   C     0.21290   0.64915   0.82310   0.00000  Uiso   1.00
C324   C     0.26230   0.62214   0.77168   0.00000  Uiso   1.00
C325   C     0.28167   0.68624   0.72822   0.00000  Uiso   1.00
C326   C     0.32743   0.64724   0.68497   0.00000  Uiso   1.00
C327   C     0.40031   0.62045   0.60510   0.00000  Uiso   1.00
C328   C     0.26526   0.62418   0.87342   0.00000  Uiso   1.00
C329   C     0.28710   0.69001   0.91549   0.00000  Uiso   1.00
C330   C     0.33535   0.65272   0.95789   0.00000  Uiso   1.00
C331   C     0.41277   0.62910   0.03599   0.00000  Uiso   1.00
C332   C     0.14324   0.57552   0.82456   0.00000  Uiso   1.00
C333   C     0.06247   0.60043   0.82556   0.00000  Uiso   1.00
C334   C     0.00798   0.52216   0.82684   0.00000  Uiso   1.00
C335   C     0.89593   0.42298   0.82908   0.00000  Uiso   1.00
C336   C     0.25973   0.46586   0.82360   0.00000  Uiso   1.00
C337   C     0.28774   0.52258   0.77196   0.00000  Uiso   1.00
C338   C     0.33348   0.48346   0.72877   0.00000  Uiso   1.00
C339   C     0.35291   0.54750   0.68524   0.00000  Uiso   1.00
C340   C     0.29070   0.52464   0.87369   0.00000  Uiso   1.00
C341   C     0.33892   0.48723   0.91604   0.00000  Uiso   1.00
C342   C     0.36083   0.55299   0.95817   0.00000  Uiso   1.00
C343   C     0.16867   0.47596   0.82483   0.00000  Uiso   1.00
C344   C     0.11429   0.39764   0.82611   0.00000  Uiso   1.00
C345   C     0.03346   0.42243   0.82712   0.00000  Uiso   1.00
H346   H     0.19310   0.72665   0.82290   0.00000  Uiso   1.00
H347   H     0.26198   0.76329   0.72802   0.00000  Uiso   1.00
H348   H     0.26741   0.76705   0.91527   0.00000  Uiso   1.00
H349   H     0.04281   0.67747   0.82535   0.00000  Uiso   1.00
H350   H     0.34959   0.76001   0.62297   0.00000  Uiso   1.00
H351   H     0.36100   0.76793   0.01780   0.00000  Uiso   1.00
H352   H     0.88741   0.57905   0.82820   0.00000  Uiso   1.00
H353   H     0.27954   0.38835   0.82382   0.00000  Uiso   1.00
H354   H     0.35316   0.40642   0.72899   0.00000  Uiso   1.00
H355   H     0.35858   0.41019   0.91624   0.00000  Uiso   1.00
H356   H     0.13399   0.32061   0.82632   0.00000  Uiso   1.00
H357   H     0.42359   0.47036   0.62375   0.00000  Uiso   1.00
H358   H     0.43501   0.47829   0.01859   0.00000  Uiso   1.00
H359   H     0.96141   0.28941   0.82898   0.00000  Uiso   1.00
O360   O     0.43349   0.63318   0.56097   0.00000  Uiso   1.00
O361   O     0.44845   0.64358   0.07899   0.00000  Uiso   1.00
O362   O     0.82711   0.39577   0.83022   0.00000  Uiso   1.00
N363   N     0.35689   0.68935   0.63616   0.00000  Uiso   1.00
N364   N     0.36757   0.69677   0.00530   0.00000  Uiso   1.00
N365   N     0.92480   0.52018   0.82805   0.00000  Uiso   1.00
N366   N     0.39671   0.53350   0.63658   0.00000  Uiso   1.00
N367   N     0.40739   0.54092   0.00573   0.00000  Uiso   1.00
N368   N     0.96462   0.36433   0.82847   0.00000  Uiso   1.00
