data_job_02864
_audit_creation_date              2018-12-19
_audit_creation_method            'Materials Studio'
_symmetry_space_group_name_H-M    'P1'
_symmetry_Int_Tables_number       1
_symmetry_cell_setting            triclinic
loop_
_symmetry_equiv_pos_as_xyz
  x,y,z
_cell_length_a                    16.1744
_cell_length_b                    7.7991
_cell_length_c                    12.3184
_cell_angle_alpha                 107.1070
_cell_angle_beta                  88.1174
_cell_angle_gamma                 76.9436
loop_
_atom_site_label
_atom_site_type_symbol
_atom_site_fract_x
_atom_site_fract_y
_atom_site_fract_z
_atom_site_U_iso_or_equiv
_atom_site_adp_type
_atom_site_occupancy
C1     C     0.28750   0.52596   0.38438   0.00000  Uiso   1.00
C2     C     0.35826   0.35164   0.36900   0.00000  Uiso   1.00
C3     C     0.44074   0.31703   0.31830   0.00000  Uiso   1.00
C4     C     0.49600   0.14926   0.31242   0.00000  Uiso   1.00
C5     C     0.60987   0.89807   0.28190   0.00000  Uiso   1.00
C6     C     0.21322   0.46068   0.32683   0.00000  Uiso   1.00
C7     C     0.17374   0.51778   0.24069   0.00000  Uiso   1.00
C8     C     0.10689   0.44182   0.19932   0.00000  Uiso   1.00
C9     C     0.99553   0.36002   0.10339   0.00000  Uiso   1.00
C10    C     0.25777   0.60356   0.51191   0.00000  Uiso   1.00
C11    C     0.25572   0.78082   0.58139   0.00000  Uiso   1.00
C12    C     0.22636   0.82517   0.69584   0.00000  Uiso   1.00
C13    C     0.18418   0.96522   0.88729   0.00000  Uiso   1.00
C14    C     0.23897   0.28957   0.46409   0.00000  Uiso   1.00
C15    C     0.33190   0.22324   0.41229   0.00000  Uiso   1.00
C16    C     0.38705   0.05548   0.40649   0.00000  Uiso   1.00
C17    C     0.46960   0.02063   0.35579   0.00000  Uiso   1.00
C18    C     0.18686   0.33228   0.37012   0.00000  Uiso   1.00
C19    C     0.12005   0.25623   0.32888   0.00000  Uiso   1.00
C20    C     0.08048   0.31319   0.24269   0.00000  Uiso   1.00
C21    C     0.23141   0.47516   0.55521   0.00000  Uiso   1.00
C22    C     0.20204   0.51926   0.66958   0.00000  Uiso   1.00
C23    C     0.19995   0.69654   0.73922   0.00000  Uiso   1.00
H24    H     0.30802   0.62593   0.35067   0.00000  Uiso   1.00
H25    H     0.46111   0.41642   0.28479   0.00000  Uiso   1.00
H26    H     0.19415   0.61715   0.20721   0.00000  Uiso   1.00
H27    H     0.27613   0.88014   0.54785   0.00000  Uiso   1.00
H28    H     0.61921   0.12750   0.23082   0.00000  Uiso   1.00
H29    H     0.05628   0.55080   0.06725   0.00000  Uiso   1.00
H30    H     0.22914   0.10536   0.78557   0.00000  Uiso   1.00
H31    H     0.21845   0.18960   0.49779   0.00000  Uiso   1.00
H32    H     0.36663   0.95614   0.44000   0.00000  Uiso   1.00
H33    H     0.09966   0.15688   0.36241   0.00000  Uiso   1.00
H34    H     0.18164   0.41986   0.70305   0.00000  Uiso   1.00
H35    H     0.54253   0.75391   0.35679   0.00000  Uiso   1.00
H36    H     0.97959   0.17722   0.19321   0.00000  Uiso   1.00
H37    H     0.15246   0.73178   0.91153   0.00000  Uiso   1.00
O38    O     0.67995   0.79498   0.25310   0.00000  Uiso   1.00
O39    O     0.94140   0.35037   0.03851   0.00000  Uiso   1.00
O40    O     0.16820   0.07793   0.98093   0.00000  Uiso   1.00
N41    N     0.58083   0.07163   0.26842   0.00000  Uiso   1.00
N42    N     0.05453   0.46737   0.11547   0.00000  Uiso   1.00
N43    N     0.21613   0.98585   0.78704   0.00000  Uiso   1.00
N44    N     0.53957   0.87061   0.33620   0.00000  Uiso   1.00
N45    N     0.01327   0.26635   0.18325   0.00000  Uiso   1.00
N46    N     0.17486   0.78483   0.85482   0.00000  Uiso   1.00
C47    C     0.71250   0.47404   0.61562   0.00000  Uiso   1.00
C48    C     0.64174   0.64836   0.63100   0.00000  Uiso   1.00
C49    C     0.55926   0.68297   0.68170   0.00000  Uiso   1.00
C50    C     0.50400   0.85074   0.68758   0.00000  Uiso   1.00
C51    C     0.39013   0.10193   0.71810   0.00000  Uiso   1.00
C52    C     0.78678   0.53932   0.67317   0.00000  Uiso   1.00
C53    C     0.82626   0.48222   0.75931   0.00000  Uiso   1.00
C54    C     0.89311   0.55818   0.80068   0.00000  Uiso   1.00
C55    C     0.00447   0.63998   0.89661   0.00000  Uiso   1.00
C56    C     0.74223   0.39644   0.48809   0.00000  Uiso   1.00
C57    C     0.74428   0.21918   0.41861   0.00000  Uiso   1.00
C58    C     0.77364   0.17483   0.30416   0.00000  Uiso   1.00
C59    C     0.81582   0.03478   0.11271   0.00000  Uiso   1.00
C60    C     0.76103   0.71043   0.53591   0.00000  Uiso   1.00
C61    C     0.66810   0.77676   0.58771   0.00000  Uiso   1.00
C62    C     0.61295   0.94452   0.59351   0.00000  Uiso   1.00
C63    C     0.53040   0.97937   0.64421   0.00000  Uiso   1.00
C64    C     0.81314   0.66772   0.62988   0.00000  Uiso   1.00
C65    C     0.87995   0.74377   0.67112   0.00000  Uiso   1.00
C66    C     0.91952   0.68681   0.75731   0.00000  Uiso   1.00
C67    C     0.76859   0.52484   0.44479   0.00000  Uiso   1.00
C68    C     0.79796   0.48074   0.33042   0.00000  Uiso   1.00
C69    C     0.80005   0.30346   0.26078   0.00000  Uiso   1.00
H70    H     0.69198   0.37407   0.64933   0.00000  Uiso   1.00
H71    H     0.53889   0.58358   0.71521   0.00000  Uiso   1.00
H72    H     0.80585   0.38285   0.79279   0.00000  Uiso   1.00
H73    H     0.72387   0.11986   0.45215   0.00000  Uiso   1.00
H74    H     0.38079   0.87250   0.76918   0.00000  Uiso   1.00
H75    H     0.94372   0.44920   0.93275   0.00000  Uiso   1.00
H76    H     0.77086   0.89464   0.21443   0.00000  Uiso   1.00
H77    H     0.78155   0.81040   0.50221   0.00000  Uiso   1.00
H78    H     0.63337   0.04386   0.56000   0.00000  Uiso   1.00
H79    H     0.90034   0.84312   0.63759   0.00000  Uiso   1.00
H80    H     0.81836   0.58014   0.29695   0.00000  Uiso   1.00
H81    H     0.45747   0.24609   0.64321   0.00000  Uiso   1.00
H82    H     0.02041   0.82278   0.80679   0.00000  Uiso   1.00
H83    H     0.84754   0.26822   0.08847   0.00000  Uiso   1.00
O84    O     0.32005   0.20502   0.74690   0.00000  Uiso   1.00
O85    O     0.05860   0.64963   0.96149   0.00000  Uiso   1.00
O86    O     0.83180   0.92207   0.01907   0.00000  Uiso   1.00
N87    N     0.41917   0.92837   0.73158   0.00000  Uiso   1.00
N88    N     0.94547   0.53263   0.88453   0.00000  Uiso   1.00
N89    N     0.78387   0.01415   0.21296   0.00000  Uiso   1.00
N90    N     0.46043   0.12939   0.66380   0.00000  Uiso   1.00
N91    N     0.98673   0.73365   0.81675   0.00000  Uiso   1.00
N92    N     0.82514   0.21517   0.14518   0.00000  Uiso   1.00
