data_job_01286
_audit_creation_date              2018-12-19
_audit_creation_method            'Materials Studio'
_symmetry_space_group_name_H-M    'P1'
_symmetry_Int_Tables_number       1
_symmetry_cell_setting            triclinic
loop_
_symmetry_equiv_pos_as_xyz
  x,y,z
_cell_length_a                    26.2810
_cell_length_b                    12.4385
_cell_length_c                    7.2571
_cell_angle_alpha                 90.0000
_cell_angle_beta                  90.0000
_cell_angle_gamma                 90.0000
loop_
_atom_site_label
_atom_site_type_symbol
_atom_site_fract_x
_atom_site_fract_y
_atom_site_fract_z
_atom_site_U_iso_or_equiv
_atom_site_adp_type
_atom_site_occupancy
C1     C     0.62441   0.17821   0.62479   0.00000  Uiso   1.00
C2     C     0.64000   0.09507   0.76853   0.00000  Uiso   1.00
C3     C     0.66532   0.99937   0.73316   0.00000  Uiso   1.00
C4     C     0.67615   0.93420   0.88345   0.00000  Uiso   1.00
C5     C     0.70246   0.80058   0.07938   0.00000  Uiso   1.00
C6     C     0.56711   0.19285   0.64633   0.00000  Uiso   1.00
C7     C     0.53115   0.17937   0.50819   0.00000  Uiso   1.00
C8     C     0.48062   0.19653   0.55561   0.00000  Uiso   1.00
C9     C     0.39377   0.21480   0.56178   0.00000  Uiso   1.00
C10    C     0.64844   0.28402   0.68554   0.00000  Uiso   1.00
C11    C     0.68084   0.34722   0.58036   0.00000  Uiso   1.00
C12    C     0.69877   0.44116   0.66078   0.00000  Uiso   1.00
C13    C     0.73820   0.60098   0.72783   0.00000  Uiso   1.00
C14    C     0.59861   0.23267   0.95461   0.00000  Uiso   1.00
C15    C     0.62598   0.12465   0.94767   0.00000  Uiso   1.00
C16    C     0.63677   0.05961   0.09806   0.00000  Uiso   1.00
C17    C     0.66211   0.96383   0.06292   0.00000  Uiso   1.00
C18    C     0.55309   0.22243   0.82546   0.00000  Uiso   1.00
C19    C     0.50260   0.23962   0.87309   0.00000  Uiso   1.00
C20    C     0.46657   0.22617   0.73508   0.00000  Uiso   1.00
C21    C     0.63442   0.31360   0.86468   0.00000  Uiso   1.00
C22    C     0.65230   0.40747   0.94527   0.00000  Uiso   1.00
C23    C     0.68473   0.47079   0.84025   0.00000  Uiso   1.00
H24    H     0.63532   0.15518   0.48532   0.00000  Uiso   1.00
H25    H     0.67616   0.97650   0.59450   0.00000  Uiso   1.00
H26    H     0.54201   0.15649   0.36957   0.00000  Uiso   1.00
H27    H     0.69168   0.32431   0.44174   0.00000  Uiso   1.00
H28    H     0.71524   0.79142   0.79454   0.00000  Uiso   1.00
H29    H     0.43238   0.17098   0.32024   0.00000  Uiso   1.00
H30    H     0.74799   0.52486   0.47242   0.00000  Uiso   1.00
H31    H     0.58769   0.25570   0.09408   0.00000  Uiso   1.00
H32    H     0.62592   0.08253   0.23668   0.00000  Uiso   1.00
H33    H     0.49177   0.26252   0.01174   0.00000  Uiso   1.00
H34    H     0.64144   0.43033   0.08391   0.00000  Uiso   1.00
H35    H     0.67446   0.87747   0.31576   0.00000  Uiso   1.00
H36    H     0.39160   0.25704   0.84145   0.00000  Uiso   1.00
H37    H     0.70722   0.61091   0.99363   0.00000  Uiso   1.00
O38    O     0.72084   0.71870   0.13796   0.00000  Uiso   1.00
O39    O     0.34974   0.21669   0.51568   0.00000  Uiso   1.00
O40    O     0.76382   0.68096   0.71534   0.00000  Uiso   1.00
N41    N     0.70041   0.83545   0.89765   0.00000  Uiso   1.00
N42    N     0.43595   0.19030   0.45421   0.00000  Uiso   1.00
N43    N     0.73101   0.52116   0.59646   0.00000  Uiso   1.00
N44    N     0.67846   0.88175   0.17811   0.00000  Uiso   1.00
N45    N     0.41401   0.23660   0.73467   0.00000  Uiso   1.00
N46    N     0.70907   0.56746   0.87692   0.00000  Uiso   1.00
C47    C     0.37559   0.82179   0.62479   0.00000  Uiso   1.00
C48    C     0.36000   0.90493   0.76853   0.00000  Uiso   1.00
C49    C     0.33468   0.00063   0.73316   0.00000  Uiso   1.00
C50    C     0.32385   0.06580   0.88345   0.00000  Uiso   1.00
C51    C     0.29754   0.19942   0.07938   0.00000  Uiso   1.00
C52    C     0.43289   0.80715   0.64633   0.00000  Uiso   1.00
C53    C     0.46885   0.82063   0.50819   0.00000  Uiso   1.00
C54    C     0.51938   0.80347   0.55561   0.00000  Uiso   1.00
C55    C     0.60623   0.78520   0.56178   0.00000  Uiso   1.00
C56    C     0.35156   0.71598   0.68554   0.00000  Uiso   1.00
C57    C     0.31916   0.65278   0.58036   0.00000  Uiso   1.00
C58    C     0.30123   0.55884   0.66078   0.00000  Uiso   1.00
C59    C     0.26180   0.39902   0.72783   0.00000  Uiso   1.00
C60    C     0.40139   0.76733   0.95461   0.00000  Uiso   1.00
C61    C     0.37402   0.87535   0.94767   0.00000  Uiso   1.00
C62    C     0.36323   0.94039   0.09806   0.00000  Uiso   1.00
C63    C     0.33789   0.03617   0.06292   0.00000  Uiso   1.00
C64    C     0.44691   0.77757   0.82546   0.00000  Uiso   1.00
C65    C     0.49740   0.76038   0.87309   0.00000  Uiso   1.00
C66    C     0.53343   0.77383   0.73508   0.00000  Uiso   1.00
C67    C     0.36558   0.68640   0.86468   0.00000  Uiso   1.00
C68    C     0.34770   0.59253   0.94527   0.00000  Uiso   1.00
C69    C     0.31527   0.52921   0.84025   0.00000  Uiso   1.00
H70    H     0.36468   0.84482   0.48532   0.00000  Uiso   1.00
H71    H     0.32384   0.02350   0.59450   0.00000  Uiso   1.00
H72    H     0.45799   0.84351   0.36957   0.00000  Uiso   1.00
H73    H     0.30832   0.67569   0.44174   0.00000  Uiso   1.00
H74    H     0.28476   0.20858   0.79454   0.00000  Uiso   1.00
H75    H     0.56762   0.82902   0.32024   0.00000  Uiso   1.00
H76    H     0.25201   0.47514   0.47242   0.00000  Uiso   1.00
H77    H     0.41231   0.74430   0.09408   0.00000  Uiso   1.00
H78    H     0.37408   0.91747   0.23668   0.00000  Uiso   1.00
H79    H     0.50823   0.73748   0.01174   0.00000  Uiso   1.00
H80    H     0.35856   0.56967   0.08391   0.00000  Uiso   1.00
H81    H     0.32554   0.12253   0.31576   0.00000  Uiso   1.00
H82    H     0.60840   0.74296   0.84145   0.00000  Uiso   1.00
H83    H     0.29278   0.38909   0.99363   0.00000  Uiso   1.00
O84    O     0.27916   0.28130   0.13796   0.00000  Uiso   1.00
O85    O     0.65026   0.78331   0.51568   0.00000  Uiso   1.00
O86    O     0.23618   0.31904   0.71534   0.00000  Uiso   1.00
N87    N     0.29959   0.16455   0.89765   0.00000  Uiso   1.00
N88    N     0.56405   0.80970   0.45421   0.00000  Uiso   1.00
N89    N     0.26899   0.47884   0.59646   0.00000  Uiso   1.00
N90    N     0.32154   0.11825   0.17811   0.00000  Uiso   1.00
N91    N     0.58599   0.76340   0.73467   0.00000  Uiso   1.00
N92    N     0.29093   0.43254   0.87692   0.00000  Uiso   1.00
C93    C     0.87559   0.67821   0.37521   0.00000  Uiso   1.00
C94    C     0.86000   0.59507   0.23147   0.00000  Uiso   1.00
C95    C     0.83468   0.49937   0.26684   0.00000  Uiso   1.00
C96    C     0.82385   0.43420   0.11655   0.00000  Uiso   1.00
C97    C     0.79754   0.30058   0.92062   0.00000  Uiso   1.00
C98    C     0.93289   0.69285   0.35367   0.00000  Uiso   1.00
C99    C     0.96885   0.67937   0.49181   0.00000  Uiso   1.00
C100   C     0.01938   0.69653   0.44439   0.00000  Uiso   1.00
C101   C     0.10623   0.71480   0.43822   0.00000  Uiso   1.00
C102   C     0.85156   0.78402   0.31446   0.00000  Uiso   1.00
C103   C     0.81916   0.84722   0.41964   0.00000  Uiso   1.00
C104   C     0.80123   0.94116   0.33922   0.00000  Uiso   1.00
C105   C     0.76180   0.10098   0.27217   0.00000  Uiso   1.00
C106   C     0.90139   0.73267   0.04539   0.00000  Uiso   1.00
C107   C     0.87402   0.62465   0.05233   0.00000  Uiso   1.00
C108   C     0.86323   0.55961   0.90194   0.00000  Uiso   1.00
C109   C     0.83789   0.46383   0.93708   0.00000  Uiso   1.00
C110   C     0.94691   0.72243   0.17454   0.00000  Uiso   1.00
C111   C     0.99740   0.73962   0.12691   0.00000  Uiso   1.00
C112   C     0.03343   0.72617   0.26492   0.00000  Uiso   1.00
C113   C     0.86558   0.81360   0.13532   0.00000  Uiso   1.00
C114   C     0.84770   0.90747   0.05473   0.00000  Uiso   1.00
C115   C     0.81527   0.97079   0.15975   0.00000  Uiso   1.00
H116   H     0.86468   0.65518   0.51468   0.00000  Uiso   1.00
H117   H     0.82384   0.47650   0.40550   0.00000  Uiso   1.00
H118   H     0.95799   0.65649   0.63043   0.00000  Uiso   1.00
H119   H     0.80832   0.82431   0.55826   0.00000  Uiso   1.00
H120   H     0.78476   0.29142   0.20546   0.00000  Uiso   1.00
H121   H     0.06762   0.67098   0.67976   0.00000  Uiso   1.00
H122   H     0.75201   0.02486   0.52758   0.00000  Uiso   1.00
H123   H     0.91231   0.75570   0.90592   0.00000  Uiso   1.00
H124   H     0.87408   0.58253   0.76332   0.00000  Uiso   1.00
H125   H     0.00823   0.76252   0.98826   0.00000  Uiso   1.00
H126   H     0.85856   0.93033   0.91609   0.00000  Uiso   1.00
H127   H     0.82554   0.37747   0.68424   0.00000  Uiso   1.00
H128   H     0.10840   0.75704   0.15855   0.00000  Uiso   1.00
H129   H     0.79278   0.11091   0.00637   0.00000  Uiso   1.00
O130   O     0.77916   0.21870   0.86204   0.00000  Uiso   1.00
O131   O     0.15026   0.71669   0.48432   0.00000  Uiso   1.00
O132   O     0.73618   0.18096   0.28466   0.00000  Uiso   1.00
N133   N     0.79959   0.33545   0.10235   0.00000  Uiso   1.00
N134   N     0.06405   0.69030   0.54579   0.00000  Uiso   1.00
N135   N     0.76899   0.02116   0.40354   0.00000  Uiso   1.00
N136   N     0.82154   0.38175   0.82189   0.00000  Uiso   1.00
N137   N     0.08599   0.73660   0.26533   0.00000  Uiso   1.00
N138   N     0.79093   0.06746   0.12308   0.00000  Uiso   1.00
C139   C     0.12441   0.32179   0.37521   0.00000  Uiso   1.00
C140   C     0.14000   0.40493   0.23147   0.00000  Uiso   1.00
C141   C     0.16532   0.50063   0.26684   0.00000  Uiso   1.00
C142   C     0.17615   0.56580   0.11655   0.00000  Uiso   1.00
C143   C     0.20246   0.69942   0.92062   0.00000  Uiso   1.00
C144   C     0.06711   0.30715   0.35367   0.00000  Uiso   1.00
C145   C     0.03115   0.32063   0.49181   0.00000  Uiso   1.00
C146   C     0.98062   0.30347   0.44439   0.00000  Uiso   1.00
C147   C     0.89377   0.28520   0.43822   0.00000  Uiso   1.00
C148   C     0.14844   0.21598   0.31446   0.00000  Uiso   1.00
C149   C     0.18084   0.15278   0.41964   0.00000  Uiso   1.00
C150   C     0.19877   0.05884   0.33922   0.00000  Uiso   1.00
C151   C     0.23820   0.89902   0.27217   0.00000  Uiso   1.00
C152   C     0.09861   0.26733   0.04539   0.00000  Uiso   1.00
C153   C     0.12598   0.37535   0.05233   0.00000  Uiso   1.00
C154   C     0.13677   0.44039   0.90194   0.00000  Uiso   1.00
C155   C     0.16211   0.53617   0.93708   0.00000  Uiso   1.00
C156   C     0.05309   0.27757   0.17454   0.00000  Uiso   1.00
C157   C     0.00260   0.26038   0.12691   0.00000  Uiso   1.00
C158   C     0.96657   0.27383   0.26492   0.00000  Uiso   1.00
C159   C     0.13442   0.18640   0.13532   0.00000  Uiso   1.00
C160   C     0.15230   0.09253   0.05473   0.00000  Uiso   1.00
C161   C     0.18473   0.02921   0.15975   0.00000  Uiso   1.00
H162   H     0.13532   0.34482   0.51468   0.00000  Uiso   1.00
H163   H     0.17616   0.52350   0.40550   0.00000  Uiso   1.00
H164   H     0.04201   0.34351   0.63043   0.00000  Uiso   1.00
H165   H     0.19168   0.17569   0.55826   0.00000  Uiso   1.00
H166   H     0.21524   0.70858   0.20546   0.00000  Uiso   1.00
H167   H     0.93238   0.32902   0.67976   0.00000  Uiso   1.00
H168   H     0.24799   0.97514   0.52758   0.00000  Uiso   1.00
H169   H     0.08769   0.24430   0.90592   0.00000  Uiso   1.00
H170   H     0.12592   0.41747   0.76332   0.00000  Uiso   1.00
H171   H     0.99177   0.23748   0.98826   0.00000  Uiso   1.00
H172   H     0.14144   0.06967   0.91609   0.00000  Uiso   1.00
H173   H     0.17446   0.62253   0.68424   0.00000  Uiso   1.00
H174   H     0.89160   0.24296   0.15855   0.00000  Uiso   1.00
H175   H     0.20722   0.88909   0.00637   0.00000  Uiso   1.00
O176   O     0.22084   0.78130   0.86204   0.00000  Uiso   1.00
O177   O     0.84974   0.28331   0.48432   0.00000  Uiso   1.00
O178   O     0.26382   0.81904   0.28466   0.00000  Uiso   1.00
N179   N     0.20041   0.66455   0.10235   0.00000  Uiso   1.00
N180   N     0.93595   0.30970   0.54579   0.00000  Uiso   1.00
N181   N     0.23101   0.97884   0.40354   0.00000  Uiso   1.00
N182   N     0.17846   0.61825   0.82189   0.00000  Uiso   1.00
N183   N     0.91401   0.26340   0.26533   0.00000  Uiso   1.00
N184   N     0.20907   0.93254   0.12308   0.00000  Uiso   1.00
