data_job_00300
_audit_creation_date              2018-12-19
_audit_creation_method            'Materials Studio'
_symmetry_space_group_name_H-M    'P1'
_symmetry_Int_Tables_number       1
_symmetry_cell_setting            triclinic
loop_
_symmetry_equiv_pos_as_xyz
  x,y,z
_cell_length_a                    21.0899
_cell_length_b                    13.4078
_cell_length_c                    16.4966
_cell_angle_alpha                 90.0000
_cell_angle_beta                  66.0810
_cell_angle_gamma                 90.0000
loop_
_atom_site_label
_atom_site_type_symbol
_atom_site_fract_x
_atom_site_fract_y
_atom_site_fract_z
_atom_site_U_iso_or_equiv
_atom_site_adp_type
_atom_site_occupancy
C1     C     0.13559   0.89447   0.28386   0.00000  Uiso   1.00
C2     C     0.08965   0.98691   0.31190   0.00000  Uiso   1.00
C3     C     0.02530   0.99258   0.38266   0.00000  Uiso   1.00
C4     C     0.99144   0.08391   0.39741   0.00000  Uiso   1.00
C5     C     0.91561   0.21487   0.44915   0.00000  Uiso   1.00
C6     C     0.14923   0.87605   0.18698   0.00000  Uiso   1.00
C7     C     0.13497   0.78849   0.15271   0.00000  Uiso   1.00
C8     C     0.15128   0.78650   0.06229   0.00000  Uiso   1.00
C9     C     0.16798   0.74531   0.92008   0.00000  Uiso   1.00
C10    C     0.20511   0.92470   0.28443   0.00000  Uiso   1.00
C11    C     0.23786   0.87803   0.33207   0.00000  Uiso   1.00
C12    C     0.30122   0.91698   0.32368   0.00000  Uiso   1.00
C13    C     0.40470   0.95132   0.33277   0.00000  Uiso   1.00
C14    C     0.18992   0.04660   0.18423   0.00000  Uiso   1.00
C15    C     0.11916   0.06954   0.25778   0.00000  Uiso   1.00
C16    C     0.08540   0.16089   0.27243   0.00000  Uiso   1.00
C17    C     0.02100   0.16669   0.34320   0.00000  Uiso   1.00
C18    C     0.17874   0.95868   0.13286   0.00000  Uiso   1.00
C19    C     0.19507   0.95681   0.04247   0.00000  Uiso   1.00
C20    C     0.18084   0.86927   0.00807   0.00000  Uiso   1.00
C21    C     0.23462   0.00733   0.23031   0.00000  Uiso   1.00
C22    C     0.29796   0.04635   0.22184   0.00000  Uiso   1.00
C23    C     0.33078   0.99975   0.26946   0.00000  Uiso   1.00
H24    H     0.11262   0.83014   0.32599   0.00000  Uiso   1.00
H25    H     0.00247   0.92861   0.42452   0.00000  Uiso   1.00
H26    H     0.11214   0.72456   0.19460   0.00000  Uiso   1.00
H27    H     0.21501   0.81409   0.37394   0.00000  Uiso   1.00
H28    H     0.89336   0.07422   0.50988   0.00000  Uiso   1.00
H29    H     0.12462   0.64395   0.02507   0.00000  Uiso   1.00
H30    H     0.34153   0.83273   0.40324   0.00000  Uiso   1.00
H31    H     0.21289   0.11093   0.14209   0.00000  Uiso   1.00
H32    H     0.10825   0.22482   0.23054   0.00000  Uiso   1.00
H33    H     0.21791   0.02076   0.00061   0.00000  Uiso   1.00
H34    H     0.32078   0.11029   0.17995   0.00000  Uiso   1.00
H35    H     0.97921   0.31463   0.35243   0.00000  Uiso   1.00
H36    H     0.21047   0.88436   0.86762   0.00000  Uiso   1.00
H37    H     0.42738   0.07315   0.24579   0.00000  Uiso   1.00
O38    O     0.86563   0.26427   0.49263   0.00000  Uiso   1.00
O39    O     0.16904   0.69976   0.85659   0.00000  Uiso   1.00
O40    O     0.45362   0.94745   0.35274   0.00000  Uiso   1.00
N41    N     0.92793   0.11518   0.46069   0.00000  Uiso   1.00
N42    N     0.14413   0.71290   0.00743   0.00000  Uiso   1.00
N43    N     0.34694   0.88938   0.36097   0.00000  Uiso   1.00
N44    N     0.97413   0.24454   0.37597   0.00000  Uiso   1.00
N45    N     0.19032   0.84227   0.92271   0.00000  Uiso   1.00
N46    N     0.39313   0.01875   0.27625   0.00000  Uiso   1.00
C47    C     0.63559   0.39447   0.28386   0.00000  Uiso   1.00
C48    C     0.58965   0.48691   0.31190   0.00000  Uiso   1.00
C49    C     0.52530   0.49258   0.38266   0.00000  Uiso   1.00
C50    C     0.49144   0.58391   0.39741   0.00000  Uiso   1.00
C51    C     0.41561   0.71487   0.44915   0.00000  Uiso   1.00
C52    C     0.64923   0.37605   0.18698   0.00000  Uiso   1.00
C53    C     0.63497   0.28849   0.15271   0.00000  Uiso   1.00
C54    C     0.65128   0.28650   0.06229   0.00000  Uiso   1.00
C55    C     0.66798   0.24531   0.92008   0.00000  Uiso   1.00
C56    C     0.70511   0.42470   0.28443   0.00000  Uiso   1.00
C57    C     0.73786   0.37803   0.33207   0.00000  Uiso   1.00
C58    C     0.80122   0.41698   0.32368   0.00000  Uiso   1.00
C59    C     0.90470   0.45132   0.33277   0.00000  Uiso   1.00
C60    C     0.68992   0.54660   0.18423   0.00000  Uiso   1.00
C61    C     0.61916   0.56954   0.25778   0.00000  Uiso   1.00
C62    C     0.58540   0.66089   0.27243   0.00000  Uiso   1.00
C63    C     0.52100   0.66669   0.34320   0.00000  Uiso   1.00
C64    C     0.67874   0.45868   0.13286   0.00000  Uiso   1.00
C65    C     0.69507   0.45681   0.04247   0.00000  Uiso   1.00
C66    C     0.68084   0.36927   0.00807   0.00000  Uiso   1.00
C67    C     0.73462   0.50733   0.23031   0.00000  Uiso   1.00
C68    C     0.79796   0.54635   0.22184   0.00000  Uiso   1.00
C69    C     0.83078   0.49975   0.26946   0.00000  Uiso   1.00
H70    H     0.61262   0.33014   0.32599   0.00000  Uiso   1.00
H71    H     0.50247   0.42861   0.42452   0.00000  Uiso   1.00
H72    H     0.61214   0.22456   0.19460   0.00000  Uiso   1.00
H73    H     0.71501   0.31409   0.37394   0.00000  Uiso   1.00
H74    H     0.39336   0.57422   0.50988   0.00000  Uiso   1.00
H75    H     0.62462   0.14395   0.02507   0.00000  Uiso   1.00
H76    H     0.84153   0.33273   0.40324   0.00000  Uiso   1.00
H77    H     0.71289   0.61093   0.14209   0.00000  Uiso   1.00
H78    H     0.60825   0.72482   0.23054   0.00000  Uiso   1.00
H79    H     0.71791   0.52076   0.00061   0.00000  Uiso   1.00
H80    H     0.82078   0.61029   0.17995   0.00000  Uiso   1.00
H81    H     0.47921   0.81463   0.35243   0.00000  Uiso   1.00
H82    H     0.71047   0.38436   0.86762   0.00000  Uiso   1.00
H83    H     0.92738   0.57315   0.24579   0.00000  Uiso   1.00
O84    O     0.36563   0.76427   0.49263   0.00000  Uiso   1.00
O85    O     0.66904   0.19976   0.85659   0.00000  Uiso   1.00
O86    O     0.95362   0.44745   0.35274   0.00000  Uiso   1.00
N87    N     0.42793   0.61518   0.46069   0.00000  Uiso   1.00
N88    N     0.64413   0.21290   0.00743   0.00000  Uiso   1.00
N89    N     0.84694   0.38938   0.36097   0.00000  Uiso   1.00
N90    N     0.47413   0.74454   0.37597   0.00000  Uiso   1.00
N91    N     0.69032   0.34227   0.92271   0.00000  Uiso   1.00
N92    N     0.89313   0.51875   0.27625   0.00000  Uiso   1.00
C93    C     0.86441   0.89447   0.21614   0.00000  Uiso   1.00
C94    C     0.91035   0.98691   0.18810   0.00000  Uiso   1.00
C95    C     0.97470   0.99258   0.11734   0.00000  Uiso   1.00
C96    C     0.00856   0.08391   0.10259   0.00000  Uiso   1.00
C97    C     0.08439   0.21487   0.05085   0.00000  Uiso   1.00
C98    C     0.85077   0.87605   0.31302   0.00000  Uiso   1.00
C99    C     0.86503   0.78849   0.34729   0.00000  Uiso   1.00
C100   C     0.84872   0.78650   0.43771   0.00000  Uiso   1.00
C101   C     0.83202   0.74531   0.57992   0.00000  Uiso   1.00
C102   C     0.79489   0.92470   0.21557   0.00000  Uiso   1.00
C103   C     0.76214   0.87803   0.16793   0.00000  Uiso   1.00
C104   C     0.69878   0.91698   0.17632   0.00000  Uiso   1.00
C105   C     0.59530   0.95132   0.16723   0.00000  Uiso   1.00
C106   C     0.81008   0.04660   0.31577   0.00000  Uiso   1.00
C107   C     0.88084   0.06954   0.24222   0.00000  Uiso   1.00
C108   C     0.91460   0.16089   0.22757   0.00000  Uiso   1.00
C109   C     0.97900   0.16669   0.15680   0.00000  Uiso   1.00
C110   C     0.82126   0.95868   0.36714   0.00000  Uiso   1.00
C111   C     0.80493   0.95681   0.45753   0.00000  Uiso   1.00
C112   C     0.81916   0.86927   0.49193   0.00000  Uiso   1.00
C113   C     0.76538   0.00733   0.26969   0.00000  Uiso   1.00
C114   C     0.70204   0.04635   0.27816   0.00000  Uiso   1.00
C115   C     0.66922   0.99975   0.23054   0.00000  Uiso   1.00
H116   H     0.88738   0.83014   0.17401   0.00000  Uiso   1.00
H117   H     0.99753   0.92861   0.07548   0.00000  Uiso   1.00
H118   H     0.88786   0.72456   0.30540   0.00000  Uiso   1.00
H119   H     0.78499   0.81409   0.12606   0.00000  Uiso   1.00
H120   H     0.10664   0.07422   0.99012   0.00000  Uiso   1.00
H121   H     0.87538   0.64395   0.47493   0.00000  Uiso   1.00
H122   H     0.65847   0.83273   0.09676   0.00000  Uiso   1.00
H123   H     0.78711   0.11093   0.35791   0.00000  Uiso   1.00
H124   H     0.89175   0.22482   0.26946   0.00000  Uiso   1.00
H125   H     0.78209   0.02076   0.49939   0.00000  Uiso   1.00
H126   H     0.67922   0.11029   0.32005   0.00000  Uiso   1.00
H127   H     0.02079   0.31463   0.14757   0.00000  Uiso   1.00
H128   H     0.78953   0.88436   0.63238   0.00000  Uiso   1.00
H129   H     0.57262   0.07315   0.25421   0.00000  Uiso   1.00
O130   O     0.13437   0.26427   0.00737   0.00000  Uiso   1.00
O131   O     0.83096   0.69976   0.64341   0.00000  Uiso   1.00
O132   O     0.54638   0.94745   0.14726   0.00000  Uiso   1.00
N133   N     0.07207   0.11518   0.03931   0.00000  Uiso   1.00
N134   N     0.85587   0.71290   0.49257   0.00000  Uiso   1.00
N135   N     0.65306   0.88938   0.13903   0.00000  Uiso   1.00
N136   N     0.02587   0.24454   0.12403   0.00000  Uiso   1.00
N137   N     0.80968   0.84227   0.57729   0.00000  Uiso   1.00
N138   N     0.60687   0.01875   0.22375   0.00000  Uiso   1.00
C139   C     0.36441   0.39447   0.21614   0.00000  Uiso   1.00
C140   C     0.41035   0.48691   0.18810   0.00000  Uiso   1.00
C141   C     0.47470   0.49258   0.11734   0.00000  Uiso   1.00
C142   C     0.50856   0.58391   0.10259   0.00000  Uiso   1.00
C143   C     0.58439   0.71487   0.05085   0.00000  Uiso   1.00
C144   C     0.35077   0.37605   0.31302   0.00000  Uiso   1.00
C145   C     0.36503   0.28849   0.34729   0.00000  Uiso   1.00
C146   C     0.34872   0.28650   0.43771   0.00000  Uiso   1.00
C147   C     0.33202   0.24531   0.57992   0.00000  Uiso   1.00
C148   C     0.29489   0.42470   0.21557   0.00000  Uiso   1.00
C149   C     0.26214   0.37803   0.16793   0.00000  Uiso   1.00
C150   C     0.19878   0.41698   0.17632   0.00000  Uiso   1.00
C151   C     0.09530   0.45132   0.16723   0.00000  Uiso   1.00
C152   C     0.31008   0.54660   0.31577   0.00000  Uiso   1.00
C153   C     0.38084   0.56954   0.24222   0.00000  Uiso   1.00
C154   C     0.41460   0.66089   0.22757   0.00000  Uiso   1.00
C155   C     0.47900   0.66669   0.15680   0.00000  Uiso   1.00
C156   C     0.32126   0.45868   0.36714   0.00000  Uiso   1.00
C157   C     0.30493   0.45681   0.45753   0.00000  Uiso   1.00
C158   C     0.31916   0.36927   0.49193   0.00000  Uiso   1.00
C159   C     0.26538   0.50733   0.26969   0.00000  Uiso   1.00
C160   C     0.20204   0.54635   0.27816   0.00000  Uiso   1.00
C161   C     0.16922   0.49975   0.23054   0.00000  Uiso   1.00
H162   H     0.38738   0.33014   0.17401   0.00000  Uiso   1.00
H163   H     0.49753   0.42861   0.07548   0.00000  Uiso   1.00
H164   H     0.38786   0.22456   0.30540   0.00000  Uiso   1.00
H165   H     0.28499   0.31409   0.12606   0.00000  Uiso   1.00
H166   H     0.60664   0.57422   0.99012   0.00000  Uiso   1.00
H167   H     0.37538   0.14395   0.47493   0.00000  Uiso   1.00
H168   H     0.15847   0.33273   0.09676   0.00000  Uiso   1.00
H169   H     0.28711   0.61093   0.35791   0.00000  Uiso   1.00
H170   H     0.39175   0.72482   0.26946   0.00000  Uiso   1.00
H171   H     0.28209   0.52076   0.49939   0.00000  Uiso   1.00
H172   H     0.17922   0.61029   0.32005   0.00000  Uiso   1.00
H173   H     0.52079   0.81463   0.14757   0.00000  Uiso   1.00
H174   H     0.28953   0.38436   0.63238   0.00000  Uiso   1.00
H175   H     0.07262   0.57315   0.25421   0.00000  Uiso   1.00
O176   O     0.63437   0.76427   0.00737   0.00000  Uiso   1.00
O177   O     0.33096   0.19976   0.64341   0.00000  Uiso   1.00
O178   O     0.04638   0.44745   0.14726   0.00000  Uiso   1.00
N179   N     0.57207   0.61518   0.03931   0.00000  Uiso   1.00
N180   N     0.35587   0.21290   0.49257   0.00000  Uiso   1.00
N181   N     0.15306   0.38938   0.13903   0.00000  Uiso   1.00
N182   N     0.52587   0.74454   0.12403   0.00000  Uiso   1.00
N183   N     0.30968   0.34227   0.57729   0.00000  Uiso   1.00
N184   N     0.10687   0.51875   0.22375   0.00000  Uiso   1.00
C185   C     0.86441   0.10553   0.71614   0.00000  Uiso   1.00
C186   C     0.91035   0.01309   0.68810   0.00000  Uiso   1.00
C187   C     0.97470   0.00742   0.61734   0.00000  Uiso   1.00
C188   C     0.00856   0.91609   0.60259   0.00000  Uiso   1.00
C189   C     0.08439   0.78513   0.55085   0.00000  Uiso   1.00
C190   C     0.85077   0.12395   0.81302   0.00000  Uiso   1.00
C191   C     0.86503   0.21151   0.84729   0.00000  Uiso   1.00
C192   C     0.84872   0.21350   0.93771   0.00000  Uiso   1.00
C193   C     0.83202   0.25469   0.07992   0.00000  Uiso   1.00
C194   C     0.79489   0.07530   0.71557   0.00000  Uiso   1.00
C195   C     0.76214   0.12197   0.66793   0.00000  Uiso   1.00
C196   C     0.69878   0.08302   0.67632   0.00000  Uiso   1.00
C197   C     0.59530   0.04868   0.66723   0.00000  Uiso   1.00
C198   C     0.81008   0.95340   0.81577   0.00000  Uiso   1.00
C199   C     0.88084   0.93046   0.74222   0.00000  Uiso   1.00
C200   C     0.91460   0.83911   0.72757   0.00000  Uiso   1.00
C201   C     0.97900   0.83331   0.65680   0.00000  Uiso   1.00
C202   C     0.82126   0.04132   0.86714   0.00000  Uiso   1.00
C203   C     0.80493   0.04319   0.95753   0.00000  Uiso   1.00
C204   C     0.81916   0.13073   0.99193   0.00000  Uiso   1.00
C205   C     0.76538   0.99267   0.76969   0.00000  Uiso   1.00
C206   C     0.70204   0.95365   0.77816   0.00000  Uiso   1.00
C207   C     0.66922   0.00025   0.73054   0.00000  Uiso   1.00
H208   H     0.88738   0.16986   0.67401   0.00000  Uiso   1.00
H209   H     0.99753   0.07139   0.57548   0.00000  Uiso   1.00
H210   H     0.88786   0.27544   0.80540   0.00000  Uiso   1.00
H211   H     0.78499   0.18591   0.62606   0.00000  Uiso   1.00
H212   H     0.10664   0.92578   0.49012   0.00000  Uiso   1.00
H213   H     0.87538   0.35605   0.97493   0.00000  Uiso   1.00
H214   H     0.65847   0.16727   0.59676   0.00000  Uiso   1.00
H215   H     0.78711   0.88907   0.85791   0.00000  Uiso   1.00
H216   H     0.89175   0.77518   0.76946   0.00000  Uiso   1.00
H217   H     0.78209   0.97924   0.99939   0.00000  Uiso   1.00
H218   H     0.67922   0.88971   0.82005   0.00000  Uiso   1.00
H219   H     0.02079   0.68537   0.64757   0.00000  Uiso   1.00
H220   H     0.78953   0.11564   0.13238   0.00000  Uiso   1.00
H221   H     0.57262   0.92685   0.75421   0.00000  Uiso   1.00
O222   O     0.13437   0.73573   0.50737   0.00000  Uiso   1.00
O223   O     0.83096   0.30024   0.14341   0.00000  Uiso   1.00
O224   O     0.54638   0.05255   0.64726   0.00000  Uiso   1.00
N225   N     0.07207   0.88482   0.53931   0.00000  Uiso   1.00
N226   N     0.85587   0.28710   0.99257   0.00000  Uiso   1.00
N227   N     0.65306   0.11062   0.63903   0.00000  Uiso   1.00
N228   N     0.02587   0.75546   0.62403   0.00000  Uiso   1.00
N229   N     0.80968   0.15773   0.07729   0.00000  Uiso   1.00
N230   N     0.60687   0.98125   0.72375   0.00000  Uiso   1.00
C231   C     0.36441   0.60553   0.71614   0.00000  Uiso   1.00
C232   C     0.41035   0.51309   0.68810   0.00000  Uiso   1.00
C233   C     0.47470   0.50742   0.61734   0.00000  Uiso   1.00
C234   C     0.50856   0.41609   0.60259   0.00000  Uiso   1.00
C235   C     0.58439   0.28513   0.55085   0.00000  Uiso   1.00
C236   C     0.35077   0.62395   0.81302   0.00000  Uiso   1.00
C237   C     0.36503   0.71151   0.84729   0.00000  Uiso   1.00
C238   C     0.34872   0.71350   0.93771   0.00000  Uiso   1.00
C239   C     0.33202   0.75469   0.07992   0.00000  Uiso   1.00
C240   C     0.29489   0.57530   0.71557   0.00000  Uiso   1.00
C241   C     0.26214   0.62197   0.66793   0.00000  Uiso   1.00
C242   C     0.19878   0.58302   0.67632   0.00000  Uiso   1.00
C243   C     0.09530   0.54868   0.66723   0.00000  Uiso   1.00
C244   C     0.31008   0.45340   0.81577   0.00000  Uiso   1.00
C245   C     0.38084   0.43046   0.74222   0.00000  Uiso   1.00
C246   C     0.41460   0.33911   0.72757   0.00000  Uiso   1.00
C247   C     0.47900   0.33331   0.65680   0.00000  Uiso   1.00
C248   C     0.32126   0.54132   0.86714   0.00000  Uiso   1.00
C249   C     0.30493   0.54319   0.95753   0.00000  Uiso   1.00
C250   C     0.31916   0.63073   0.99193   0.00000  Uiso   1.00
C251   C     0.26538   0.49267   0.76969   0.00000  Uiso   1.00
C252   C     0.20204   0.45365   0.77816   0.00000  Uiso   1.00
C253   C     0.16922   0.50025   0.73054   0.00000  Uiso   1.00
H254   H     0.38738   0.66986   0.67401   0.00000  Uiso   1.00
H255   H     0.49753   0.57139   0.57548   0.00000  Uiso   1.00
H256   H     0.38786   0.77544   0.80540   0.00000  Uiso   1.00
H257   H     0.28499   0.68591   0.62606   0.00000  Uiso   1.00
H258   H     0.60664   0.42578   0.49012   0.00000  Uiso   1.00
H259   H     0.37538   0.85605   0.97493   0.00000  Uiso   1.00
H260   H     0.15847   0.66727   0.59676   0.00000  Uiso   1.00
H261   H     0.28711   0.38907   0.85791   0.00000  Uiso   1.00
H262   H     0.39175   0.27518   0.76946   0.00000  Uiso   1.00
H263   H     0.28209   0.47924   0.99939   0.00000  Uiso   1.00
H264   H     0.17922   0.38971   0.82005   0.00000  Uiso   1.00
H265   H     0.52079   0.18537   0.64757   0.00000  Uiso   1.00
H266   H     0.28953   0.61564   0.13238   0.00000  Uiso   1.00
H267   H     0.07262   0.42685   0.75421   0.00000  Uiso   1.00
O268   O     0.63437   0.23573   0.50737   0.00000  Uiso   1.00
O269   O     0.33096   0.80024   0.14341   0.00000  Uiso   1.00
O270   O     0.04638   0.55255   0.64726   0.00000  Uiso   1.00
N271   N     0.57207   0.38482   0.53931   0.00000  Uiso   1.00
N272   N     0.35587   0.78710   0.99257   0.00000  Uiso   1.00
N273   N     0.15306   0.61062   0.63903   0.00000  Uiso   1.00
N274   N     0.52587   0.25546   0.62403   0.00000  Uiso   1.00
N275   N     0.30968   0.65773   0.07729   0.00000  Uiso   1.00
N276   N     0.10687   0.48125   0.72375   0.00000  Uiso   1.00
C277   C     0.13559   0.10553   0.78386   0.00000  Uiso   1.00
C278   C     0.08965   0.01309   0.81190   0.00000  Uiso   1.00
C279   C     0.02530   0.00742   0.88266   0.00000  Uiso   1.00
C280   C     0.99144   0.91609   0.89741   0.00000  Uiso   1.00
C281   C     0.91561   0.78513   0.94915   0.00000  Uiso   1.00
C282   C     0.14923   0.12395   0.68698   0.00000  Uiso   1.00
C283   C     0.13497   0.21151   0.65271   0.00000  Uiso   1.00
C284   C     0.15128   0.21350   0.56229   0.00000  Uiso   1.00
C285   C     0.16798   0.25469   0.42008   0.00000  Uiso   1.00
C286   C     0.20511   0.07530   0.78443   0.00000  Uiso   1.00
C287   C     0.23786   0.12197   0.83207   0.00000  Uiso   1.00
C288   C     0.30122   0.08302   0.82368   0.00000  Uiso   1.00
C289   C     0.40470   0.04868   0.83277   0.00000  Uiso   1.00
C290   C     0.18992   0.95340   0.68423   0.00000  Uiso   1.00
C291   C     0.11916   0.93046   0.75778   0.00000  Uiso   1.00
C292   C     0.08540   0.83911   0.77243   0.00000  Uiso   1.00
C293   C     0.02100   0.83331   0.84320   0.00000  Uiso   1.00
C294   C     0.17874   0.04132   0.63286   0.00000  Uiso   1.00
C295   C     0.19507   0.04319   0.54247   0.00000  Uiso   1.00
C296   C     0.18084   0.13073   0.50807   0.00000  Uiso   1.00
C297   C     0.23462   0.99267   0.73031   0.00000  Uiso   1.00
C298   C     0.29796   0.95365   0.72184   0.00000  Uiso   1.00
C299   C     0.33078   0.00025   0.76946   0.00000  Uiso   1.00
H300   H     0.11262   0.16986   0.82599   0.00000  Uiso   1.00
H301   H     0.00247   0.07139   0.92452   0.00000  Uiso   1.00
H302   H     0.11214   0.27544   0.69460   0.00000  Uiso   1.00
H303   H     0.21501   0.18591   0.87394   0.00000  Uiso   1.00
H304   H     0.89336   0.92578   0.00988   0.00000  Uiso   1.00
H305   H     0.12462   0.35605   0.52507   0.00000  Uiso   1.00
H306   H     0.34153   0.16727   0.90324   0.00000  Uiso   1.00
H307   H     0.21289   0.88907   0.64209   0.00000  Uiso   1.00
H308   H     0.10825   0.77518   0.73054   0.00000  Uiso   1.00
H309   H     0.21791   0.97924   0.50061   0.00000  Uiso   1.00
H310   H     0.32078   0.88971   0.67995   0.00000  Uiso   1.00
H311   H     0.97921   0.68537   0.85243   0.00000  Uiso   1.00
H312   H     0.21047   0.11564   0.36762   0.00000  Uiso   1.00
H313   H     0.42738   0.92685   0.74579   0.00000  Uiso   1.00
O314   O     0.86563   0.73573   0.99263   0.00000  Uiso   1.00
O315   O     0.16904   0.30024   0.35659   0.00000  Uiso   1.00
O316   O     0.45362   0.05255   0.85274   0.00000  Uiso   1.00
N317   N     0.92793   0.88482   0.96069   0.00000  Uiso   1.00
N318   N     0.14413   0.28710   0.50743   0.00000  Uiso   1.00
N319   N     0.34694   0.11062   0.86097   0.00000  Uiso   1.00
N320   N     0.97413   0.75546   0.87597   0.00000  Uiso   1.00
N321   N     0.19032   0.15773   0.42271   0.00000  Uiso   1.00
N322   N     0.39313   0.98125   0.77625   0.00000  Uiso   1.00
C323   C     0.63559   0.60553   0.78386   0.00000  Uiso   1.00
C324   C     0.58965   0.51309   0.81190   0.00000  Uiso   1.00
C325   C     0.52530   0.50742   0.88266   0.00000  Uiso   1.00
C326   C     0.49144   0.41609   0.89741   0.00000  Uiso   1.00
C327   C     0.41561   0.28513   0.94915   0.00000  Uiso   1.00
C328   C     0.64923   0.62395   0.68698   0.00000  Uiso   1.00
C329   C     0.63497   0.71151   0.65271   0.00000  Uiso   1.00
C330   C     0.65128   0.71350   0.56229   0.00000  Uiso   1.00
C331   C     0.66798   0.75469   0.42008   0.00000  Uiso   1.00
C332   C     0.70511   0.57530   0.78443   0.00000  Uiso   1.00
C333   C     0.73786   0.62197   0.83207   0.00000  Uiso   1.00
C334   C     0.80122   0.58302   0.82368   0.00000  Uiso   1.00
C335   C     0.90470   0.54868   0.83277   0.00000  Uiso   1.00
C336   C     0.68992   0.45340   0.68423   0.00000  Uiso   1.00
C337   C     0.61916   0.43046   0.75778   0.00000  Uiso   1.00
C338   C     0.58540   0.33911   0.77243   0.00000  Uiso   1.00
C339   C     0.52100   0.33331   0.84320   0.00000  Uiso   1.00
C340   C     0.67874   0.54132   0.63286   0.00000  Uiso   1.00
C341   C     0.69507   0.54319   0.54247   0.00000  Uiso   1.00
C342   C     0.68084   0.63073   0.50807   0.00000  Uiso   1.00
C343   C     0.73462   0.49267   0.73031   0.00000  Uiso   1.00
C344   C     0.79796   0.45365   0.72184   0.00000  Uiso   1.00
C345   C     0.83078   0.50025   0.76946   0.00000  Uiso   1.00
H346   H     0.61262   0.66986   0.82599   0.00000  Uiso   1.00
H347   H     0.50247   0.57139   0.92452   0.00000  Uiso   1.00
H348   H     0.61214   0.77544   0.69460   0.00000  Uiso   1.00
H349   H     0.71501   0.68591   0.87394   0.00000  Uiso   1.00
H350   H     0.39336   0.42578   0.00988   0.00000  Uiso   1.00
H351   H     0.62462   0.85605   0.52507   0.00000  Uiso   1.00
H352   H     0.84153   0.66727   0.90324   0.00000  Uiso   1.00
H353   H     0.71289   0.38907   0.64209   0.00000  Uiso   1.00
H354   H     0.60825   0.27518   0.73054   0.00000  Uiso   1.00
H355   H     0.71791   0.47924   0.50061   0.00000  Uiso   1.00
H356   H     0.82078   0.38971   0.67995   0.00000  Uiso   1.00
H357   H     0.47921   0.18537   0.85243   0.00000  Uiso   1.00
H358   H     0.71047   0.61564   0.36762   0.00000  Uiso   1.00
H359   H     0.92738   0.42685   0.74579   0.00000  Uiso   1.00
O360   O     0.36563   0.23573   0.99263   0.00000  Uiso   1.00
O361   O     0.66904   0.80024   0.35659   0.00000  Uiso   1.00
O362   O     0.95362   0.55255   0.85274   0.00000  Uiso   1.00
N363   N     0.42793   0.38482   0.96069   0.00000  Uiso   1.00
N364   N     0.64413   0.78710   0.50743   0.00000  Uiso   1.00
N365   N     0.84694   0.61062   0.86097   0.00000  Uiso   1.00
N366   N     0.47413   0.25546   0.87597   0.00000  Uiso   1.00
N367   N     0.69032   0.65773   0.42271   0.00000  Uiso   1.00
N368   N     0.89313   0.48125   0.77625   0.00000  Uiso   1.00
