data_job_01986
_audit_creation_date              2018-12-19
_audit_creation_method            'Materials Studio'
_symmetry_space_group_name_H-M    'P1'
_symmetry_Int_Tables_number       1
_symmetry_cell_setting            triclinic
loop_
_symmetry_equiv_pos_as_xyz
  x,y,z
_cell_length_a                    22.4059
_cell_length_b                    10.9331
_cell_length_c                    12.1331
_cell_angle_alpha                 90.0000
_cell_angle_beta                  96.5104
_cell_angle_gamma                 90.0000
loop_
_atom_site_label
_atom_site_type_symbol
_atom_site_fract_x
_atom_site_fract_y
_atom_site_fract_z
_atom_site_U_iso_or_equiv
_atom_site_adp_type
_atom_site_occupancy
C1     C     0.63410   0.99690   0.31464   0.00000  Uiso   1.00
C2     C     0.63300   0.08325   0.41309   0.00000  Uiso   1.00
C3     C     0.64266   0.05012   0.52410   0.00000  Uiso   1.00
C4     C     0.63974   0.14264   0.60169   0.00000  Uiso   1.00
C5     C     0.63986   0.25826   0.75948   0.00000  Uiso   1.00
C6     C     0.57340   0.01141   0.24514   0.00000  Uiso   1.00
C7     C     0.53296   0.91787   0.21493   0.00000  Uiso   1.00
C8     C     0.47988   0.94992   0.15113   0.00000  Uiso   1.00
C9     C     0.38749   0.95399   0.04810   0.00000  Uiso   1.00
C10    C     0.68056   0.04901   0.24485   0.00000  Uiso   1.00
C11    C     0.73020   0.98707   0.21436   0.00000  Uiso   1.00
C12    C     0.76733   0.05076   0.15028   0.00000  Uiso   1.00
C13    C     0.84131   0.11321   0.04681   0.00000  Uiso   1.00
C14    C     0.61174   0.22012   0.25505   0.00000  Uiso   1.00
C15    C     0.62086   0.20450   0.38072   0.00000  Uiso   1.00
C16    C     0.61793   0.29709   0.45816   0.00000  Uiso   1.00
C17    C     0.62758   0.26410   0.56927   0.00000  Uiso   1.00
C18    C     0.56126   0.13265   0.21277   0.00000  Uiso   1.00
C19    C     0.50823   0.16484   0.14899   0.00000  Uiso   1.00
C20    C     0.46771   0.07138   0.11870   0.00000  Uiso   1.00
C21    C     0.66842   0.17026   0.21248   0.00000  Uiso   1.00
C22    C     0.70547   0.23404   0.14843   0.00000  Uiso   1.00
C23    C     0.75517   0.17222   0.11785   0.00000  Uiso   1.00
H24    H     0.64355   0.90251   0.33984   0.00000  Uiso   1.00
H25    H     0.65205   0.95628   0.54911   0.00000  Uiso   1.00
H26    H     0.54237   0.82405   0.23998   0.00000  Uiso   1.00
H27    H     0.73958   0.89325   0.23942   0.00000  Uiso   1.00
H28    H     0.65610   0.06936   0.76686   0.00000  Uiso   1.00
H29    H     0.42485   0.79055   0.11501   0.00000  Uiso   1.00
H30    H     0.84071   0.93645   0.11382   0.00000  Uiso   1.00
H31    H     0.60229   0.31452   0.22984   0.00000  Uiso   1.00
H32    H     0.60853   0.39091   0.43309   0.00000  Uiso   1.00
H33    H     0.49885   0.25868   0.12396   0.00000  Uiso   1.00
H34    H     0.69606   0.32787   0.12340   0.00000  Uiso   1.00
H35    H     0.62078   0.42212   0.67269   0.00000  Uiso   1.00
H36    H     0.38952   0.14330   0.02083   0.00000  Uiso   1.00
H37    H     0.80538   0.28921   0.01965   0.00000  Uiso   1.00
O38    O     0.64327   0.28854   0.85546   0.00000  Uiso   1.00
O39    O     0.33988   0.92275   0.00024   0.00000  Uiso   1.00
O40    O     0.88548   0.11417   0.99868   0.00000  Uiso   1.00
N41    N     0.64695   0.14190   0.71681   0.00000  Uiso   1.00
N42    N     0.43073   0.88123   0.10737   0.00000  Uiso   1.00
N43    N     0.81952   0.01762   0.10624   0.00000  Uiso   1.00
N44    N     0.62794   0.33172   0.66613   0.00000  Uiso   1.00
N45    N     0.41172   0.07105   0.05670   0.00000  Uiso   1.00
N46    N     0.80051   0.20744   0.05557   0.00000  Uiso   1.00
C47    C     0.13410   0.49690   0.31464   0.00000  Uiso   1.00
C48    C     0.13300   0.58325   0.41309   0.00000  Uiso   1.00
C49    C     0.14266   0.55012   0.52410   0.00000  Uiso   1.00
C50    C     0.13974   0.64264   0.60169   0.00000  Uiso   1.00
C51    C     0.13986   0.75826   0.75948   0.00000  Uiso   1.00
C52    C     0.07340   0.51141   0.24514   0.00000  Uiso   1.00
C53    C     0.03296   0.41787   0.21493   0.00000  Uiso   1.00
C54    C     0.97988   0.44992   0.15113   0.00000  Uiso   1.00
C55    C     0.88749   0.45399   0.04810   0.00000  Uiso   1.00
C56    C     0.18056   0.54901   0.24485   0.00000  Uiso   1.00
C57    C     0.23020   0.48707   0.21436   0.00000  Uiso   1.00
C58    C     0.26733   0.55076   0.15028   0.00000  Uiso   1.00
C59    C     0.34131   0.61321   0.04681   0.00000  Uiso   1.00
C60    C     0.11174   0.72012   0.25505   0.00000  Uiso   1.00
C61    C     0.12086   0.70450   0.38072   0.00000  Uiso   1.00
C62    C     0.11793   0.79709   0.45816   0.00000  Uiso   1.00
C63    C     0.12758   0.76410   0.56927   0.00000  Uiso   1.00
C64    C     0.06126   0.63265   0.21277   0.00000  Uiso   1.00
C65    C     0.00823   0.66484   0.14899   0.00000  Uiso   1.00
C66    C     0.96771   0.57138   0.11870   0.00000  Uiso   1.00
C67    C     0.16842   0.67026   0.21248   0.00000  Uiso   1.00
C68    C     0.20547   0.73404   0.14843   0.00000  Uiso   1.00
C69    C     0.25517   0.67222   0.11785   0.00000  Uiso   1.00
H70    H     0.14355   0.40251   0.33984   0.00000  Uiso   1.00
H71    H     0.15205   0.45628   0.54911   0.00000  Uiso   1.00
H72    H     0.04237   0.32405   0.23998   0.00000  Uiso   1.00
H73    H     0.23958   0.39325   0.23942   0.00000  Uiso   1.00
H74    H     0.15610   0.56936   0.76686   0.00000  Uiso   1.00
H75    H     0.92485   0.29055   0.11501   0.00000  Uiso   1.00
H76    H     0.34071   0.43645   0.11382   0.00000  Uiso   1.00
H77    H     0.10229   0.81452   0.22984   0.00000  Uiso   1.00
H78    H     0.10853   0.89091   0.43309   0.00000  Uiso   1.00
H79    H     0.99885   0.75868   0.12396   0.00000  Uiso   1.00
H80    H     0.19606   0.82787   0.12340   0.00000  Uiso   1.00
H81    H     0.12078   0.92212   0.67269   0.00000  Uiso   1.00
H82    H     0.88952   0.64330   0.02083   0.00000  Uiso   1.00
H83    H     0.30538   0.78921   0.01965   0.00000  Uiso   1.00
O84    O     0.14327   0.78854   0.85546   0.00000  Uiso   1.00
O85    O     0.83988   0.42275   0.00024   0.00000  Uiso   1.00
O86    O     0.38548   0.61417   0.99868   0.00000  Uiso   1.00
N87    N     0.14695   0.64190   0.71681   0.00000  Uiso   1.00
N88    N     0.93073   0.38123   0.10737   0.00000  Uiso   1.00
N89    N     0.31952   0.51762   0.10624   0.00000  Uiso   1.00
N90    N     0.12794   0.83172   0.66613   0.00000  Uiso   1.00
N91    N     0.91172   0.57105   0.05670   0.00000  Uiso   1.00
N92    N     0.30051   0.70744   0.05557   0.00000  Uiso   1.00
C93    C     0.36590   0.99690   0.68536   0.00000  Uiso   1.00
C94    C     0.36700   0.08325   0.58691   0.00000  Uiso   1.00
C95    C     0.35734   0.05012   0.47590   0.00000  Uiso   1.00
C96    C     0.36026   0.14264   0.39831   0.00000  Uiso   1.00
C97    C     0.36014   0.25826   0.24052   0.00000  Uiso   1.00
C98    C     0.42660   0.01141   0.75486   0.00000  Uiso   1.00
C99    C     0.46704   0.91787   0.78507   0.00000  Uiso   1.00
C100   C     0.52012   0.94992   0.84887   0.00000  Uiso   1.00
C101   C     0.61251   0.95399   0.95190   0.00000  Uiso   1.00
C102   C     0.31944   0.04901   0.75515   0.00000  Uiso   1.00
C103   C     0.26980   0.98707   0.78564   0.00000  Uiso   1.00
C104   C     0.23267   0.05076   0.84972   0.00000  Uiso   1.00
C105   C     0.15869   0.11321   0.95319   0.00000  Uiso   1.00
C106   C     0.38826   0.22012   0.74495   0.00000  Uiso   1.00
C107   C     0.37914   0.20450   0.61928   0.00000  Uiso   1.00
C108   C     0.38207   0.29709   0.54184   0.00000  Uiso   1.00
C109   C     0.37242   0.26410   0.43073   0.00000  Uiso   1.00
C110   C     0.43874   0.13265   0.78723   0.00000  Uiso   1.00
C111   C     0.49177   0.16484   0.85101   0.00000  Uiso   1.00
C112   C     0.53229   0.07138   0.88130   0.00000  Uiso   1.00
C113   C     0.33158   0.17026   0.78752   0.00000  Uiso   1.00
C114   C     0.29453   0.23404   0.85157   0.00000  Uiso   1.00
C115   C     0.24483   0.17222   0.88215   0.00000  Uiso   1.00
H116   H     0.35645   0.90251   0.66016   0.00000  Uiso   1.00
H117   H     0.34795   0.95628   0.45089   0.00000  Uiso   1.00
H118   H     0.45763   0.82405   0.76002   0.00000  Uiso   1.00
H119   H     0.26042   0.89325   0.76058   0.00000  Uiso   1.00
H120   H     0.34390   0.06936   0.23314   0.00000  Uiso   1.00
H121   H     0.57515   0.79055   0.88499   0.00000  Uiso   1.00
H122   H     0.15929   0.93645   0.88618   0.00000  Uiso   1.00
H123   H     0.39771   0.31452   0.77016   0.00000  Uiso   1.00
H124   H     0.39147   0.39091   0.56691   0.00000  Uiso   1.00
H125   H     0.50115   0.25868   0.87604   0.00000  Uiso   1.00
H126   H     0.30394   0.32787   0.87660   0.00000  Uiso   1.00
H127   H     0.37922   0.42212   0.32731   0.00000  Uiso   1.00
H128   H     0.61048   0.14330   0.97917   0.00000  Uiso   1.00
H129   H     0.19462   0.28921   0.98035   0.00000  Uiso   1.00
O130   O     0.35673   0.28854   0.14454   0.00000  Uiso   1.00
O131   O     0.66012   0.92275   0.99976   0.00000  Uiso   1.00
O132   O     0.11452   0.11417   0.00132   0.00000  Uiso   1.00
N133   N     0.35305   0.14190   0.28319   0.00000  Uiso   1.00
N134   N     0.56927   0.88123   0.89263   0.00000  Uiso   1.00
N135   N     0.18048   0.01762   0.89376   0.00000  Uiso   1.00
N136   N     0.37206   0.33172   0.33387   0.00000  Uiso   1.00
N137   N     0.58828   0.07105   0.94330   0.00000  Uiso   1.00
N138   N     0.19949   0.20744   0.94443   0.00000  Uiso   1.00
C139   C     0.86590   0.49690   0.68536   0.00000  Uiso   1.00
C140   C     0.86700   0.58325   0.58691   0.00000  Uiso   1.00
C141   C     0.85734   0.55012   0.47590   0.00000  Uiso   1.00
C142   C     0.86026   0.64264   0.39831   0.00000  Uiso   1.00
C143   C     0.86014   0.75826   0.24052   0.00000  Uiso   1.00
C144   C     0.92660   0.51141   0.75486   0.00000  Uiso   1.00
C145   C     0.96704   0.41787   0.78507   0.00000  Uiso   1.00
C146   C     0.02012   0.44992   0.84887   0.00000  Uiso   1.00
C147   C     0.11251   0.45399   0.95190   0.00000  Uiso   1.00
C148   C     0.81944   0.54901   0.75515   0.00000  Uiso   1.00
C149   C     0.76980   0.48707   0.78564   0.00000  Uiso   1.00
C150   C     0.73267   0.55076   0.84972   0.00000  Uiso   1.00
C151   C     0.65869   0.61321   0.95319   0.00000  Uiso   1.00
C152   C     0.88826   0.72012   0.74495   0.00000  Uiso   1.00
C153   C     0.87914   0.70450   0.61928   0.00000  Uiso   1.00
C154   C     0.88207   0.79709   0.54184   0.00000  Uiso   1.00
C155   C     0.87242   0.76410   0.43073   0.00000  Uiso   1.00
C156   C     0.93874   0.63265   0.78723   0.00000  Uiso   1.00
C157   C     0.99177   0.66484   0.85101   0.00000  Uiso   1.00
C158   C     0.03229   0.57138   0.88130   0.00000  Uiso   1.00
C159   C     0.83158   0.67026   0.78752   0.00000  Uiso   1.00
C160   C     0.79453   0.73404   0.85157   0.00000  Uiso   1.00
C161   C     0.74483   0.67222   0.88215   0.00000  Uiso   1.00
H162   H     0.85645   0.40251   0.66016   0.00000  Uiso   1.00
H163   H     0.84795   0.45628   0.45089   0.00000  Uiso   1.00
H164   H     0.95763   0.32405   0.76002   0.00000  Uiso   1.00
H165   H     0.76042   0.39325   0.76058   0.00000  Uiso   1.00
H166   H     0.84390   0.56936   0.23314   0.00000  Uiso   1.00
H167   H     0.07515   0.29055   0.88499   0.00000  Uiso   1.00
H168   H     0.65929   0.43645   0.88618   0.00000  Uiso   1.00
H169   H     0.89771   0.81452   0.77016   0.00000  Uiso   1.00
H170   H     0.89147   0.89091   0.56691   0.00000  Uiso   1.00
H171   H     0.00115   0.75868   0.87604   0.00000  Uiso   1.00
H172   H     0.80394   0.82787   0.87660   0.00000  Uiso   1.00
H173   H     0.87922   0.92212   0.32731   0.00000  Uiso   1.00
H174   H     0.11048   0.64330   0.97917   0.00000  Uiso   1.00
H175   H     0.69462   0.78921   0.98035   0.00000  Uiso   1.00
O176   O     0.85673   0.78854   0.14454   0.00000  Uiso   1.00
O177   O     0.16012   0.42275   0.99976   0.00000  Uiso   1.00
O178   O     0.61452   0.61417   0.00132   0.00000  Uiso   1.00
N179   N     0.85305   0.64190   0.28319   0.00000  Uiso   1.00
N180   N     0.06927   0.38123   0.89263   0.00000  Uiso   1.00
N181   N     0.68048   0.51762   0.89376   0.00000  Uiso   1.00
N182   N     0.87206   0.83172   0.33387   0.00000  Uiso   1.00
N183   N     0.08828   0.57105   0.94330   0.00000  Uiso   1.00
N184   N     0.69949   0.70744   0.94443   0.00000  Uiso   1.00
