data_job_02327
_audit_creation_date              2018-12-19
_audit_creation_method            'Materials Studio'
_symmetry_space_group_name_H-M    'P1'
_symmetry_Int_Tables_number       1
_symmetry_cell_setting            triclinic
loop_
_symmetry_equiv_pos_as_xyz
  x,y,z
_cell_length_a                    12.6961
_cell_length_b                    12.6961
_cell_length_c                    36.5740
_cell_angle_alpha                 90.0000
_cell_angle_beta                  90.0000
_cell_angle_gamma                 120.0000
loop_
_atom_site_label
_atom_site_type_symbol
_atom_site_fract_x
_atom_site_fract_y
_atom_site_fract_z
_atom_site_U_iso_or_equiv
_atom_site_adp_type
_atom_site_occupancy
C1     C     0.94125   0.16669   0.88674   0.00000  Uiso   1.00
C2     C     0.03014   0.19159   0.91802   0.00000  Uiso   1.00
C3     C     0.15575   0.26338   0.91597   0.00000  Uiso   1.00
C4     C     0.22105   0.27478   0.94762   0.00000  Uiso   1.00
C5     C     0.36795   0.32227   0.99123   0.00000  Uiso   1.00
C6     C     0.86725   0.02874   0.88279   0.00000  Uiso   1.00
C7     C     0.85589   0.96362   0.85113   0.00000  Uiso   1.00
C8     C     0.78405   0.83795   0.85312   0.00000  Uiso   1.00
C9     C     0.67798   0.63262   0.84205   0.00000  Uiso   1.00
C10    C     0.85277   0.20613   0.90041   0.00000  Uiso   1.00
C11    C     0.82921   0.29014   0.88356   0.00000  Uiso   1.00
C12    C     0.74515   0.31379   0.90038   0.00000  Uiso   1.00
C13    C     0.61661   0.38389   0.91665   0.00000  Uiso   1.00
C14    C     0.83386   0.05930   0.94657   0.00000  Uiso   1.00
C15    C     0.97181   0.13325   0.95052   0.00000  Uiso   1.00
C16    C     0.03694   0.14456   0.98217   0.00000  Uiso   1.00
C17    C     0.16262   0.21635   0.98017   0.00000  Uiso   1.00
C18    C     0.80892   0.97041   0.91529   0.00000  Uiso   1.00
C19    C     0.73707   0.84481   0.91733   0.00000  Uiso   1.00
C20    C     0.72561   0.77951   0.88568   0.00000  Uiso   1.00
C21    C     0.79444   0.14781   0.93291   0.00000  Uiso   1.00
C22    C     0.71040   0.17133   0.94976   0.00000  Uiso   1.00
C23    C     0.68672   0.25535   0.93293   0.00000  Uiso   1.00
H24    H     0.98666   0.21210   0.86144   0.00000  Uiso   1.00
H25    H     0.20086   0.30849   0.89082   0.00000  Uiso   1.00
H26    H     0.90103   0.00879   0.82599   0.00000  Uiso   1.00
H27    H     0.87436   0.33526   0.85841   0.00000  Uiso   1.00
H28    H     0.41261   0.38961   0.93772   0.00000  Uiso   1.00
H29    H     0.78037   0.75766   0.80101   0.00000  Uiso   1.00
H30    H     0.72414   0.44609   0.86938   0.00000  Uiso   1.00
H31    H     0.78845   0.01388   0.97188   0.00000  Uiso   1.00
H32    H     0.99178   0.09941   0.00732   0.00000  Uiso   1.00
H33    H     0.69195   0.79970   0.94248   0.00000  Uiso   1.00
H34    H     0.66528   0.12617   0.97491   0.00000  Uiso   1.00
H35    H     0.24292   0.21990   0.03227   0.00000  Uiso   1.00
H36    H     0.61067   0.58795   0.89557   0.00000  Uiso   1.00
H37    H     0.55444   0.27638   0.96394   0.00000  Uiso   1.00
O38    O     0.46510   0.36456   0.00631   0.00000  Uiso   1.00
O39    O     0.63561   0.53548   0.82696   0.00000  Uiso   1.00
O40    O     0.56183   0.43868   0.91666   0.00000  Uiso   1.00
N41    N     0.34477   0.33795   0.95511   0.00000  Uiso   1.00
N42    N     0.75368   0.74712   0.82730   0.00000  Uiso   1.00
N43    N     0.70108   0.39072   0.89121   0.00000  Uiso   1.00
N44    N     0.25346   0.24663   0.00599   0.00000  Uiso   1.00
N45    N     0.66237   0.65580   0.87818   0.00000  Uiso   1.00
N46    N     0.60977   0.29940   0.94209   0.00000  Uiso   1.00
C47    C     0.83331   0.77456   0.55341   0.00000  Uiso   1.00
C48    C     0.80841   0.83855   0.58468   0.00000  Uiso   1.00
C49    C     0.73662   0.89237   0.58264   0.00000  Uiso   1.00
C50    C     0.72522   0.94627   0.61428   0.00000  Uiso   1.00
C51    C     0.67773   0.04569   0.65790   0.00000  Uiso   1.00
C52    C     0.97126   0.83851   0.54946   0.00000  Uiso   1.00
C53    C     0.03638   0.89226   0.51780   0.00000  Uiso   1.00
C54    C     0.16205   0.94610   0.51979   0.00000  Uiso   1.00
C55    C     0.36738   0.04536   0.50871   0.00000  Uiso   1.00
C56    C     0.79387   0.64664   0.56708   0.00000  Uiso   1.00
C57    C     0.70986   0.53907   0.55022   0.00000  Uiso   1.00
C58    C     0.68621   0.43136   0.56704   0.00000  Uiso   1.00
C59    C     0.61611   0.23272   0.58332   0.00000  Uiso   1.00
C60    C     0.94070   0.77456   0.61324   0.00000  Uiso   1.00
C61    C     0.86675   0.83856   0.61718   0.00000  Uiso   1.00
C62    C     0.85544   0.89238   0.64884   0.00000  Uiso   1.00
C63    C     0.78365   0.94627   0.64684   0.00000  Uiso   1.00
C64    C     0.02959   0.83851   0.58196   0.00000  Uiso   1.00
C65    C     0.15519   0.89227   0.58400   0.00000  Uiso   1.00
C66    C     0.22049   0.94610   0.55235   0.00000  Uiso   1.00
C67    C     0.85219   0.64664   0.59958   0.00000  Uiso   1.00
C68    C     0.82867   0.53908   0.61642   0.00000  Uiso   1.00
C69    C     0.74465   0.43136   0.59960   0.00000  Uiso   1.00
H70    H     0.78790   0.77456   0.52811   0.00000  Uiso   1.00
H71    H     0.69151   0.89236   0.55748   0.00000  Uiso   1.00
H72    H     0.99121   0.89224   0.49265   0.00000  Uiso   1.00
H73    H     0.66474   0.53910   0.52508   0.00000  Uiso   1.00
H74    H     0.61039   0.02301   0.60438   0.00000  Uiso   1.00
H75    H     0.24234   0.02271   0.46768   0.00000  Uiso   1.00
H76    H     0.55391   0.27805   0.53605   0.00000  Uiso   1.00
H77    H     0.98612   0.77457   0.63854   0.00000  Uiso   1.00
H78    H     0.90059   0.89237   0.67398   0.00000  Uiso   1.00
H79    H     0.20030   0.89225   0.60915   0.00000  Uiso   1.00
H80    H     0.87383   0.53911   0.64157   0.00000  Uiso   1.00
H81    H     0.78010   0.02302   0.69894   0.00000  Uiso   1.00
H82    H     0.41205   0.02272   0.56223   0.00000  Uiso   1.00
H83    H     0.72362   0.27806   0.63060   0.00000  Uiso   1.00
O84    O     0.63544   0.10054   0.67298   0.00000  Uiso   1.00
O85    O     0.46452   0.10013   0.49363   0.00000  Uiso   1.00
O86    O     0.56132   0.12315   0.58333   0.00000  Uiso   1.00
N87    N     0.66205   0.00682   0.62178   0.00000  Uiso   1.00
N88    N     0.25288   0.00656   0.49397   0.00000  Uiso   1.00
N89    N     0.60928   0.31036   0.55788   0.00000  Uiso   1.00
N90    N     0.75337   0.00682   0.67265   0.00000  Uiso   1.00
N91    N     0.34420   0.00657   0.54485   0.00000  Uiso   1.00
N92    N     0.70060   0.31037   0.60876   0.00000  Uiso   1.00
C93    C     0.22544   0.05875   0.22007   0.00000  Uiso   1.00
C94    C     0.16145   0.96986   0.25135   0.00000  Uiso   1.00
C95    C     0.10763   0.84425   0.24931   0.00000  Uiso   1.00
C96    C     0.05373   0.77895   0.28095   0.00000  Uiso   1.00
C97    C     0.95431   0.63205   0.32457   0.00000  Uiso   1.00
C98    C     0.16149   0.13275   0.21613   0.00000  Uiso   1.00
C99    C     0.10774   0.14411   0.18447   0.00000  Uiso   1.00
C100   C     0.05390   0.21595   0.18646   0.00000  Uiso   1.00
C101   C     0.95464   0.32202   0.17538   0.00000  Uiso   1.00
C102   C     0.35336   0.14723   0.23374   0.00000  Uiso   1.00
C103   C     0.46093   0.17079   0.21689   0.00000  Uiso   1.00
C104   C     0.56864   0.25485   0.23371   0.00000  Uiso   1.00
C105   C     0.76728   0.38339   0.24999   0.00000  Uiso   1.00
C106   C     0.22544   0.16614   0.27991   0.00000  Uiso   1.00
C107   C     0.16144   0.02819   0.28385   0.00000  Uiso   1.00
C108   C     0.10762   0.96306   0.31550   0.00000  Uiso   1.00
C109   C     0.05373   0.83738   0.31351   0.00000  Uiso   1.00
C110   C     0.16149   0.19108   0.24862   0.00000  Uiso   1.00
C111   C     0.10773   0.26293   0.25066   0.00000  Uiso   1.00
C112   C     0.05390   0.27439   0.21901   0.00000  Uiso   1.00
C113   C     0.35336   0.20556   0.26624   0.00000  Uiso   1.00
C114   C     0.46092   0.28960   0.28309   0.00000  Uiso   1.00
C115   C     0.56864   0.31328   0.26627   0.00000  Uiso   1.00
H116   H     0.22544   0.01334   0.19477   0.00000  Uiso   1.00
H117   H     0.10764   0.79914   0.22415   0.00000  Uiso   1.00
H118   H     0.10776   0.09897   0.15932   0.00000  Uiso   1.00
H119   H     0.46090   0.12564   0.19174   0.00000  Uiso   1.00
H120   H     0.97699   0.58739   0.27105   0.00000  Uiso   1.00
H121   H     0.97729   0.21963   0.13435   0.00000  Uiso   1.00
H122   H     0.72195   0.27586   0.20271   0.00000  Uiso   1.00
H123   H     0.22543   0.21155   0.30521   0.00000  Uiso   1.00
H124   H     0.10763   0.00822   0.34065   0.00000  Uiso   1.00
H125   H     0.10775   0.30805   0.27582   0.00000  Uiso   1.00
H126   H     0.46089   0.33472   0.30824   0.00000  Uiso   1.00
H127   H     0.97698   0.75708   0.36560   0.00000  Uiso   1.00
H128   H     0.97728   0.38933   0.22890   0.00000  Uiso   1.00
H129   H     0.72194   0.44556   0.29727   0.00000  Uiso   1.00
O130   O     0.89946   0.53490   0.33965   0.00000  Uiso   1.00
O131   O     0.89987   0.36439   0.16029   0.00000  Uiso   1.00
O132   O     0.87685   0.43817   0.24999   0.00000  Uiso   1.00
N133   N     0.99318   0.65523   0.28844   0.00000  Uiso   1.00
N134   N     0.99344   0.24632   0.16063   0.00000  Uiso   1.00
N135   N     0.68964   0.29892   0.22455   0.00000  Uiso   1.00
N136   N     0.99318   0.74654   0.33932   0.00000  Uiso   1.00
N137   N     0.99343   0.33763   0.21151   0.00000  Uiso   1.00
N138   N     0.68963   0.39023   0.27543   0.00000  Uiso   1.00
C139   C     0.83331   0.05875   0.44659   0.00000  Uiso   1.00
C140   C     0.80841   0.96986   0.41532   0.00000  Uiso   1.00
C141   C     0.73662   0.84425   0.41736   0.00000  Uiso   1.00
C142   C     0.72522   0.77895   0.38572   0.00000  Uiso   1.00
C143   C     0.67773   0.63205   0.34210   0.00000  Uiso   1.00
C144   C     0.97126   0.13275   0.45054   0.00000  Uiso   1.00
C145   C     0.03638   0.14411   0.48220   0.00000  Uiso   1.00
C146   C     0.16205   0.21595   0.48021   0.00000  Uiso   1.00
C147   C     0.36738   0.32202   0.49129   0.00000  Uiso   1.00
C148   C     0.79387   0.14723   0.43292   0.00000  Uiso   1.00
C149   C     0.70986   0.17079   0.44978   0.00000  Uiso   1.00
C150   C     0.68621   0.25485   0.43296   0.00000  Uiso   1.00
C151   C     0.61611   0.38339   0.41668   0.00000  Uiso   1.00
C152   C     0.94070   0.16614   0.38676   0.00000  Uiso   1.00
C153   C     0.86675   0.02819   0.38282   0.00000  Uiso   1.00
C154   C     0.85544   0.96306   0.35116   0.00000  Uiso   1.00
C155   C     0.78365   0.83738   0.35316   0.00000  Uiso   1.00
C156   C     0.02959   0.19108   0.41804   0.00000  Uiso   1.00
C157   C     0.15519   0.26293   0.41600   0.00000  Uiso   1.00
C158   C     0.22049   0.27439   0.44765   0.00000  Uiso   1.00
C159   C     0.85219   0.20556   0.40042   0.00000  Uiso   1.00
C160   C     0.82867   0.28960   0.38358   0.00000  Uiso   1.00
C161   C     0.74465   0.31328   0.40040   0.00000  Uiso   1.00
H162   H     0.78790   0.01334   0.47189   0.00000  Uiso   1.00
H163   H     0.69151   0.79914   0.44252   0.00000  Uiso   1.00
H164   H     0.99121   0.09897   0.50735   0.00000  Uiso   1.00
H165   H     0.66474   0.12564   0.47492   0.00000  Uiso   1.00
H166   H     0.61039   0.58739   0.39562   0.00000  Uiso   1.00
H167   H     0.24234   0.21963   0.53232   0.00000  Uiso   1.00
H168   H     0.55391   0.27586   0.46395   0.00000  Uiso   1.00
H169   H     0.98612   0.21155   0.36146   0.00000  Uiso   1.00
H170   H     0.90059   0.00822   0.32602   0.00000  Uiso   1.00
H171   H     0.20030   0.30805   0.39085   0.00000  Uiso   1.00
H172   H     0.87383   0.33472   0.35843   0.00000  Uiso   1.00
H173   H     0.78010   0.75708   0.30106   0.00000  Uiso   1.00
H174   H     0.41205   0.38933   0.43777   0.00000  Uiso   1.00
H175   H     0.72362   0.44556   0.36940   0.00000  Uiso   1.00
O176   O     0.63544   0.53490   0.32702   0.00000  Uiso   1.00
O177   O     0.46452   0.36439   0.50637   0.00000  Uiso   1.00
O178   O     0.56132   0.43817   0.41667   0.00000  Uiso   1.00
N179   N     0.66205   0.65523   0.37822   0.00000  Uiso   1.00
N180   N     0.25288   0.24632   0.50603   0.00000  Uiso   1.00
N181   N     0.60928   0.29892   0.44212   0.00000  Uiso   1.00
N182   N     0.75337   0.74654   0.32735   0.00000  Uiso   1.00
N183   N     0.34420   0.33763   0.45515   0.00000  Uiso   1.00
N184   N     0.70060   0.39023   0.39124   0.00000  Uiso   1.00
C185   C     0.22544   0.16669   0.77993   0.00000  Uiso   1.00
C186   C     0.16145   0.19159   0.74865   0.00000  Uiso   1.00
C187   C     0.10763   0.26338   0.75069   0.00000  Uiso   1.00
C188   C     0.05373   0.27478   0.71905   0.00000  Uiso   1.00
C189   C     0.95431   0.32227   0.67543   0.00000  Uiso   1.00
C190   C     0.16149   0.02874   0.78387   0.00000  Uiso   1.00
C191   C     0.10774   0.96362   0.81553   0.00000  Uiso   1.00
C192   C     0.05390   0.83795   0.81354   0.00000  Uiso   1.00
C193   C     0.95464   0.63262   0.82462   0.00000  Uiso   1.00
C194   C     0.35336   0.20613   0.76626   0.00000  Uiso   1.00
C195   C     0.46093   0.29014   0.78311   0.00000  Uiso   1.00
C196   C     0.56864   0.31379   0.76629   0.00000  Uiso   1.00
C197   C     0.76728   0.38389   0.75001   0.00000  Uiso   1.00
C198   C     0.22544   0.05930   0.72009   0.00000  Uiso   1.00
C199   C     0.16144   0.13325   0.71615   0.00000  Uiso   1.00
C200   C     0.10762   0.14456   0.68450   0.00000  Uiso   1.00
C201   C     0.05373   0.21635   0.68649   0.00000  Uiso   1.00
C202   C     0.16149   0.97041   0.75138   0.00000  Uiso   1.00
C203   C     0.10773   0.84481   0.74934   0.00000  Uiso   1.00
C204   C     0.05390   0.77951   0.78099   0.00000  Uiso   1.00
C205   C     0.35336   0.14781   0.73376   0.00000  Uiso   1.00
C206   C     0.46092   0.17133   0.71691   0.00000  Uiso   1.00
C207   C     0.56864   0.25535   0.73373   0.00000  Uiso   1.00
H208   H     0.22544   0.21210   0.80523   0.00000  Uiso   1.00
H209   H     0.10764   0.30849   0.77585   0.00000  Uiso   1.00
H210   H     0.10776   0.00879   0.84068   0.00000  Uiso   1.00
H211   H     0.46090   0.33526   0.80826   0.00000  Uiso   1.00
H212   H     0.97699   0.38961   0.72895   0.00000  Uiso   1.00
H213   H     0.97729   0.75766   0.86565   0.00000  Uiso   1.00
H214   H     0.72195   0.44609   0.79729   0.00000  Uiso   1.00
H215   H     0.22543   0.01388   0.69479   0.00000  Uiso   1.00
H216   H     0.10763   0.09941   0.65935   0.00000  Uiso   1.00
H217   H     0.10775   0.79970   0.72418   0.00000  Uiso   1.00
H218   H     0.46089   0.12617   0.69176   0.00000  Uiso   1.00
H219   H     0.97698   0.21990   0.63440   0.00000  Uiso   1.00
H220   H     0.97728   0.58795   0.77110   0.00000  Uiso   1.00
H221   H     0.72194   0.27638   0.70273   0.00000  Uiso   1.00
O222   O     0.89946   0.36456   0.66035   0.00000  Uiso   1.00
O223   O     0.89987   0.53548   0.83971   0.00000  Uiso   1.00
O224   O     0.87685   0.43868   0.75001   0.00000  Uiso   1.00
N225   N     0.99318   0.33795   0.71156   0.00000  Uiso   1.00
N226   N     0.99344   0.74712   0.83937   0.00000  Uiso   1.00
N227   N     0.68964   0.39072   0.77545   0.00000  Uiso   1.00
N228   N     0.99318   0.24663   0.66068   0.00000  Uiso   1.00
N229   N     0.99343   0.65580   0.78849   0.00000  Uiso   1.00
N230   N     0.68963   0.29940   0.72457   0.00000  Uiso   1.00
C231   C     0.94125   0.77456   0.11326   0.00000  Uiso   1.00
C232   C     0.03014   0.83855   0.08198   0.00000  Uiso   1.00
C233   C     0.15575   0.89237   0.08403   0.00000  Uiso   1.00
C234   C     0.22105   0.94627   0.05238   0.00000  Uiso   1.00
C235   C     0.36795   0.04569   0.00877   0.00000  Uiso   1.00
C236   C     0.86725   0.83851   0.11721   0.00000  Uiso   1.00
C237   C     0.85589   0.89226   0.14887   0.00000  Uiso   1.00
C238   C     0.78405   0.94610   0.14688   0.00000  Uiso   1.00
C239   C     0.67798   0.04536   0.15795   0.00000  Uiso   1.00
C240   C     0.85277   0.64664   0.09959   0.00000  Uiso   1.00
C241   C     0.82921   0.53907   0.11644   0.00000  Uiso   1.00
C242   C     0.74515   0.43136   0.09962   0.00000  Uiso   1.00
C243   C     0.61661   0.23272   0.08335   0.00000  Uiso   1.00
C244   C     0.83386   0.77456   0.05343   0.00000  Uiso   1.00
C245   C     0.97181   0.83856   0.04948   0.00000  Uiso   1.00
C246   C     0.03694   0.89238   0.01783   0.00000  Uiso   1.00
C247   C     0.16262   0.94627   0.01983   0.00000  Uiso   1.00
C248   C     0.80892   0.83851   0.08471   0.00000  Uiso   1.00
C249   C     0.73707   0.89227   0.08267   0.00000  Uiso   1.00
C250   C     0.72561   0.94610   0.11432   0.00000  Uiso   1.00
C251   C     0.79444   0.64664   0.06709   0.00000  Uiso   1.00
C252   C     0.71040   0.53908   0.05024   0.00000  Uiso   1.00
C253   C     0.68672   0.43136   0.06707   0.00000  Uiso   1.00
H254   H     0.98666   0.77456   0.13856   0.00000  Uiso   1.00
H255   H     0.20086   0.89236   0.10918   0.00000  Uiso   1.00
H256   H     0.90103   0.89224   0.17401   0.00000  Uiso   1.00
H257   H     0.87436   0.53910   0.14159   0.00000  Uiso   1.00
H258   H     0.41261   0.02301   0.06228   0.00000  Uiso   1.00
H259   H     0.78037   0.02271   0.19899   0.00000  Uiso   1.00
H260   H     0.72414   0.27805   0.13062   0.00000  Uiso   1.00
H261   H     0.78845   0.77457   0.02812   0.00000  Uiso   1.00
H262   H     0.99178   0.89237   0.99268   0.00000  Uiso   1.00
H263   H     0.69195   0.89225   0.05752   0.00000  Uiso   1.00
H264   H     0.66528   0.53911   0.02509   0.00000  Uiso   1.00
H265   H     0.24292   0.02302   0.96773   0.00000  Uiso   1.00
H266   H     0.61067   0.02272   0.10443   0.00000  Uiso   1.00
H267   H     0.55444   0.27806   0.03606   0.00000  Uiso   1.00
O268   O     0.46510   0.10054   0.99369   0.00000  Uiso   1.00
O269   O     0.63561   0.10013   0.17304   0.00000  Uiso   1.00
O270   O     0.56183   0.12315   0.08334   0.00000  Uiso   1.00
N271   N     0.34477   0.00682   0.04489   0.00000  Uiso   1.00
N272   N     0.75368   0.00656   0.17270   0.00000  Uiso   1.00
N273   N     0.70108   0.31036   0.10879   0.00000  Uiso   1.00
N274   N     0.25346   0.00682   0.99401   0.00000  Uiso   1.00
N275   N     0.66237   0.00657   0.12182   0.00000  Uiso   1.00
N276   N     0.60977   0.31037   0.05791   0.00000  Uiso   1.00
