data_job_03457
_audit_creation_date              2018-12-19
_audit_creation_method            'Materials Studio'
_symmetry_space_group_name_H-M    'P1'
_symmetry_Int_Tables_number       1
_symmetry_cell_setting            triclinic
loop_
_symmetry_equiv_pos_as_xyz
  x,y,z
_cell_length_a                    17.4557
_cell_length_b                    17.4557
_cell_length_c                    16.1210
_cell_angle_alpha                 90.0000
_cell_angle_beta                  90.0000
_cell_angle_gamma                 90.0000
loop_
_atom_site_label
_atom_site_type_symbol
_atom_site_fract_x
_atom_site_fract_y
_atom_site_fract_z
_atom_site_U_iso_or_equiv
_atom_site_adp_type
_atom_site_occupancy
C1     C     0.94120   0.68735   0.75173   0.00000  Uiso   1.00
C2     C     0.96464   0.68203   0.84267   0.00000  Uiso   1.00
C3     C     0.99725   0.61863   0.88076   0.00000  Uiso   1.00
C4     C     0.01455   0.62520   0.96452   0.00000  Uiso   1.00
C5     C     0.05316   0.60665   0.09905   0.00000  Uiso   1.00
C6     C     0.85655   0.70893   0.75161   0.00000  Uiso   1.00
C7     C     0.79828   0.66815   0.71313   0.00000  Uiso   1.00
C8     C     0.72459   0.69736   0.72023   0.00000  Uiso   1.00
C9     C     0.59539   0.72059   0.71333   0.00000  Uiso   1.00
C10    C     0.98373   0.75634   0.71642   0.00000  Uiso   1.00
C11    C     0.03238   0.75543   0.64834   0.00000  Uiso   1.00
C12    C     0.06575   0.82457   0.62579   0.00000  Uiso   1.00
C13    C     0.13402   0.92142   0.56426   0.00000  Uiso   1.00
C14    C     0.91394   0.81175   0.83274   0.00000  Uiso   1.00
C15    C     0.94983   0.74960   0.88667   0.00000  Uiso   1.00
C16    C     0.96709   0.75627   0.97040   0.00000  Uiso   1.00
C17    C     0.99972   0.69289   0.00861   0.00000  Uiso   1.00
C18    C     0.84174   0.77650   0.79561   0.00000  Uiso   1.00
C19    C     0.76812   0.80578   0.80276   0.00000  Uiso   1.00
C20    C     0.70975   0.76505   0.76431   0.00000  Uiso   1.00
C21    C     0.96892   0.82391   0.76042   0.00000  Uiso   1.00
C22    C     0.00222   0.89307   0.73798   0.00000  Uiso   1.00
C23    C     0.05091   0.89226   0.66988   0.00000  Uiso   1.00
H24    H     0.95273   0.63475   0.71747   0.00000  Uiso   1.00
H25    H     0.00869   0.56635   0.84669   0.00000  Uiso   1.00
H26    H     0.80976   0.61586   0.67907   0.00000  Uiso   1.00
H27    H     0.04382   0.70313   0.61430   0.00000  Uiso   1.00
H28    H     0.06419   0.52031   0.00937   0.00000  Uiso   1.00
H29    H     0.64473   0.62472   0.65592   0.00000  Uiso   1.00
H30    H     0.13829   0.80875   0.51933   0.00000  Uiso   1.00
H31    H     0.90241   0.86436   0.86700   0.00000  Uiso   1.00
H32    H     0.95562   0.80856   0.00443   0.00000  Uiso   1.00
H33    H     0.75668   0.85807   0.83682   0.00000  Uiso   1.00
H34    H     0.99074   0.94534   0.77204   0.00000  Uiso   1.00
H35    H     0.02111   0.71689   0.13740   0.00000  Uiso   1.00
H36    H     0.60164   0.82131   0.78395   0.00000  Uiso   1.00
H37    H     0.09521   0.00534   0.64736   0.00000  Uiso   1.00
O38    O     0.07854   0.57774   0.16110   0.00000  Uiso   1.00
O39    O     0.52822   0.71474   0.69737   0.00000  Uiso   1.00
O40    O     0.17577   0.95618   0.51817   0.00000  Uiso   1.00
N41    N     0.04676   0.57424   0.02064   0.00000  Uiso   1.00
N42    N     0.65459   0.67185   0.69019   0.00000  Uiso   1.00
N43    N     0.11601   0.84390   0.56248   0.00000  Uiso   1.00
N44    N     0.02358   0.68002   0.08953   0.00000  Uiso   1.00
N45    N     0.63141   0.77763   0.75909   0.00000  Uiso   1.00
N46    N     0.09283   0.94969   0.63137   0.00000  Uiso   1.00
C47    C     0.44120   0.18735   0.25173   0.00000  Uiso   1.00
C48    C     0.46464   0.18203   0.34267   0.00000  Uiso   1.00
C49    C     0.49725   0.11863   0.38076   0.00000  Uiso   1.00
C50    C     0.51455   0.12520   0.46452   0.00000  Uiso   1.00
C51    C     0.55316   0.10665   0.59905   0.00000  Uiso   1.00
C52    C     0.35655   0.20893   0.25161   0.00000  Uiso   1.00
C53    C     0.29828   0.16815   0.21313   0.00000  Uiso   1.00
C54    C     0.22459   0.19736   0.22023   0.00000  Uiso   1.00
C55    C     0.09539   0.22059   0.21333   0.00000  Uiso   1.00
C56    C     0.48373   0.25634   0.21642   0.00000  Uiso   1.00
C57    C     0.53238   0.25543   0.14834   0.00000  Uiso   1.00
C58    C     0.56575   0.32457   0.12579   0.00000  Uiso   1.00
C59    C     0.63402   0.42142   0.06426   0.00000  Uiso   1.00
C60    C     0.41394   0.31175   0.33274   0.00000  Uiso   1.00
C61    C     0.44983   0.24960   0.38667   0.00000  Uiso   1.00
C62    C     0.46709   0.25627   0.47040   0.00000  Uiso   1.00
C63    C     0.49972   0.19289   0.50861   0.00000  Uiso   1.00
C64    C     0.34174   0.27650   0.29561   0.00000  Uiso   1.00
C65    C     0.26812   0.30578   0.30276   0.00000  Uiso   1.00
C66    C     0.20975   0.26505   0.26431   0.00000  Uiso   1.00
C67    C     0.46892   0.32391   0.26042   0.00000  Uiso   1.00
C68    C     0.50222   0.39307   0.23798   0.00000  Uiso   1.00
C69    C     0.55091   0.39226   0.16988   0.00000  Uiso   1.00
H70    H     0.45273   0.13475   0.21747   0.00000  Uiso   1.00
H71    H     0.50869   0.06635   0.34669   0.00000  Uiso   1.00
H72    H     0.30976   0.11586   0.17907   0.00000  Uiso   1.00
H73    H     0.54382   0.20313   0.11430   0.00000  Uiso   1.00
H74    H     0.56419   0.02031   0.50937   0.00000  Uiso   1.00
H75    H     0.14473   0.12472   0.15592   0.00000  Uiso   1.00
H76    H     0.63829   0.30875   0.01933   0.00000  Uiso   1.00
H77    H     0.40241   0.36436   0.36700   0.00000  Uiso   1.00
H78    H     0.45562   0.30856   0.50443   0.00000  Uiso   1.00
H79    H     0.25668   0.35807   0.33682   0.00000  Uiso   1.00
H80    H     0.49074   0.44534   0.27204   0.00000  Uiso   1.00
H81    H     0.52111   0.21689   0.63740   0.00000  Uiso   1.00
H82    H     0.10164   0.32131   0.28395   0.00000  Uiso   1.00
H83    H     0.59521   0.50534   0.14736   0.00000  Uiso   1.00
O84    O     0.57854   0.07774   0.66110   0.00000  Uiso   1.00
O85    O     0.02822   0.21474   0.19737   0.00000  Uiso   1.00
O86    O     0.67577   0.45618   0.01817   0.00000  Uiso   1.00
N87    N     0.54676   0.07424   0.52064   0.00000  Uiso   1.00
N88    N     0.15459   0.17185   0.19019   0.00000  Uiso   1.00
N89    N     0.61601   0.34390   0.06248   0.00000  Uiso   1.00
N90    N     0.52358   0.18002   0.58953   0.00000  Uiso   1.00
N91    N     0.13141   0.27763   0.25909   0.00000  Uiso   1.00
N92    N     0.59283   0.44969   0.13137   0.00000  Uiso   1.00
C93    C     0.05880   0.31265   0.75173   0.00000  Uiso   1.00
C94    C     0.03536   0.31797   0.84267   0.00000  Uiso   1.00
C95    C     0.00275   0.38137   0.88076   0.00000  Uiso   1.00
C96    C     0.98545   0.37480   0.96452   0.00000  Uiso   1.00
C97    C     0.94684   0.39335   0.09905   0.00000  Uiso   1.00
C98    C     0.14345   0.29107   0.75161   0.00000  Uiso   1.00
C99    C     0.20172   0.33185   0.71313   0.00000  Uiso   1.00
C100   C     0.27541   0.30264   0.72023   0.00000  Uiso   1.00
C101   C     0.40461   0.27941   0.71333   0.00000  Uiso   1.00
C102   C     0.01627   0.24366   0.71642   0.00000  Uiso   1.00
C103   C     0.96762   0.24457   0.64834   0.00000  Uiso   1.00
C104   C     0.93425   0.17543   0.62579   0.00000  Uiso   1.00
C105   C     0.86598   0.07858   0.56426   0.00000  Uiso   1.00
C106   C     0.08606   0.18825   0.83274   0.00000  Uiso   1.00
C107   C     0.05017   0.25040   0.88667   0.00000  Uiso   1.00
C108   C     0.03291   0.24373   0.97040   0.00000  Uiso   1.00
C109   C     0.00028   0.30711   0.00861   0.00000  Uiso   1.00
C110   C     0.15826   0.22350   0.79561   0.00000  Uiso   1.00
C111   C     0.23188   0.19422   0.80276   0.00000  Uiso   1.00
C112   C     0.29025   0.23495   0.76431   0.00000  Uiso   1.00
C113   C     0.03108   0.17609   0.76042   0.00000  Uiso   1.00
C114   C     0.99778   0.10693   0.73798   0.00000  Uiso   1.00
C115   C     0.94909   0.10774   0.66988   0.00000  Uiso   1.00
H116   H     0.04727   0.36525   0.71747   0.00000  Uiso   1.00
H117   H     0.99131   0.43365   0.84669   0.00000  Uiso   1.00
H118   H     0.19024   0.38414   0.67907   0.00000  Uiso   1.00
H119   H     0.95618   0.29687   0.61430   0.00000  Uiso   1.00
H120   H     0.93581   0.47969   0.00937   0.00000  Uiso   1.00
H121   H     0.35527   0.37528   0.65592   0.00000  Uiso   1.00
H122   H     0.86171   0.19125   0.51933   0.00000  Uiso   1.00
H123   H     0.09759   0.13564   0.86700   0.00000  Uiso   1.00
H124   H     0.04438   0.19144   0.00443   0.00000  Uiso   1.00
H125   H     0.24332   0.14193   0.83682   0.00000  Uiso   1.00
H126   H     0.00926   0.05466   0.77204   0.00000  Uiso   1.00
H127   H     0.97889   0.28311   0.13740   0.00000  Uiso   1.00
H128   H     0.39836   0.17869   0.78395   0.00000  Uiso   1.00
H129   H     0.90479   0.99466   0.64736   0.00000  Uiso   1.00
O130   O     0.92146   0.42226   0.16110   0.00000  Uiso   1.00
O131   O     0.47178   0.28526   0.69737   0.00000  Uiso   1.00
O132   O     0.82423   0.04382   0.51817   0.00000  Uiso   1.00
N133   N     0.95324   0.42576   0.02064   0.00000  Uiso   1.00
N134   N     0.34541   0.32815   0.69019   0.00000  Uiso   1.00
N135   N     0.88399   0.15610   0.56248   0.00000  Uiso   1.00
N136   N     0.97642   0.31998   0.08953   0.00000  Uiso   1.00
N137   N     0.36859   0.22237   0.75909   0.00000  Uiso   1.00
N138   N     0.90717   0.05031   0.63137   0.00000  Uiso   1.00
C139   C     0.55880   0.81265   0.25173   0.00000  Uiso   1.00
C140   C     0.53536   0.81797   0.34267   0.00000  Uiso   1.00
C141   C     0.50275   0.88137   0.38076   0.00000  Uiso   1.00
C142   C     0.48545   0.87480   0.46452   0.00000  Uiso   1.00
C143   C     0.44684   0.89335   0.59905   0.00000  Uiso   1.00
C144   C     0.64345   0.79107   0.25161   0.00000  Uiso   1.00
C145   C     0.70172   0.83185   0.21313   0.00000  Uiso   1.00
C146   C     0.77541   0.80264   0.22023   0.00000  Uiso   1.00
C147   C     0.90461   0.77941   0.21333   0.00000  Uiso   1.00
C148   C     0.51627   0.74366   0.21642   0.00000  Uiso   1.00
C149   C     0.46762   0.74457   0.14834   0.00000  Uiso   1.00
C150   C     0.43425   0.67543   0.12579   0.00000  Uiso   1.00
C151   C     0.36598   0.57858   0.06426   0.00000  Uiso   1.00
C152   C     0.58606   0.68825   0.33274   0.00000  Uiso   1.00
C153   C     0.55017   0.75040   0.38667   0.00000  Uiso   1.00
C154   C     0.53291   0.74373   0.47040   0.00000  Uiso   1.00
C155   C     0.50028   0.80711   0.50861   0.00000  Uiso   1.00
C156   C     0.65826   0.72350   0.29561   0.00000  Uiso   1.00
C157   C     0.73188   0.69422   0.30276   0.00000  Uiso   1.00
C158   C     0.79025   0.73495   0.26431   0.00000  Uiso   1.00
C159   C     0.53108   0.67609   0.26042   0.00000  Uiso   1.00
C160   C     0.49778   0.60693   0.23798   0.00000  Uiso   1.00
C161   C     0.44909   0.60774   0.16988   0.00000  Uiso   1.00
H162   H     0.54727   0.86525   0.21747   0.00000  Uiso   1.00
H163   H     0.49131   0.93365   0.34669   0.00000  Uiso   1.00
H164   H     0.69024   0.88414   0.17907   0.00000  Uiso   1.00
H165   H     0.45618   0.79687   0.11430   0.00000  Uiso   1.00
H166   H     0.43581   0.97969   0.50937   0.00000  Uiso   1.00
H167   H     0.85527   0.87528   0.15592   0.00000  Uiso   1.00
H168   H     0.36171   0.69125   0.01933   0.00000  Uiso   1.00
H169   H     0.59759   0.63564   0.36700   0.00000  Uiso   1.00
H170   H     0.54438   0.69144   0.50443   0.00000  Uiso   1.00
H171   H     0.74332   0.64193   0.33682   0.00000  Uiso   1.00
H172   H     0.50926   0.55466   0.27204   0.00000  Uiso   1.00
H173   H     0.47889   0.78311   0.63740   0.00000  Uiso   1.00
H174   H     0.89836   0.67869   0.28395   0.00000  Uiso   1.00
H175   H     0.40479   0.49466   0.14736   0.00000  Uiso   1.00
O176   O     0.42146   0.92226   0.66110   0.00000  Uiso   1.00
O177   O     0.97178   0.78526   0.19737   0.00000  Uiso   1.00
O178   O     0.32423   0.54382   0.01817   0.00000  Uiso   1.00
N179   N     0.45324   0.92576   0.52064   0.00000  Uiso   1.00
N180   N     0.84541   0.82815   0.19019   0.00000  Uiso   1.00
N181   N     0.38399   0.65610   0.06248   0.00000  Uiso   1.00
N182   N     0.47642   0.81998   0.58953   0.00000  Uiso   1.00
N183   N     0.86859   0.72237   0.25909   0.00000  Uiso   1.00
N184   N     0.40717   0.55031   0.13137   0.00000  Uiso   1.00
C185   C     0.68735   0.05880   0.24827   0.00000  Uiso   1.00
C186   C     0.68203   0.03536   0.15733   0.00000  Uiso   1.00
C187   C     0.61863   0.00275   0.11924   0.00000  Uiso   1.00
C188   C     0.62520   0.98545   0.03548   0.00000  Uiso   1.00
C189   C     0.60665   0.94684   0.90095   0.00000  Uiso   1.00
C190   C     0.70893   0.14345   0.24839   0.00000  Uiso   1.00
C191   C     0.66815   0.20172   0.28687   0.00000  Uiso   1.00
C192   C     0.69736   0.27541   0.27977   0.00000  Uiso   1.00
C193   C     0.72059   0.40461   0.28667   0.00000  Uiso   1.00
C194   C     0.75634   0.01627   0.28358   0.00000  Uiso   1.00
C195   C     0.75543   0.96762   0.35166   0.00000  Uiso   1.00
C196   C     0.82457   0.93425   0.37421   0.00000  Uiso   1.00
C197   C     0.92142   0.86598   0.43574   0.00000  Uiso   1.00
C198   C     0.81175   0.08606   0.16726   0.00000  Uiso   1.00
C199   C     0.74960   0.05017   0.11333   0.00000  Uiso   1.00
C200   C     0.75627   0.03291   0.02960   0.00000  Uiso   1.00
C201   C     0.69289   0.00028   0.99139   0.00000  Uiso   1.00
C202   C     0.77650   0.15826   0.20439   0.00000  Uiso   1.00
C203   C     0.80578   0.23188   0.19724   0.00000  Uiso   1.00
C204   C     0.76505   0.29025   0.23569   0.00000  Uiso   1.00
C205   C     0.82391   0.03108   0.23958   0.00000  Uiso   1.00
C206   C     0.89307   0.99778   0.26202   0.00000  Uiso   1.00
C207   C     0.89226   0.94909   0.33012   0.00000  Uiso   1.00
H208   H     0.63475   0.04727   0.28253   0.00000  Uiso   1.00
H209   H     0.56635   0.99131   0.15331   0.00000  Uiso   1.00
H210   H     0.61586   0.19024   0.32093   0.00000  Uiso   1.00
H211   H     0.70313   0.95618   0.38570   0.00000  Uiso   1.00
H212   H     0.52031   0.93581   0.99063   0.00000  Uiso   1.00
H213   H     0.62472   0.35527   0.34408   0.00000  Uiso   1.00
H214   H     0.80875   0.86171   0.48067   0.00000  Uiso   1.00
H215   H     0.86436   0.09759   0.13300   0.00000  Uiso   1.00
H216   H     0.80856   0.04438   0.99557   0.00000  Uiso   1.00
H217   H     0.85807   0.24332   0.16318   0.00000  Uiso   1.00
H218   H     0.94534   0.00926   0.22796   0.00000  Uiso   1.00
H219   H     0.71689   0.97889   0.86260   0.00000  Uiso   1.00
H220   H     0.82131   0.39836   0.21605   0.00000  Uiso   1.00
H221   H     0.00534   0.90479   0.35264   0.00000  Uiso   1.00
O222   O     0.57774   0.92146   0.83890   0.00000  Uiso   1.00
O223   O     0.71474   0.47178   0.30263   0.00000  Uiso   1.00
O224   O     0.95618   0.82423   0.48183   0.00000  Uiso   1.00
N225   N     0.57424   0.95324   0.97936   0.00000  Uiso   1.00
N226   N     0.67185   0.34541   0.30981   0.00000  Uiso   1.00
N227   N     0.84390   0.88399   0.43752   0.00000  Uiso   1.00
N228   N     0.68002   0.97642   0.91047   0.00000  Uiso   1.00
N229   N     0.77763   0.36859   0.24091   0.00000  Uiso   1.00
N230   N     0.94969   0.90717   0.36863   0.00000  Uiso   1.00
C231   C     0.18735   0.55880   0.74827   0.00000  Uiso   1.00
C232   C     0.18203   0.53536   0.65733   0.00000  Uiso   1.00
C233   C     0.11863   0.50275   0.61924   0.00000  Uiso   1.00
C234   C     0.12520   0.48545   0.53548   0.00000  Uiso   1.00
C235   C     0.10665   0.44684   0.40095   0.00000  Uiso   1.00
C236   C     0.20893   0.64345   0.74839   0.00000  Uiso   1.00
C237   C     0.16815   0.70172   0.78687   0.00000  Uiso   1.00
C238   C     0.19736   0.77541   0.77977   0.00000  Uiso   1.00
C239   C     0.22059   0.90461   0.78667   0.00000  Uiso   1.00
C240   C     0.25634   0.51627   0.78358   0.00000  Uiso   1.00
C241   C     0.25543   0.46762   0.85166   0.00000  Uiso   1.00
C242   C     0.32457   0.43425   0.87421   0.00000  Uiso   1.00
C243   C     0.42142   0.36598   0.93574   0.00000  Uiso   1.00
C244   C     0.31175   0.58606   0.66726   0.00000  Uiso   1.00
C245   C     0.24960   0.55017   0.61333   0.00000  Uiso   1.00
C246   C     0.25627   0.53291   0.52960   0.00000  Uiso   1.00
C247   C     0.19289   0.50028   0.49139   0.00000  Uiso   1.00
C248   C     0.27650   0.65826   0.70439   0.00000  Uiso   1.00
C249   C     0.30578   0.73188   0.69724   0.00000  Uiso   1.00
C250   C     0.26505   0.79025   0.73569   0.00000  Uiso   1.00
C251   C     0.32391   0.53108   0.73958   0.00000  Uiso   1.00
C252   C     0.39307   0.49778   0.76202   0.00000  Uiso   1.00
C253   C     0.39226   0.44909   0.83012   0.00000  Uiso   1.00
H254   H     0.13475   0.54727   0.78253   0.00000  Uiso   1.00
H255   H     0.06635   0.49131   0.65331   0.00000  Uiso   1.00
H256   H     0.11586   0.69024   0.82093   0.00000  Uiso   1.00
H257   H     0.20313   0.45618   0.88570   0.00000  Uiso   1.00
H258   H     0.02031   0.43581   0.49063   0.00000  Uiso   1.00
H259   H     0.12472   0.85527   0.84408   0.00000  Uiso   1.00
H260   H     0.30875   0.36171   0.98067   0.00000  Uiso   1.00
H261   H     0.36436   0.59759   0.63300   0.00000  Uiso   1.00
H262   H     0.30856   0.54438   0.49557   0.00000  Uiso   1.00
H263   H     0.35807   0.74332   0.66318   0.00000  Uiso   1.00
H264   H     0.44534   0.50926   0.72796   0.00000  Uiso   1.00
H265   H     0.21689   0.47889   0.36260   0.00000  Uiso   1.00
H266   H     0.32131   0.89836   0.71605   0.00000  Uiso   1.00
H267   H     0.50534   0.40479   0.85264   0.00000  Uiso   1.00
O268   O     0.07774   0.42146   0.33890   0.00000  Uiso   1.00
O269   O     0.21474   0.97178   0.80263   0.00000  Uiso   1.00
O270   O     0.45618   0.32423   0.98183   0.00000  Uiso   1.00
N271   N     0.07424   0.45324   0.47936   0.00000  Uiso   1.00
N272   N     0.17185   0.84541   0.80981   0.00000  Uiso   1.00
N273   N     0.34390   0.38399   0.93752   0.00000  Uiso   1.00
N274   N     0.18002   0.47642   0.41047   0.00000  Uiso   1.00
N275   N     0.27763   0.86859   0.74091   0.00000  Uiso   1.00
N276   N     0.44969   0.40717   0.86863   0.00000  Uiso   1.00
C277   C     0.31265   0.94120   0.24827   0.00000  Uiso   1.00
C278   C     0.31797   0.96464   0.15733   0.00000  Uiso   1.00
C279   C     0.38137   0.99725   0.11924   0.00000  Uiso   1.00
C280   C     0.37480   0.01455   0.03548   0.00000  Uiso   1.00
C281   C     0.39335   0.05316   0.90095   0.00000  Uiso   1.00
C282   C     0.29107   0.85655   0.24839   0.00000  Uiso   1.00
C283   C     0.33185   0.79828   0.28687   0.00000  Uiso   1.00
C284   C     0.30264   0.72459   0.27977   0.00000  Uiso   1.00
C285   C     0.27941   0.59539   0.28667   0.00000  Uiso   1.00
C286   C     0.24366   0.98373   0.28358   0.00000  Uiso   1.00
C287   C     0.24457   0.03238   0.35166   0.00000  Uiso   1.00
C288   C     0.17543   0.06575   0.37421   0.00000  Uiso   1.00
C289   C     0.07858   0.13402   0.43574   0.00000  Uiso   1.00
C290   C     0.18825   0.91394   0.16726   0.00000  Uiso   1.00
C291   C     0.25040   0.94983   0.11333   0.00000  Uiso   1.00
C292   C     0.24373   0.96709   0.02960   0.00000  Uiso   1.00
C293   C     0.30711   0.99972   0.99139   0.00000  Uiso   1.00
C294   C     0.22350   0.84174   0.20439   0.00000  Uiso   1.00
C295   C     0.19422   0.76812   0.19724   0.00000  Uiso   1.00
C296   C     0.23495   0.70975   0.23569   0.00000  Uiso   1.00
C297   C     0.17609   0.96892   0.23958   0.00000  Uiso   1.00
C298   C     0.10693   0.00222   0.26202   0.00000  Uiso   1.00
C299   C     0.10774   0.05091   0.33012   0.00000  Uiso   1.00
H300   H     0.36525   0.95273   0.28253   0.00000  Uiso   1.00
H301   H     0.43365   0.00869   0.15331   0.00000  Uiso   1.00
H302   H     0.38414   0.80976   0.32093   0.00000  Uiso   1.00
H303   H     0.29687   0.04382   0.38570   0.00000  Uiso   1.00
H304   H     0.47969   0.06419   0.99063   0.00000  Uiso   1.00
H305   H     0.37528   0.64473   0.34408   0.00000  Uiso   1.00
H306   H     0.19125   0.13829   0.48067   0.00000  Uiso   1.00
H307   H     0.13564   0.90241   0.13300   0.00000  Uiso   1.00
H308   H     0.19144   0.95562   0.99557   0.00000  Uiso   1.00
H309   H     0.14193   0.75668   0.16318   0.00000  Uiso   1.00
H310   H     0.05466   0.99074   0.22796   0.00000  Uiso   1.00
H311   H     0.28311   0.02111   0.86260   0.00000  Uiso   1.00
H312   H     0.17869   0.60164   0.21605   0.00000  Uiso   1.00
H313   H     0.99466   0.09521   0.35264   0.00000  Uiso   1.00
O314   O     0.42226   0.07854   0.83890   0.00000  Uiso   1.00
O315   O     0.28526   0.52822   0.30263   0.00000  Uiso   1.00
O316   O     0.04382   0.17577   0.48183   0.00000  Uiso   1.00
N317   N     0.42576   0.04676   0.97936   0.00000  Uiso   1.00
N318   N     0.32815   0.65459   0.30981   0.00000  Uiso   1.00
N319   N     0.15610   0.11601   0.43752   0.00000  Uiso   1.00
N320   N     0.31998   0.02358   0.91047   0.00000  Uiso   1.00
N321   N     0.22237   0.63141   0.24091   0.00000  Uiso   1.00
N322   N     0.05031   0.09283   0.36863   0.00000  Uiso   1.00
C323   C     0.81265   0.44120   0.74827   0.00000  Uiso   1.00
C324   C     0.81797   0.46464   0.65733   0.00000  Uiso   1.00
C325   C     0.88137   0.49725   0.61924   0.00000  Uiso   1.00
C326   C     0.87480   0.51455   0.53548   0.00000  Uiso   1.00
C327   C     0.89335   0.55316   0.40095   0.00000  Uiso   1.00
C328   C     0.79107   0.35655   0.74839   0.00000  Uiso   1.00
C329   C     0.83185   0.29828   0.78687   0.00000  Uiso   1.00
C330   C     0.80264   0.22459   0.77977   0.00000  Uiso   1.00
C331   C     0.77941   0.09539   0.78667   0.00000  Uiso   1.00
C332   C     0.74366   0.48373   0.78358   0.00000  Uiso   1.00
C333   C     0.74457   0.53238   0.85166   0.00000  Uiso   1.00
C334   C     0.67543   0.56575   0.87421   0.00000  Uiso   1.00
C335   C     0.57858   0.63402   0.93574   0.00000  Uiso   1.00
C336   C     0.68825   0.41394   0.66726   0.00000  Uiso   1.00
C337   C     0.75040   0.44983   0.61333   0.00000  Uiso   1.00
C338   C     0.74373   0.46709   0.52960   0.00000  Uiso   1.00
C339   C     0.80711   0.49972   0.49139   0.00000  Uiso   1.00
C340   C     0.72350   0.34174   0.70439   0.00000  Uiso   1.00
C341   C     0.69422   0.26812   0.69724   0.00000  Uiso   1.00
C342   C     0.73495   0.20975   0.73569   0.00000  Uiso   1.00
C343   C     0.67609   0.46892   0.73958   0.00000  Uiso   1.00
C344   C     0.60693   0.50222   0.76202   0.00000  Uiso   1.00
C345   C     0.60774   0.55091   0.83012   0.00000  Uiso   1.00
H346   H     0.86525   0.45273   0.78253   0.00000  Uiso   1.00
H347   H     0.93365   0.50869   0.65331   0.00000  Uiso   1.00
H348   H     0.88414   0.30976   0.82093   0.00000  Uiso   1.00
H349   H     0.79687   0.54382   0.88570   0.00000  Uiso   1.00
H350   H     0.97969   0.56419   0.49063   0.00000  Uiso   1.00
H351   H     0.87528   0.14473   0.84408   0.00000  Uiso   1.00
H352   H     0.69125   0.63829   0.98067   0.00000  Uiso   1.00
H353   H     0.63564   0.40241   0.63300   0.00000  Uiso   1.00
H354   H     0.69144   0.45562   0.49557   0.00000  Uiso   1.00
H355   H     0.64193   0.25668   0.66318   0.00000  Uiso   1.00
H356   H     0.55466   0.49074   0.72796   0.00000  Uiso   1.00
H357   H     0.78311   0.52111   0.36260   0.00000  Uiso   1.00
H358   H     0.67869   0.10164   0.71605   0.00000  Uiso   1.00
H359   H     0.49466   0.59521   0.85264   0.00000  Uiso   1.00
O360   O     0.92226   0.57854   0.33890   0.00000  Uiso   1.00
O361   O     0.78526   0.02822   0.80263   0.00000  Uiso   1.00
O362   O     0.54382   0.67577   0.98183   0.00000  Uiso   1.00
N363   N     0.92576   0.54676   0.47936   0.00000  Uiso   1.00
N364   N     0.82815   0.15459   0.80981   0.00000  Uiso   1.00
N365   N     0.65610   0.61601   0.93752   0.00000  Uiso   1.00
N366   N     0.81998   0.52358   0.41047   0.00000  Uiso   1.00
N367   N     0.72237   0.13141   0.74091   0.00000  Uiso   1.00
N368   N     0.55031   0.59283   0.86863   0.00000  Uiso   1.00
