data_job_05833
_audit_creation_date              2018-12-19
_audit_creation_method            'Materials Studio'
_symmetry_space_group_name_H-M    'P1'
_symmetry_Int_Tables_number       1
_symmetry_cell_setting            triclinic
loop_
_symmetry_equiv_pos_as_xyz
  x,y,z
_cell_length_a                    12.4876
_cell_length_b                    10.7310
_cell_length_c                    17.1023
_cell_angle_alpha                 90.0000
_cell_angle_beta                  139.9570
_cell_angle_gamma                 90.0000
loop_
_atom_site_label
_atom_site_type_symbol
_atom_site_fract_x
_atom_site_fract_y
_atom_site_fract_z
_atom_site_U_iso_or_equiv
_atom_site_adp_type
_atom_site_occupancy
C1     C     0.29522   0.08519   0.64821   0.00000  Uiso   1.00
C2     C     0.37926   0.15074   0.62662   0.00000  Uiso   1.00
C3     C     0.53548   0.20587   0.71532   0.00000  Uiso   1.00
C4     C     0.59017   0.26107   0.67712   0.00000  Uiso   1.00
C5     C     0.73554   0.36290   0.66222   0.00000  Uiso   1.00
C6     C     0.12863   0.15072   0.56673   0.00000  Uiso   1.00
C7     C     0.07413   0.20582   0.60507   0.00000  Uiso   1.00
C8     C     0.91784   0.26100   0.51643   0.00000  Uiso   1.00
C9     C     0.67407   0.36272   0.40854   0.00000  Uiso   1.00
C10    C     0.25395   0.95411   0.59669   0.00000  Uiso   1.00
C11    C     0.30478   0.84390   0.66021   0.00000  Uiso   1.00
C12    C     0.25396   0.73354   0.59679   0.00000  Uiso   1.00
C13    C     0.20478   0.53001   0.53542   0.00000  Uiso   1.00
C14    C     0.11455   0.08517   0.42262   0.00000  Uiso   1.00
C15    C     0.28111   0.15073   0.50409   0.00000  Uiso   1.00
C16    C     0.33558   0.20585   0.46573   0.00000  Uiso   1.00
C17    C     0.49186   0.26105   0.55436   0.00000  Uiso   1.00
C18    C     0.03050   0.15072   0.44420   0.00000  Uiso   1.00
C19    C     0.87424   0.20581   0.35548   0.00000  Uiso   1.00
C20    C     0.81952   0.26099   0.39368   0.00000  Uiso   1.00
C21    C     0.15582   0.95410   0.47415   0.00000  Uiso   1.00
C22    C     0.10490   0.84389   0.41062   0.00000  Uiso   1.00
C23    C     0.15565   0.73353   0.47403   0.00000  Uiso   1.00
H24    H     0.37161   0.08520   0.74360   0.00000  Uiso   1.00
H25    H     0.61138   0.20586   0.81014   0.00000  Uiso   1.00
H26    H     0.15010   0.20581   0.69990   0.00000  Uiso   1.00
H27    H     0.38072   0.84394   0.75503   0.00000  Uiso   1.00
H28    H     0.83390   0.33968   0.82986   0.00000  Uiso   1.00
H29    H     0.86124   0.33952   0.59741   0.00000  Uiso   1.00
H30    H     0.34755   0.57646   0.71366   0.00000  Uiso   1.00
H31    H     0.03814   0.08517   0.32722   0.00000  Uiso   1.00
H32    H     0.25961   0.20583   0.37091   0.00000  Uiso   1.00
H33    H     0.79833   0.20578   0.26067   0.00000  Uiso   1.00
H34    H     0.02895   0.84392   0.31580   0.00000  Uiso   1.00
H35    H     0.54839   0.33966   0.47336   0.00000  Uiso   1.00
H36    H     0.57573   0.33950   0.24091   0.00000  Uiso   1.00
H37    H     0.06204   0.57644   0.35717   0.00000  Uiso   1.00
O38    O     0.84283   0.41909   0.68786   0.00000  Uiso   1.00
O39    O     0.56673   0.41885   0.38289   0.00000  Uiso   1.00
O40    O     0.20477   0.41774   0.53542   0.00000  Uiso   1.00
N41    N     0.73633   0.32309   0.73997   0.00000  Uiso   1.00
N42    N     0.82696   0.32296   0.52264   0.00000  Uiso   1.00
N43    N     0.28158   0.60957   0.63132   0.00000  Uiso   1.00
N44    N     0.58269   0.32308   0.54814   0.00000  Uiso   1.00
N45    N     0.67333   0.32295   0.33081   0.00000  Uiso   1.00
N46    N     0.12795   0.60956   0.43949   0.00000  Uiso   1.00
C47    C     0.29522   0.91481   0.14821   0.00000  Uiso   1.00
C48    C     0.37926   0.84926   0.12662   0.00000  Uiso   1.00
C49    C     0.53548   0.79413   0.21532   0.00000  Uiso   1.00
C50    C     0.59017   0.73893   0.17712   0.00000  Uiso   1.00
C51    C     0.73554   0.63710   0.16222   0.00000  Uiso   1.00
C52    C     0.12863   0.84928   0.06673   0.00000  Uiso   1.00
C53    C     0.07413   0.79418   0.10507   0.00000  Uiso   1.00
C54    C     0.91784   0.73900   0.01643   0.00000  Uiso   1.00
C55    C     0.67407   0.63728   0.90854   0.00000  Uiso   1.00
C56    C     0.25395   0.04589   0.09669   0.00000  Uiso   1.00
C57    C     0.30478   0.15610   0.16021   0.00000  Uiso   1.00
C58    C     0.25396   0.26646   0.09679   0.00000  Uiso   1.00
C59    C     0.20478   0.46999   0.03542   0.00000  Uiso   1.00
C60    C     0.11455   0.91483   0.92262   0.00000  Uiso   1.00
C61    C     0.28111   0.84927   0.00409   0.00000  Uiso   1.00
C62    C     0.33558   0.79415   0.96573   0.00000  Uiso   1.00
C63    C     0.49186   0.73895   0.05436   0.00000  Uiso   1.00
C64    C     0.03050   0.84928   0.94420   0.00000  Uiso   1.00
C65    C     0.87424   0.79419   0.85548   0.00000  Uiso   1.00
C66    C     0.81952   0.73901   0.89368   0.00000  Uiso   1.00
C67    C     0.15582   0.04590   0.97415   0.00000  Uiso   1.00
C68    C     0.10490   0.15611   0.91062   0.00000  Uiso   1.00
C69    C     0.15565   0.26647   0.97403   0.00000  Uiso   1.00
H70    H     0.37161   0.91480   0.24360   0.00000  Uiso   1.00
H71    H     0.61138   0.79414   0.31014   0.00000  Uiso   1.00
H72    H     0.15010   0.79419   0.19990   0.00000  Uiso   1.00
H73    H     0.38072   0.15606   0.25503   0.00000  Uiso   1.00
H74    H     0.83390   0.66032   0.32986   0.00000  Uiso   1.00
H75    H     0.86124   0.66048   0.09741   0.00000  Uiso   1.00
H76    H     0.34755   0.42354   0.21366   0.00000  Uiso   1.00
H77    H     0.03814   0.91483   0.82722   0.00000  Uiso   1.00
H78    H     0.25961   0.79417   0.87091   0.00000  Uiso   1.00
H79    H     0.79833   0.79422   0.76067   0.00000  Uiso   1.00
H80    H     0.02895   0.15608   0.81580   0.00000  Uiso   1.00
H81    H     0.54839   0.66034   0.97336   0.00000  Uiso   1.00
H82    H     0.57573   0.66050   0.74091   0.00000  Uiso   1.00
H83    H     0.06204   0.42356   0.85717   0.00000  Uiso   1.00
O84    O     0.84283   0.58091   0.18786   0.00000  Uiso   1.00
O85    O     0.56673   0.58115   0.88289   0.00000  Uiso   1.00
O86    O     0.20477   0.58226   0.03542   0.00000  Uiso   1.00
N87    N     0.73633   0.67691   0.23997   0.00000  Uiso   1.00
N88    N     0.82696   0.67704   0.02264   0.00000  Uiso   1.00
N89    N     0.28158   0.39043   0.13132   0.00000  Uiso   1.00
N90    N     0.58269   0.67692   0.04814   0.00000  Uiso   1.00
N91    N     0.67333   0.67705   0.83081   0.00000  Uiso   1.00
N92    N     0.12795   0.39044   0.93949   0.00000  Uiso   1.00
