data_job_06535
_audit_creation_date              2018-12-19
_audit_creation_method            'Materials Studio'
_symmetry_space_group_name_H-M    'P1'
_symmetry_Int_Tables_number       1
_symmetry_cell_setting            triclinic
loop_
_symmetry_equiv_pos_as_xyz
  x,y,z
_cell_length_a                    22.1473
_cell_length_b                    21.0039
_cell_length_c                    21.4141
_cell_angle_alpha                 63.7277
_cell_angle_beta                  68.1991
_cell_angle_gamma                 71.0573
loop_
_atom_site_label
_atom_site_type_symbol
_atom_site_fract_x
_atom_site_fract_y
_atom_site_fract_z
_atom_site_U_iso_or_equiv
_atom_site_adp_type
_atom_site_occupancy
C1     C     0.34270   0.20574   0.55337   0.00000  Uiso   1.00
C2     C     0.38199   0.18428   0.48788   0.00000  Uiso   1.00
C3     C     0.35561   0.18480   0.43810   0.00000  Uiso   1.00
C4     C     0.39982   0.16323   0.38199   0.00000  Uiso   1.00
C5     C     0.45046   0.13310   0.28125   0.00000  Uiso   1.00
C6     C     0.35910   0.14072   0.61888   0.00000  Uiso   1.00
C7     C     0.31347   0.10462   0.67923   0.00000  Uiso   1.00
C8     C     0.33842   0.04639   0.73340   0.00000  Uiso   1.00
C9     C     0.35352   0.94868   0.83605   0.00000  Uiso   1.00
C10    C     0.37296   0.26535   0.54572   0.00000  Uiso   1.00
C11    C     0.33899   0.33404   0.54459   0.00000  Uiso   1.00
C12    C     0.37560   0.38074   0.53718   0.00000  Uiso   1.00
C13    C     0.41222   0.47653   0.52625   0.00000  Uiso   1.00
C14    C     0.46812   0.16653   0.54224   0.00000  Uiso   1.00
C15    C     0.45011   0.16297   0.48184   0.00000  Uiso   1.00
C16    C     0.49437   0.14141   0.42579   0.00000  Uiso   1.00
C17    C     0.46807   0.14189   0.37594   0.00000  Uiso   1.00
C18    C     0.42722   0.11942   0.61284   0.00000  Uiso   1.00
C19    C     0.45224   0.06123   0.66692   0.00000  Uiso   1.00
C20    C     0.40667   0.02505   0.72734   0.00000  Uiso   1.00
C21    C     0.44108   0.24405   0.53968   0.00000  Uiso   1.00
C22    C     0.47775   0.29065   0.53228   0.00000  Uiso   1.00
C23    C     0.44385   0.35940   0.53113   0.00000  Uiso   1.00
H24    H     0.28966   0.22232   0.55807   0.00000  Uiso   1.00
H25    H     0.30289   0.20128   0.44280   0.00000  Uiso   1.00
H26    H     0.26076   0.12112   0.68390   0.00000  Uiso   1.00
H27    H     0.28627   0.35051   0.54927   0.00000  Uiso   1.00
H28    H     0.34759   0.16853   0.31235   0.00000  Uiso   1.00
H29    H     0.25876   0.99953   0.82072   0.00000  Uiso   1.00
H30    H     0.31256   0.48323   0.53683   0.00000  Uiso   1.00
H31    H     0.52116   0.14994   0.53754   0.00000  Uiso   1.00
H32    H     0.54709   0.12492   0.42113   0.00000  Uiso   1.00
H33    H     0.50496   0.04477   0.66223   0.00000  Uiso   1.00
H34    H     0.53047   0.27415   0.52760   0.00000  Uiso   1.00
H35    H     0.54579   0.10655   0.29476   0.00000  Uiso   1.00
H36    H     0.45696   0.93755   0.80314   0.00000  Uiso   1.00
H37    H     0.51076   0.42125   0.51925   0.00000  Uiso   1.00
O38    O     0.45957   0.12236   0.22736   0.00000  Uiso   1.00
O39    O     0.34303   0.90066   0.89434   0.00000  Uiso   1.00
O40    O     0.41360   0.53526   0.52188   0.00000  Uiso   1.00
N41    N     0.39068   0.15739   0.32418   0.00000  Uiso   1.00
N42    N     0.30763   0.99938   0.79947   0.00000  Uiso   1.00
N43    N     0.35792   0.45159   0.53408   0.00000  Uiso   1.00
N44    N     0.49733   0.12404   0.31471   0.00000  Uiso   1.00
N45    N     0.41428   0.96603   0.79001   0.00000  Uiso   1.00
N46    N     0.46457   0.41824   0.52462   0.00000  Uiso   1.00
C47    C     0.63824   0.31534   0.15442   0.00000  Uiso   1.00
C48    C     0.56581   0.33400   0.15405   0.00000  Uiso   1.00
C49    C     0.53124   0.28790   0.15675   0.00000  Uiso   1.00
C50    C     0.46533   0.31520   0.15586   0.00000  Uiso   1.00
C51    C     0.35747   0.33341   0.15578   0.00000  Uiso   1.00
C52    C     0.67209   0.37195   0.08663   0.00000  Uiso   1.00
C53    C     0.72689   0.35775   0.03266   0.00000  Uiso   1.00
C54    C     0.75045   0.41701   0.97503   0.00000  Uiso   1.00
C55    C     0.80761   0.49414   0.87031   0.00000  Uiso   1.00
C56    C     0.63872   0.32947   0.21819   0.00000  Uiso   1.00
C57    C     0.66549   0.27956   0.27482   0.00000  Uiso   1.00
C58    C     0.66098   0.30305   0.32794   0.00000  Uiso   1.00
C59    C     0.66634   0.31422   0.42749   0.00000  Uiso   1.00
C60    C     0.58264   0.44581   0.14805   0.00000  Uiso   1.00
C61    C     0.53561   0.40487   0.15059   0.00000  Uiso   1.00
C62    C     0.46973   0.43225   0.14970   0.00000  Uiso   1.00
C63    C     0.43508   0.38619   0.15240   0.00000  Uiso   1.00
C64    C     0.64189   0.44282   0.08317   0.00000  Uiso   1.00
C65    C     0.66538   0.50211   0.02561   0.00000  Uiso   1.00
C66    C     0.72020   0.48800   0.97156   0.00000  Uiso   1.00
C67    C     0.60853   0.40034   0.21473   0.00000  Uiso   1.00
C68    C     0.60398   0.42391   0.26777   0.00000  Uiso   1.00
C69    C     0.63073   0.37404   0.32448   0.00000  Uiso   1.00
H70    H     0.66175   0.26017   0.15711   0.00000  Uiso   1.00
H71    H     0.55463   0.23306   0.15942   0.00000  Uiso   1.00
H72    H     0.75025   0.30291   0.03535   0.00000  Uiso   1.00
H73    H     0.68886   0.22472   0.27748   0.00000  Uiso   1.00
H74    H     0.42256   0.23427   0.16043   0.00000  Uiso   1.00
H75    H     0.83504   0.38155   0.89884   0.00000  Uiso   1.00
H76    H     0.70559   0.21668   0.40941   0.00000  Uiso   1.00
H77    H     0.55913   0.50098   0.14535   0.00000  Uiso   1.00
H78    H     0.44638   0.48709   0.14702   0.00000  Uiso   1.00
H79    H     0.64200   0.55694   0.02295   0.00000  Uiso   1.00
H80    H     0.58061   0.47875   0.26508   0.00000  Uiso   1.00
H81    H     0.33470   0.44045   0.15036   0.00000  Uiso   1.00
H82    H     0.74719   0.58773   0.88878   0.00000  Uiso   1.00
H83    H     0.61773   0.42286   0.39935   0.00000  Uiso   1.00
O84    O     0.30631   0.32388   0.15668   0.00000  Uiso   1.00
O85    O     0.84748   0.51710   0.81350   0.00000  Uiso   1.00
O86    O     0.67764   0.30080   0.48336   0.00000  Uiso   1.00
N87    N     0.41735   0.28469   0.15785   0.00000  Uiso   1.00
N88    N     0.80299   0.42239   0.91327   0.00000  Uiso   1.00
N89    N     0.68198   0.26826   0.39060   0.00000  Uiso   1.00
N90    N     0.37007   0.39564   0.15243   0.00000  Uiso   1.00
N91    N     0.75571   0.53334   0.90786   0.00000  Uiso   1.00
N92    N     0.63470   0.37920   0.38519   0.00000  Uiso   1.00
C93    C     0.17168   0.61786   0.30243   0.00000  Uiso   1.00
C94    C     0.16393   0.54024   0.35174   0.00000  Uiso   1.00
C95    C     0.17385   0.48419   0.32914   0.00000  Uiso   1.00
C96    C     0.16422   0.41712   0.38266   0.00000  Uiso   1.00
C97    C     0.15502   0.29821   0.44805   0.00000  Uiso   1.00
C98    C     0.10556   0.66561   0.32449   0.00000  Uiso   1.00
C99    C     0.06642   0.71498   0.27897   0.00000  Uiso   1.00
C100   C     0.00767   0.75345   0.30954   0.00000  Uiso   1.00
C101   C     0.90788   0.82922   0.33261   0.00000  Uiso   1.00
C102   C     0.22175   0.63441   0.32375   0.00000  Uiso   1.00
C103   C     0.28029   0.65755   0.27761   0.00000  Uiso   1.00
C104   C     0.31935   0.66977   0.30756   0.00000  Uiso   1.00
C105   C     0.39996   0.69709   0.32948   0.00000  Uiso   1.00
C106   C     0.13695   0.59842   0.43767   0.00000  Uiso   1.00
C107   C     0.14506   0.52968   0.42520   0.00000  Uiso   1.00
C108   C     0.13542   0.46268   0.47877   0.00000  Uiso   1.00
C109   C     0.14533   0.40654   0.45625   0.00000  Uiso   1.00
C110   C     0.08670   0.65505   0.39794   0.00000  Uiso   1.00
C111   C     0.02799   0.69347   0.42859   0.00000  Uiso   1.00
C112   C     0.98877   0.74288   0.38313   0.00000  Uiso   1.00
C113   C     0.20289   0.62385   0.39721   0.00000  Uiso   1.00
C114   C     0.24186   0.63604   0.42723   0.00000  Uiso   1.00
C115   C     0.30045   0.65920   0.38115   0.00000  Uiso   1.00
H116   H     0.18636   0.62608   0.24525   0.00000  Uiso   1.00
H117   H     0.18844   0.49238   0.27229   0.00000  Uiso   1.00
H118   H     0.08103   0.72314   0.22212   0.00000  Uiso   1.00
H119   H     0.29487   0.66572   0.22077   0.00000  Uiso   1.00
H120   H     0.18240   0.33951   0.33467   0.00000  Uiso   1.00
H121   H     0.95594   0.82608   0.22888   0.00000  Uiso   1.00
H122   H     0.40685   0.70500   0.22602   0.00000  Uiso   1.00
H123   H     0.12226   0.59020   0.49486   0.00000  Uiso   1.00
H124   H     0.12082   0.45453   0.53561   0.00000  Uiso   1.00
H125   H     0.01341   0.68529   0.48544   0.00000  Uiso   1.00
H126   H     0.22725   0.62786   0.48408   0.00000  Uiso   1.00
H127   H     0.12751   0.30878   0.54839   0.00000  Uiso   1.00
H128   H     0.90105   0.79536   0.44260   0.00000  Uiso   1.00
H129   H     0.35197   0.67428   0.43973   0.00000  Uiso   1.00
O130   O     0.15514   0.23555   0.46383   0.00000  Uiso   1.00
O131   O     0.85804   0.87393   0.32503   0.00000  Uiso   1.00
O132   O     0.44963   0.71507   0.32128   0.00000  Uiso   1.00
N133   N     0.16969   0.35089   0.37938   0.00000  Uiso   1.00
N134   N     0.95796   0.80580   0.28047   0.00000  Uiso   1.00
N135   N     0.37952   0.69262   0.27779   0.00000  Uiso   1.00
N136   N     0.14016   0.33436   0.49438   0.00000  Uiso   1.00
N137   N     0.92843   0.78927   0.39547   0.00000  Uiso   1.00
N138   N     0.34998   0.67609   0.39279   0.00000  Uiso   1.00
C139   C     0.82188   0.10237   0.66069   0.00000  Uiso   1.00
C140   C     0.85499   0.02746   0.65757   0.00000  Uiso   1.00
C141   C     0.82281   0.97660   0.66531   0.00000  Uiso   1.00
C142   C     0.86193   0.91127   0.66073   0.00000  Uiso   1.00
C143   C     0.90287   0.79707   0.65766   0.00000  Uiso   1.00
C144   C     0.85572   0.15596   0.58972   0.00000  Uiso   1.00
C145   C     0.82416   0.21315   0.54043   0.00000  Uiso   1.00
C146   C     0.86390   0.25599   0.47873   0.00000  Uiso   1.00
C147   C     0.90597   0.34134   0.37036   0.00000  Uiso   1.00
C148   C     0.84176   0.10616   0.71975   0.00000  Uiso   1.00
C149   C     0.79846   0.12150   0.77978   0.00000  Uiso   1.00
C150   C     0.82645   0.12243   0.82756   0.00000  Uiso   1.00
C151   C     0.84685   0.13044   0.92107   0.00000  Uiso   1.00
C152   C     0.94857   0.07678   0.63878   0.00000  Uiso   1.00
C153   C     0.92380   0.01356   0.64567   0.00000  Uiso   1.00
C154   C     0.96298   0.94828   0.64108   0.00000  Uiso   1.00
C155   C     0.93087   0.89734   0.64882   0.00000  Uiso   1.00
C156   C     0.92453   0.14206   0.57782   0.00000  Uiso   1.00
C157   C     0.96432   0.18484   0.51619   0.00000  Uiso   1.00
C158   C     0.93283   0.24207   0.46681   0.00000  Uiso   1.00
C159   C     0.91057   0.09226   0.70785   0.00000  Uiso   1.00
C160   C     0.93863   0.09317   0.75554   0.00000  Uiso   1.00
C161   C     0.89539   0.10850   0.81563   0.00000  Uiso   1.00
H162   H     0.76831   0.11320   0.66995   0.00000  Uiso   1.00
H163   H     0.76956   0.98738   0.67451   0.00000  Uiso   1.00
H164   H     0.77091   0.22390   0.54965   0.00000  Uiso   1.00
H165   H     0.74522   0.13225   0.78897   0.00000  Uiso   1.00
H166   H     0.80130   0.84177   0.67431   0.00000  Uiso   1.00
H167   H     0.80413   0.34049   0.41104   0.00000  Uiso   1.00
H168   H     0.74996   0.14724   0.91568   0.00000  Uiso   1.00
H169   H     0.00214   0.06596   0.62952   0.00000  Uiso   1.00
H170   H     0.01623   0.93754   0.63187   0.00000  Uiso   1.00
H171   H     0.01757   0.17406   0.50700   0.00000  Uiso   1.00
H172   H     0.99188   0.08241   0.74632   0.00000  Uiso   1.00
H173   H     0.00150   0.80132   0.63969   0.00000  Uiso   1.00
H174   H     0.00433   0.30005   0.37642   0.00000  Uiso   1.00
H175   H     0.95016   0.10679   0.88106   0.00000  Uiso   1.00
O176   O     0.90644   0.73793   0.65925   0.00000  Uiso   1.00
O177   O     0.91016   0.39225   0.31386   0.00000  Uiso   1.00
O178   O     0.83909   0.13869   0.97594   0.00000  Uiso   1.00
N179   N     0.84648   0.84987   0.66585   0.00000  Uiso   1.00
N180   N     0.84913   0.31614   0.41970   0.00000  Uiso   1.00
N181   N     0.79849   0.13548   0.89149   0.00000  Uiso   1.00
N182   N     0.95421   0.82810   0.64722   0.00000  Uiso   1.00
N183   N     0.95686   0.29437   0.40108   0.00000  Uiso   1.00
N184   N     0.90621   0.11371   0.87287   0.00000  Uiso   1.00
C185   C     0.10387   0.69122   0.79804   0.00000  Uiso   1.00
C186   C     0.03521   0.67588   0.84519   0.00000  Uiso   1.00
C187   C     0.98165   0.68697   0.82030   0.00000  Uiso   1.00
C188   C     0.92307   0.66955   0.87209   0.00000  Uiso   1.00
C189   C     0.81719   0.64988   0.93405   0.00000  Uiso   1.00
C190   C     0.15237   0.62021   0.82125   0.00000  Uiso   1.00
C191   C     0.19732   0.58450   0.77622   0.00000  Uiso   1.00
C192   C     0.23736   0.52021   0.80786   0.00000  Uiso   1.00
C193   C     0.31341   0.41414   0.83263   0.00000  Uiso   1.00
C194   C     0.11801   0.74285   0.82105   0.00000  Uiso   1.00
C195   C     0.13410   0.81025   0.77586   0.00000  Uiso   1.00
C196   C     0.14523   0.84922   0.80733   0.00000  Uiso   1.00
C197   C     0.16794   0.93357   0.83181   0.00000  Uiso   1.00
C198   C     0.09507   0.64056   0.93430   0.00000  Uiso   1.00
C199   C     0.03044   0.64837   0.91920   0.00000  Uiso   1.00
C200   C     0.97192   0.63092   0.97105   0.00000  Uiso   1.00
C201   C     0.91828   0.64198   0.94623   0.00000  Uiso   1.00
C202   C     0.14759   0.59269   0.89525   0.00000  Uiso   1.00
C203   C     0.18758   0.52845   0.92697   0.00000  Uiso   1.00
C204   C     0.23258   0.49264   0.88200   0.00000  Uiso   1.00
C205   C     0.11323   0.71534   0.89506   0.00000  Uiso   1.00
C206   C     0.12435   0.75421   0.92661   0.00000  Uiso   1.00
C207   C     0.14045   0.82165   0.88148   0.00000  Uiso   1.00
H208   H     0.10760   0.71264   0.74042   0.00000  Uiso   1.00
H209   H     0.98538   0.70826   0.76302   0.00000  Uiso   1.00
H210   H     0.20101   0.60581   0.71894   0.00000  Uiso   1.00
H211   H     0.13779   0.83153   0.71859   0.00000  Uiso   1.00
H212   H     0.84777   0.69124   0.82071   0.00000  Uiso   1.00
H213   H     0.30246   0.47522   0.72777   0.00000  Uiso   1.00
H214   H     0.16916   0.95121   0.72702   0.00000  Uiso   1.00
H215   H     0.09135   0.61914   0.99192   0.00000  Uiso   1.00
H216   H     0.96823   0.60963   0.02832   0.00000  Uiso   1.00
H217   H     0.18387   0.50717   0.98424   0.00000  Uiso   1.00
H218   H     0.12065   0.73290   0.98389   0.00000  Uiso   1.00
H219   H     0.83385   0.61119   0.03604   0.00000  Uiso   1.00
H220   H     0.28855   0.39517   0.94310   0.00000  Uiso   1.00
H221   H     0.15524   0.87115   0.94235   0.00000  Uiso   1.00
O222   O     0.76012   0.64662   0.94778   0.00000  Uiso   1.00
O223   O     0.35666   0.36322   0.82585   0.00000  Uiso   1.00
O224   O     0.18177   0.98770   0.82486   0.00000  Uiso   1.00
N225   N     0.86138   0.67372   0.86639   0.00000  Uiso   1.00
N226   N     0.28649   0.47175   0.77950   0.00000  Uiso   1.00
N227   N     0.16188   0.91674   0.77880   0.00000  Uiso   1.00
N228   N     0.85390   0.63064   0.98226   0.00000  Uiso   1.00
N229   N     0.27900   0.42867   0.89537   0.00000  Uiso   1.00
N230   N     0.15439   0.87367   0.89466   0.00000  Uiso   1.00
C231   C     0.68117   0.81616   0.08702   0.00000  Uiso   1.00
C232   C     0.68408   0.83965   0.00777   0.00000  Uiso   1.00
C233   C     0.69107   0.79411   0.97335   0.00000  Uiso   1.00
C234   C     0.69265   0.82613   0.90060   0.00000  Uiso   1.00
C235   C     0.69793   0.85123   0.78318   0.00000  Uiso   1.00
C236   C     0.61639   0.85897   0.11949   0.00000  Uiso   1.00
C237   C     0.56647   0.82966   0.17899   0.00000  Uiso   1.00
C238   C     0.51107   0.87795   0.20029   0.00000  Uiso   1.00
C239   C     0.41128   0.93303   0.25634   0.00000  Uiso   1.00
C240   C     0.73645   0.84433   0.08721   0.00000  Uiso   1.00
C241   C     0.78747   0.80271   0.11960   0.00000  Uiso   1.00
C242   C     0.83316   0.83868   0.11373   0.00000  Uiso   1.00
C243   C     0.91978   0.87103   0.11967   0.00000  Uiso   1.00
C244   C     0.67156   0.95402   0.01904   0.00000  Uiso   1.00
C245   C     0.67886   0.91454   0.97085   0.00000  Uiso   1.00
C246   C     0.68044   0.94664   0.89813   0.00000  Uiso   1.00
C247   C     0.68743   0.90115   0.86360   0.00000  Uiso   1.00
C248   C     0.61117   0.93385   0.08256   0.00000  Uiso   1.00
C249   C     0.55584   0.98219   0.10378   0.00000  Uiso   1.00
C250   C     0.50584   0.95296   0.16330   0.00000  Uiso   1.00
C251   C     0.73123   0.91921   0.05028   0.00000  Uiso   1.00
C252   C     0.77684   0.95524   0.04438   0.00000  Uiso   1.00
C253   C     0.82793   0.91369   0.07674   0.00000  Uiso   1.00
H254   H     0.68523   0.75786   0.11577   0.00000  Uiso   1.00
H255   H     0.69510   0.73616   0.00194   0.00000  Uiso   1.00
H256   H     0.57052   0.77171   0.20756   0.00000  Uiso   1.00
H257   H     0.79149   0.74477   0.14817   0.00000  Uiso   1.00
H258   H     0.70372   0.74513   0.85947   0.00000  Uiso   1.00
H259   H     0.44105   0.82009   0.29304   0.00000  Uiso   1.00
H260   H     0.90701   0.76327   0.16780   0.00000  Uiso   1.00
H261   H     0.66750   0.01232   0.99029   0.00000  Uiso   1.00
H262   H     0.67640   0.00459   0.86957   0.00000  Uiso   1.00
H263   H     0.55182   0.04013   0.07519   0.00000  Uiso   1.00
H264   H     0.77279   0.01319   0.01580   0.00000  Uiso   1.00
H265   H     0.68853   0.96300   0.75203   0.00000  Uiso   1.00
H266   H     0.42586   0.03795   0.18561   0.00000  Uiso   1.00
H267   H     0.89183   0.98114   0.06036   0.00000  Uiso   1.00
O268   O     0.70228   0.84439   0.72861   0.00000  Uiso   1.00
O269   O     0.35767   0.94273   0.29745   0.00000  Uiso   1.00
O270   O     0.96900   0.86818   0.13313   0.00000  Uiso   1.00
N271   N     0.69893   0.79747   0.85075   0.00000  Uiso   1.00
N272   N     0.45335   0.86755   0.25611   0.00000  Uiso   1.00
N273   N     0.88898   0.81443   0.13903   0.00000  Uiso   1.00
N274   N     0.69077   0.91470   0.79294   0.00000  Uiso   1.00
N275   N     0.44518   0.98478   0.19830   0.00000  Uiso   1.00
N276   N     0.88081   0.93166   0.08122   0.00000  Uiso   1.00
C277   C     0.65730   0.79426   0.44663   0.00000  Uiso   1.00
C278   C     0.61801   0.81572   0.51212   0.00000  Uiso   1.00
C279   C     0.64439   0.81520   0.56190   0.00000  Uiso   1.00
C280   C     0.60018   0.83677   0.61801   0.00000  Uiso   1.00
C281   C     0.54954   0.86690   0.71875   0.00000  Uiso   1.00
C282   C     0.64090   0.85928   0.38112   0.00000  Uiso   1.00
C283   C     0.68653   0.89538   0.32077   0.00000  Uiso   1.00
C284   C     0.66158   0.95361   0.26660   0.00000  Uiso   1.00
C285   C     0.64648   0.05132   0.16395   0.00000  Uiso   1.00
C286   C     0.62704   0.73465   0.45428   0.00000  Uiso   1.00
C287   C     0.66101   0.66596   0.45541   0.00000  Uiso   1.00
C288   C     0.62440   0.61926   0.46282   0.00000  Uiso   1.00
C289   C     0.58778   0.52347   0.47375   0.00000  Uiso   1.00
C290   C     0.53188   0.83347   0.45776   0.00000  Uiso   1.00
C291   C     0.54989   0.83703   0.51816   0.00000  Uiso   1.00
C292   C     0.50563   0.85859   0.57421   0.00000  Uiso   1.00
C293   C     0.53193   0.85811   0.62406   0.00000  Uiso   1.00
C294   C     0.57278   0.88058   0.38716   0.00000  Uiso   1.00
C295   C     0.54776   0.93877   0.33308   0.00000  Uiso   1.00
C296   C     0.59333   0.97495   0.27266   0.00000  Uiso   1.00
C297   C     0.55892   0.75595   0.46032   0.00000  Uiso   1.00
C298   C     0.52225   0.70935   0.46772   0.00000  Uiso   1.00
C299   C     0.55615   0.64060   0.46887   0.00000  Uiso   1.00
H300   H     0.71034   0.77768   0.44193   0.00000  Uiso   1.00
H301   H     0.69711   0.79872   0.55720   0.00000  Uiso   1.00
H302   H     0.73924   0.87888   0.31610   0.00000  Uiso   1.00
H303   H     0.71373   0.64949   0.45073   0.00000  Uiso   1.00
H304   H     0.65241   0.83147   0.68765   0.00000  Uiso   1.00
H305   H     0.74124   0.00047   0.17928   0.00000  Uiso   1.00
H306   H     0.68744   0.51677   0.46317   0.00000  Uiso   1.00
H307   H     0.47884   0.85006   0.46246   0.00000  Uiso   1.00
H308   H     0.45291   0.87508   0.57887   0.00000  Uiso   1.00
H309   H     0.49504   0.95523   0.33777   0.00000  Uiso   1.00
H310   H     0.46953   0.72585   0.47240   0.00000  Uiso   1.00
H311   H     0.45421   0.89345   0.70524   0.00000  Uiso   1.00
H312   H     0.54304   0.06245   0.19686   0.00000  Uiso   1.00
H313   H     0.48924   0.57875   0.48075   0.00000  Uiso   1.00
O314   O     0.54043   0.87764   0.77264   0.00000  Uiso   1.00
O315   O     0.65697   0.09934   0.10566   0.00000  Uiso   1.00
O316   O     0.58640   0.46474   0.47812   0.00000  Uiso   1.00
N317   N     0.60932   0.84261   0.67582   0.00000  Uiso   1.00
N318   N     0.69237   0.00062   0.20053   0.00000  Uiso   1.00
N319   N     0.64208   0.54841   0.46592   0.00000  Uiso   1.00
N320   N     0.50267   0.87596   0.68529   0.00000  Uiso   1.00
N321   N     0.58572   0.03397   0.20999   0.00000  Uiso   1.00
N322   N     0.53543   0.58176   0.47538   0.00000  Uiso   1.00
C323   C     0.36176   0.68466   0.84558   0.00000  Uiso   1.00
C324   C     0.43419   0.66600   0.84595   0.00000  Uiso   1.00
C325   C     0.46876   0.71210   0.84325   0.00000  Uiso   1.00
C326   C     0.53467   0.68480   0.84414   0.00000  Uiso   1.00
C327   C     0.64253   0.66659   0.84422   0.00000  Uiso   1.00
C328   C     0.32791   0.62805   0.91337   0.00000  Uiso   1.00
C329   C     0.27311   0.64225   0.96734   0.00000  Uiso   1.00
C330   C     0.24955   0.58299   0.02497   0.00000  Uiso   1.00
C331   C     0.19239   0.50586   0.12969   0.00000  Uiso   1.00
C332   C     0.36128   0.67053   0.78181   0.00000  Uiso   1.00
C333   C     0.33451   0.72044   0.72518   0.00000  Uiso   1.00
C334   C     0.33902   0.69695   0.67206   0.00000  Uiso   1.00
C335   C     0.33366   0.68578   0.57251   0.00000  Uiso   1.00
C336   C     0.41736   0.55419   0.85195   0.00000  Uiso   1.00
C337   C     0.46439   0.59513   0.84941   0.00000  Uiso   1.00
C338   C     0.53027   0.56775   0.85030   0.00000  Uiso   1.00
C339   C     0.56492   0.61381   0.84760   0.00000  Uiso   1.00
C340   C     0.35811   0.55718   0.91683   0.00000  Uiso   1.00
C341   C     0.33462   0.49789   0.97439   0.00000  Uiso   1.00
C342   C     0.27980   0.51200   0.02844   0.00000  Uiso   1.00
C343   C     0.39147   0.59966   0.78527   0.00000  Uiso   1.00
C344   C     0.39602   0.57609   0.73223   0.00000  Uiso   1.00
C345   C     0.36927   0.62596   0.67552   0.00000  Uiso   1.00
H346   H     0.33825   0.73983   0.84289   0.00000  Uiso   1.00
H347   H     0.44537   0.76694   0.84058   0.00000  Uiso   1.00
H348   H     0.24975   0.69709   0.96465   0.00000  Uiso   1.00
H349   H     0.31114   0.77528   0.72252   0.00000  Uiso   1.00
H350   H     0.57744   0.76573   0.83957   0.00000  Uiso   1.00
H351   H     0.16496   0.61845   0.10116   0.00000  Uiso   1.00
H352   H     0.29441   0.78332   0.59059   0.00000  Uiso   1.00
H353   H     0.44087   0.49902   0.85465   0.00000  Uiso   1.00
H354   H     0.55362   0.51291   0.85298   0.00000  Uiso   1.00
H355   H     0.35800   0.44306   0.97705   0.00000  Uiso   1.00
H356   H     0.41939   0.52125   0.73492   0.00000  Uiso   1.00
H357   H     0.66530   0.55955   0.84964   0.00000  Uiso   1.00
H358   H     0.25281   0.41227   0.11122   0.00000  Uiso   1.00
H359   H     0.38227   0.57714   0.60065   0.00000  Uiso   1.00
O360   O     0.69369   0.67612   0.84332   0.00000  Uiso   1.00
O361   O     0.15252   0.48290   0.18650   0.00000  Uiso   1.00
O362   O     0.32236   0.69920   0.51664   0.00000  Uiso   1.00
N363   N     0.58265   0.71531   0.84215   0.00000  Uiso   1.00
N364   N     0.19701   0.57761   0.08673   0.00000  Uiso   1.00
N365   N     0.31802   0.73174   0.60940   0.00000  Uiso   1.00
N366   N     0.62993   0.60436   0.84757   0.00000  Uiso   1.00
N367   N     0.24429   0.46666   0.09214   0.00000  Uiso   1.00
N368   N     0.36530   0.62080   0.61481   0.00000  Uiso   1.00
C369   C     0.82832   0.38214   0.69757   0.00000  Uiso   1.00
C370   C     0.83607   0.45976   0.64826   0.00000  Uiso   1.00
C371   C     0.82615   0.51581   0.67086   0.00000  Uiso   1.00
C372   C     0.83578   0.58288   0.61734   0.00000  Uiso   1.00
C373   C     0.84498   0.70179   0.55195   0.00000  Uiso   1.00
C374   C     0.89444   0.33439   0.67551   0.00000  Uiso   1.00
C375   C     0.93358   0.28502   0.72103   0.00000  Uiso   1.00
C376   C     0.99233   0.24655   0.69046   0.00000  Uiso   1.00
C377   C     0.09212   0.17078   0.66739   0.00000  Uiso   1.00
C378   C     0.77825   0.36559   0.67625   0.00000  Uiso   1.00
C379   C     0.71971   0.34245   0.72239   0.00000  Uiso   1.00
C380   C     0.68065   0.33023   0.69244   0.00000  Uiso   1.00
C381   C     0.60004   0.30291   0.67052   0.00000  Uiso   1.00
C382   C     0.86305   0.40158   0.56233   0.00000  Uiso   1.00
C383   C     0.85494   0.47032   0.57480   0.00000  Uiso   1.00
C384   C     0.86458   0.53732   0.52123   0.00000  Uiso   1.00
C385   C     0.85467   0.59346   0.54375   0.00000  Uiso   1.00
C386   C     0.91330   0.34495   0.60206   0.00000  Uiso   1.00
C387   C     0.97201   0.30653   0.57141   0.00000  Uiso   1.00
C388   C     0.01123   0.25712   0.61687   0.00000  Uiso   1.00
C389   C     0.79711   0.37615   0.60279   0.00000  Uiso   1.00
C390   C     0.75814   0.36396   0.57277   0.00000  Uiso   1.00
C391   C     0.69955   0.34080   0.61885   0.00000  Uiso   1.00
H392   H     0.81364   0.37392   0.75475   0.00000  Uiso   1.00
H393   H     0.81156   0.50762   0.72771   0.00000  Uiso   1.00
H394   H     0.91897   0.27686   0.77788   0.00000  Uiso   1.00
H395   H     0.70513   0.33428   0.77923   0.00000  Uiso   1.00
H396   H     0.81760   0.66049   0.66533   0.00000  Uiso   1.00
H397   H     0.04406   0.17392   0.77112   0.00000  Uiso   1.00
H398   H     0.59315   0.29500   0.77398   0.00000  Uiso   1.00
H399   H     0.87774   0.40980   0.50514   0.00000  Uiso   1.00
H400   H     0.87918   0.54547   0.46439   0.00000  Uiso   1.00
H401   H     0.98659   0.31471   0.51456   0.00000  Uiso   1.00
H402   H     0.77275   0.37214   0.51592   0.00000  Uiso   1.00
H403   H     0.87249   0.69122   0.45161   0.00000  Uiso   1.00
H404   H     0.09895   0.20464   0.55740   0.00000  Uiso   1.00
H405   H     0.64803   0.32572   0.56027   0.00000  Uiso   1.00
O406   O     0.84486   0.76445   0.53617   0.00000  Uiso   1.00
O407   O     0.14196   0.12607   0.67497   0.00000  Uiso   1.00
O408   O     0.55037   0.28493   0.67872   0.00000  Uiso   1.00
N409   N     0.83031   0.64911   0.62062   0.00000  Uiso   1.00
N410   N     0.04204   0.19420   0.71953   0.00000  Uiso   1.00
N411   N     0.62048   0.30738   0.72221   0.00000  Uiso   1.00
N412   N     0.85984   0.66564   0.50562   0.00000  Uiso   1.00
N413   N     0.07157   0.21073   0.60453   0.00000  Uiso   1.00
N414   N     0.65002   0.32391   0.60721   0.00000  Uiso   1.00
C415   C     0.17812   0.89763   0.33931   0.00000  Uiso   1.00
C416   C     0.14501   0.97254   0.34243   0.00000  Uiso   1.00
C417   C     0.17719   0.02340   0.33469   0.00000  Uiso   1.00
C418   C     0.13807   0.08873   0.33927   0.00000  Uiso   1.00
C419   C     0.09713   0.20293   0.34234   0.00000  Uiso   1.00
C420   C     0.14428   0.84404   0.41028   0.00000  Uiso   1.00
C421   C     0.17584   0.78685   0.45957   0.00000  Uiso   1.00
C422   C     0.13610   0.74401   0.52127   0.00000  Uiso   1.00
C423   C     0.09403   0.65866   0.62964   0.00000  Uiso   1.00
C424   C     0.15824   0.89384   0.28025   0.00000  Uiso   1.00
C425   C     0.20154   0.87850   0.22022   0.00000  Uiso   1.00
C426   C     0.17355   0.87757   0.17244   0.00000  Uiso   1.00
C427   C     0.15315   0.86956   0.07893   0.00000  Uiso   1.00
C428   C     0.05143   0.92322   0.36122   0.00000  Uiso   1.00
C429   C     0.07620   0.98644   0.35433   0.00000  Uiso   1.00
C430   C     0.03702   0.05172   0.35892   0.00000  Uiso   1.00
C431   C     0.06913   0.10266   0.35118   0.00000  Uiso   1.00
C432   C     0.07547   0.85794   0.42218   0.00000  Uiso   1.00
C433   C     0.03568   0.81516   0.48381   0.00000  Uiso   1.00
C434   C     0.06717   0.75793   0.53319   0.00000  Uiso   1.00
C435   C     0.08943   0.90774   0.29215   0.00000  Uiso   1.00
C436   C     0.06137   0.90683   0.24446   0.00000  Uiso   1.00
C437   C     0.10461   0.89150   0.18437   0.00000  Uiso   1.00
H438   H     0.23169   0.88680   0.33005   0.00000  Uiso   1.00
H439   H     0.23044   0.01262   0.32549   0.00000  Uiso   1.00
H440   H     0.22909   0.77610   0.45035   0.00000  Uiso   1.00
H441   H     0.25478   0.86775   0.21103   0.00000  Uiso   1.00
H442   H     0.19870   0.15823   0.32569   0.00000  Uiso   1.00
H443   H     0.19587   0.65951   0.58896   0.00000  Uiso   1.00
H444   H     0.25004   0.85276   0.08432   0.00000  Uiso   1.00
H445   H     0.99786   0.93404   0.37048   0.00000  Uiso   1.00
H446   H     0.98377   0.06246   0.36813   0.00000  Uiso   1.00
H447   H     0.98243   0.82594   0.49300   0.00000  Uiso   1.00
H448   H     0.00812   0.91759   0.25368   0.00000  Uiso   1.00
H449   H     0.99850   0.19868   0.36031   0.00000  Uiso   1.00
H450   H     0.99567   0.69995   0.62358   0.00000  Uiso   1.00
H451   H     0.04984   0.89321   0.11894   0.00000  Uiso   1.00
O452   O     0.09356   0.26207   0.34075   0.00000  Uiso   1.00
O453   O     0.08984   0.60775   0.68614   0.00000  Uiso   1.00
O454   O     0.16091   0.86131   0.02406   0.00000  Uiso   1.00
N455   N     0.15352   0.15013   0.33415   0.00000  Uiso   1.00
N456   N     0.15087   0.68386   0.58030   0.00000  Uiso   1.00
N457   N     0.20151   0.86452   0.10851   0.00000  Uiso   1.00
N458   N     0.04579   0.17190   0.35278   0.00000  Uiso   1.00
N459   N     0.04314   0.70563   0.59892   0.00000  Uiso   1.00
N460   N     0.09379   0.88629   0.12713   0.00000  Uiso   1.00
C461   C     0.89613   0.30878   0.20196   0.00000  Uiso   1.00
C462   C     0.96479   0.32412   0.15481   0.00000  Uiso   1.00
C463   C     0.01835   0.31303   0.17970   0.00000  Uiso   1.00
C464   C     0.07693   0.33045   0.12791   0.00000  Uiso   1.00
C465   C     0.18281   0.35012   0.06595   0.00000  Uiso   1.00
C466   C     0.84763   0.37979   0.17875   0.00000  Uiso   1.00
C467   C     0.80268   0.41550   0.22378   0.00000  Uiso   1.00
C468   C     0.76264   0.47979   0.19214   0.00000  Uiso   1.00
C469   C     0.68659   0.58586   0.16737   0.00000  Uiso   1.00
C470   C     0.88199   0.25715   0.17895   0.00000  Uiso   1.00
C471   C     0.86590   0.18975   0.22414   0.00000  Uiso   1.00
C472   C     0.85477   0.15078   0.19267   0.00000  Uiso   1.00
C473   C     0.83206   0.06643   0.16819   0.00000  Uiso   1.00
C474   C     0.90493   0.35944   0.06570   0.00000  Uiso   1.00
C475   C     0.96956   0.35163   0.08080   0.00000  Uiso   1.00
C476   C     0.02808   0.36908   0.02895   0.00000  Uiso   1.00
C477   C     0.08172   0.35802   0.05377   0.00000  Uiso   1.00
C478   C     0.85241   0.40731   0.10475   0.00000  Uiso   1.00
C479   C     0.81242   0.47155   0.07303   0.00000  Uiso   1.00
C480   C     0.76742   0.50736   0.11800   0.00000  Uiso   1.00
C481   C     0.88677   0.28466   0.10494   0.00000  Uiso   1.00
C482   C     0.87565   0.24579   0.07339   0.00000  Uiso   1.00
C483   C     0.85955   0.17835   0.11852   0.00000  Uiso   1.00
H484   H     0.89240   0.28736   0.25958   0.00000  Uiso   1.00
H485   H     0.01462   0.29174   0.23698   0.00000  Uiso   1.00
H486   H     0.79899   0.39419   0.28106   0.00000  Uiso   1.00
H487   H     0.86221   0.16847   0.28141   0.00000  Uiso   1.00
H488   H     0.15223   0.30876   0.17929   0.00000  Uiso   1.00
H489   H     0.69754   0.52478   0.27223   0.00000  Uiso   1.00
H490   H     0.83084   0.04879   0.27298   0.00000  Uiso   1.00
H491   H     0.90865   0.38086   0.00808   0.00000  Uiso   1.00
H492   H     0.03177   0.39037   0.97168   0.00000  Uiso   1.00
H493   H     0.81613   0.49283   0.01576   0.00000  Uiso   1.00
H494   H     0.87935   0.26710   0.01611   0.00000  Uiso   1.00
H495   H     0.16615   0.38881   0.96396   0.00000  Uiso   1.00
H496   H     0.71145   0.60483   0.05690   0.00000  Uiso   1.00
H497   H     0.84476   0.12885   0.05765   0.00000  Uiso   1.00
O498   O     0.23988   0.35338   0.05222   0.00000  Uiso   1.00
O499   O     0.64334   0.63678   0.17415   0.00000  Uiso   1.00
O500   O     0.81823   0.01230   0.17514   0.00000  Uiso   1.00
N501   N     0.13862   0.32628   0.13361   0.00000  Uiso   1.00
N502   N     0.71351   0.52825   0.22050   0.00000  Uiso   1.00
N503   N     0.83812   0.08326   0.22120   0.00000  Uiso   1.00
N504   N     0.14610   0.36936   0.01774   0.00000  Uiso   1.00
N505   N     0.72100   0.57133   0.10463   0.00000  Uiso   1.00
N506   N     0.84561   0.12633   0.10534   0.00000  Uiso   1.00
C507   C     0.31883   0.18384   0.91298   0.00000  Uiso   1.00
C508   C     0.31592   0.16035   0.99223   0.00000  Uiso   1.00
C509   C     0.30893   0.20589   0.02665   0.00000  Uiso   1.00
C510   C     0.30735   0.17387   0.09940   0.00000  Uiso   1.00
C511   C     0.30207   0.14877   0.21682   0.00000  Uiso   1.00
C512   C     0.38361   0.14103   0.88051   0.00000  Uiso   1.00
C513   C     0.43353   0.17034   0.82101   0.00000  Uiso   1.00
C514   C     0.48893   0.12205   0.79971   0.00000  Uiso   1.00
C515   C     0.58872   0.06697   0.74366   0.00000  Uiso   1.00
C516   C     0.26355   0.15567   0.91279   0.00000  Uiso   1.00
C517   C     0.21253   0.19729   0.88040   0.00000  Uiso   1.00
C518   C     0.16684   0.16132   0.88627   0.00000  Uiso   1.00
C519   C     0.08022   0.12897   0.88033   0.00000  Uiso   1.00
C520   C     0.32844   0.04598   0.98096   0.00000  Uiso   1.00
C521   C     0.32114   0.08546   0.02915   0.00000  Uiso   1.00
C522   C     0.31956   0.05336   0.10187   0.00000  Uiso   1.00
C523   C     0.31257   0.09885   0.13640   0.00000  Uiso   1.00
C524   C     0.38883   0.06615   0.91744   0.00000  Uiso   1.00
C525   C     0.44416   0.01781   0.89622   0.00000  Uiso   1.00
C526   C     0.49416   0.04704   0.83670   0.00000  Uiso   1.00
C527   C     0.26877   0.08079   0.94972   0.00000  Uiso   1.00
C528   C     0.22316   0.04476   0.95562   0.00000  Uiso   1.00
C529   C     0.17207   0.08631   0.92326   0.00000  Uiso   1.00
H530   H     0.31477   0.24214   0.88423   0.00000  Uiso   1.00
H531   H     0.30490   0.26384   0.99806   0.00000  Uiso   1.00
H532   H     0.42948   0.22829   0.79244   0.00000  Uiso   1.00
H533   H     0.20851   0.25523   0.85183   0.00000  Uiso   1.00
H534   H     0.29628   0.25487   0.14053   0.00000  Uiso   1.00
H535   H     0.55895   0.17991   0.70696   0.00000  Uiso   1.00
H536   H     0.09299   0.23673   0.83220   0.00000  Uiso   1.00
H537   H     0.33250   0.98768   0.00971   0.00000  Uiso   1.00
H538   H     0.32360   0.99541   0.13043   0.00000  Uiso   1.00
H539   H     0.44818   0.95987   0.92481   0.00000  Uiso   1.00
H540   H     0.22721   0.98681   0.98420   0.00000  Uiso   1.00
H541   H     0.31147   0.03700   0.24797   0.00000  Uiso   1.00
H542   H     0.57414   0.96205   0.81439   0.00000  Uiso   1.00
H543   H     0.10817   0.01886   0.93964   0.00000  Uiso   1.00
O544   O     0.29772   0.15561   0.27139   0.00000  Uiso   1.00
O545   O     0.64233   0.05727   0.70255   0.00000  Uiso   1.00
O546   O     0.03100   0.13182   0.86687   0.00000  Uiso   1.00
N547   N     0.30107   0.20253   0.14925   0.00000  Uiso   1.00
N548   N     0.54665   0.13245   0.74389   0.00000  Uiso   1.00
N549   N     0.11102   0.18557   0.86097   0.00000  Uiso   1.00
N550   N     0.30923   0.08530   0.20706   0.00000  Uiso   1.00
N551   N     0.55482   0.01522   0.80170   0.00000  Uiso   1.00
N552   N     0.11919   0.06834   0.91878   0.00000  Uiso   1.00
