data_job_02301
_audit_creation_date              2018-12-19
_audit_creation_method            'Materials Studio'
_symmetry_space_group_name_H-M    'P1'
_symmetry_Int_Tables_number       1
_symmetry_cell_setting            triclinic
loop_
_symmetry_equiv_pos_as_xyz
  x,y,z
_cell_length_a                    21.1860
_cell_length_b                    21.1860
_cell_length_c                    11.3065
_cell_angle_alpha                 90.0000
_cell_angle_beta                  90.0000
_cell_angle_gamma                 90.0000
loop_
_atom_site_label
_atom_site_type_symbol
_atom_site_fract_x
_atom_site_fract_y
_atom_site_fract_z
_atom_site_U_iso_or_equiv
_atom_site_adp_type
_atom_site_occupancy
C1     C     0.29171   0.49901   0.98390   0.00000  Uiso   1.00
C2     C     0.27849   0.48424   0.11356   0.00000  Uiso   1.00
C3     C     0.30723   0.43709   0.17956   0.00000  Uiso   1.00
C4     C     0.28862   0.43116   0.29677   0.00000  Uiso   1.00
C5     C     0.27502   0.40215   0.49057   0.00000  Uiso   1.00
C6     C     0.22828   0.49464   0.92069   0.00000  Uiso   1.00
C7     C     0.21481   0.45622   0.82451   0.00000  Uiso   1.00
C8     C     0.15393   0.45905   0.77936   0.00000  Uiso   1.00
C9     C     0.06239   0.44621   0.67368   0.00000  Uiso   1.00
C10    C     0.31068   0.56841   0.97967   0.00000  Uiso   1.00
C11    C     0.36649   0.59202   0.93307   0.00000  Uiso   1.00
C12    C     0.37498   0.65696   0.93756   0.00000  Uiso   1.00
C13    C     0.41138   0.75866   0.92346   0.00000  Uiso   1.00
C14    C     0.20754   0.57235   0.07470   0.00000  Uiso   1.00
C15    C     0.23277   0.52408   0.16287   0.00000  Uiso   1.00
C16    C     0.21411   0.51822   0.28002   0.00000  Uiso   1.00
C17    C     0.24282   0.47106   0.34618   0.00000  Uiso   1.00
C18    C     0.18256   0.53447   0.97000   0.00000  Uiso   1.00
C19    C     0.12169   0.53736   0.92497   0.00000  Uiso   1.00
C20    C     0.10813   0.49895   0.82877   0.00000  Uiso   1.00
C21    C     0.26496   0.60824   0.02899   0.00000  Uiso   1.00
C22    C     0.27336   0.67316   0.03354   0.00000  Uiso   1.00
C23    C     0.32918   0.69687   0.98696   0.00000  Uiso   1.00
H24    H     0.32730   0.46800   0.94550   0.00000  Uiso   1.00
H25    H     0.34260   0.40627   0.14135   0.00000  Uiso   1.00
H26    H     0.25020   0.42541   0.78636   0.00000  Uiso   1.00
H27    H     0.40185   0.56119   0.89491   0.00000  Uiso   1.00
H28    H     0.33940   0.35537   0.38023   0.00000  Uiso   1.00
H29    H     0.14456   0.39574   0.63169   0.00000  Uiso   1.00
H30    H     0.46436   0.68206   0.86058   0.00000  Uiso   1.00
H31    H     0.17194   0.60336   0.11309   0.00000  Uiso   1.00
H32    H     0.17873   0.54905   0.31816   0.00000  Uiso   1.00
H33    H     0.08632   0.56819   0.96316   0.00000  Uiso   1.00
H34    H     0.23797   0.70397   0.07171   0.00000  Uiso   1.00
H35    H     0.20638   0.47126   0.52373   0.00000  Uiso   1.00
H36    H     0.01155   0.51163   0.77518   0.00000  Uiso   1.00
H37    H     0.33134   0.79795   0.00408   0.00000  Uiso   1.00
O38    O     0.28014   0.37514   0.58384   0.00000  Uiso   1.00
O39    O     0.02453   0.42811   0.60177   0.00000  Uiso   1.00
O40    O     0.44409   0.80375   0.90208   0.00000  Uiso   1.00
N41    N     0.30717   0.39011   0.38587   0.00000  Uiso   1.00
N42    N     0.12501   0.42784   0.68604   0.00000  Uiso   1.00
N43    N     0.42398   0.69553   0.90001   0.00000  Uiso   1.00
N44    N     0.23560   0.45247   0.46309   0.00000  Uiso   1.00
N45    N     0.05344   0.49020   0.76325   0.00000  Uiso   1.00
N46    N     0.35241   0.75789   0.97722   0.00000  Uiso   1.00
C47    C     0.70829   0.50099   0.48390   0.00000  Uiso   1.00
C48    C     0.72151   0.51576   0.61356   0.00000  Uiso   1.00
C49    C     0.69277   0.56291   0.67956   0.00000  Uiso   1.00
C50    C     0.71138   0.56884   0.79677   0.00000  Uiso   1.00
C51    C     0.72498   0.59785   0.99057   0.00000  Uiso   1.00
C52    C     0.77172   0.50536   0.42069   0.00000  Uiso   1.00
C53    C     0.78519   0.54378   0.32451   0.00000  Uiso   1.00
C54    C     0.84607   0.54095   0.27936   0.00000  Uiso   1.00
C55    C     0.93761   0.55379   0.17368   0.00000  Uiso   1.00
C56    C     0.68932   0.43159   0.47967   0.00000  Uiso   1.00
C57    C     0.63351   0.40798   0.43307   0.00000  Uiso   1.00
C58    C     0.62502   0.34304   0.43756   0.00000  Uiso   1.00
C59    C     0.58862   0.24134   0.42346   0.00000  Uiso   1.00
C60    C     0.79246   0.42765   0.57470   0.00000  Uiso   1.00
C61    C     0.76723   0.47592   0.66287   0.00000  Uiso   1.00
C62    C     0.78589   0.48178   0.78002   0.00000  Uiso   1.00
C63    C     0.75718   0.52894   0.84618   0.00000  Uiso   1.00
C64    C     0.81744   0.46553   0.47000   0.00000  Uiso   1.00
C65    C     0.87831   0.46264   0.42497   0.00000  Uiso   1.00
C66    C     0.89187   0.50105   0.32877   0.00000  Uiso   1.00
C67    C     0.73504   0.39176   0.52899   0.00000  Uiso   1.00
C68    C     0.72664   0.32684   0.53354   0.00000  Uiso   1.00
C69    C     0.67082   0.30313   0.48696   0.00000  Uiso   1.00
H70    H     0.67270   0.53200   0.44550   0.00000  Uiso   1.00
H71    H     0.65740   0.59373   0.64135   0.00000  Uiso   1.00
H72    H     0.74980   0.57459   0.28636   0.00000  Uiso   1.00
H73    H     0.59815   0.43881   0.39491   0.00000  Uiso   1.00
H74    H     0.66060   0.64463   0.88023   0.00000  Uiso   1.00
H75    H     0.85544   0.60426   0.13169   0.00000  Uiso   1.00
H76    H     0.53564   0.31794   0.36058   0.00000  Uiso   1.00
H77    H     0.82806   0.39664   0.61309   0.00000  Uiso   1.00
H78    H     0.82127   0.45095   0.81816   0.00000  Uiso   1.00
H79    H     0.91368   0.43181   0.46316   0.00000  Uiso   1.00
H80    H     0.76203   0.29603   0.57171   0.00000  Uiso   1.00
H81    H     0.79362   0.52874   0.02373   0.00000  Uiso   1.00
H82    H     0.98845   0.48837   0.27518   0.00000  Uiso   1.00
H83    H     0.66866   0.20205   0.50408   0.00000  Uiso   1.00
O84    O     0.71986   0.62486   0.08384   0.00000  Uiso   1.00
O85    O     0.97547   0.57189   0.10177   0.00000  Uiso   1.00
O86    O     0.55591   0.19625   0.40208   0.00000  Uiso   1.00
N87    N     0.69283   0.60989   0.88587   0.00000  Uiso   1.00
N88    N     0.87499   0.57216   0.18604   0.00000  Uiso   1.00
N89    N     0.57602   0.30447   0.40001   0.00000  Uiso   1.00
N90    N     0.76440   0.54753   0.96309   0.00000  Uiso   1.00
N91    N     0.94656   0.50980   0.26325   0.00000  Uiso   1.00
N92    N     0.64759   0.24211   0.47722   0.00000  Uiso   1.00
C93    C     0.00099   0.79171   0.73390   0.00000  Uiso   1.00
C94    C     0.01576   0.77849   0.86356   0.00000  Uiso   1.00
C95    C     0.06291   0.80723   0.92956   0.00000  Uiso   1.00
C96    C     0.06884   0.78862   0.04677   0.00000  Uiso   1.00
C97    C     0.09785   0.77502   0.24057   0.00000  Uiso   1.00
C98    C     0.00536   0.72828   0.67069   0.00000  Uiso   1.00
C99    C     0.04378   0.71481   0.57451   0.00000  Uiso   1.00
C100   C     0.04095   0.65393   0.52936   0.00000  Uiso   1.00
C101   C     0.05379   0.56239   0.42368   0.00000  Uiso   1.00
C102   C     0.93159   0.81068   0.72967   0.00000  Uiso   1.00
C103   C     0.90798   0.86649   0.68307   0.00000  Uiso   1.00
C104   C     0.84304   0.87498   0.68756   0.00000  Uiso   1.00
C105   C     0.74134   0.91138   0.67346   0.00000  Uiso   1.00
C106   C     0.92765   0.70754   0.82470   0.00000  Uiso   1.00
C107   C     0.97592   0.73277   0.91287   0.00000  Uiso   1.00
C108   C     0.98178   0.71411   0.03002   0.00000  Uiso   1.00
C109   C     0.02894   0.74282   0.09618   0.00000  Uiso   1.00
C110   C     0.96553   0.68256   0.72000   0.00000  Uiso   1.00
C111   C     0.96264   0.62169   0.67497   0.00000  Uiso   1.00
C112   C     0.00105   0.60813   0.57877   0.00000  Uiso   1.00
C113   C     0.89176   0.76496   0.77899   0.00000  Uiso   1.00
C114   C     0.82684   0.77336   0.78354   0.00000  Uiso   1.00
C115   C     0.80313   0.82918   0.73696   0.00000  Uiso   1.00
H116   H     0.03200   0.82730   0.69550   0.00000  Uiso   1.00
H117   H     0.09373   0.84260   0.89135   0.00000  Uiso   1.00
H118   H     0.07459   0.75020   0.53636   0.00000  Uiso   1.00
H119   H     0.93881   0.90185   0.64491   0.00000  Uiso   1.00
H120   H     0.14463   0.83940   0.13023   0.00000  Uiso   1.00
H121   H     0.10426   0.64456   0.38169   0.00000  Uiso   1.00
H122   H     0.81794   0.96436   0.61058   0.00000  Uiso   1.00
H123   H     0.89664   0.67194   0.86309   0.00000  Uiso   1.00
H124   H     0.95095   0.67873   0.06816   0.00000  Uiso   1.00
H125   H     0.93181   0.58632   0.71316   0.00000  Uiso   1.00
H126   H     0.79603   0.73797   0.82171   0.00000  Uiso   1.00
H127   H     0.02874   0.70638   0.27373   0.00000  Uiso   1.00
H128   H     0.98837   0.51155   0.52518   0.00000  Uiso   1.00
H129   H     0.70205   0.83134   0.75408   0.00000  Uiso   1.00
O130   O     0.12486   0.78014   0.33384   0.00000  Uiso   1.00
O131   O     0.07189   0.52453   0.35177   0.00000  Uiso   1.00
O132   O     0.69625   0.94409   0.65208   0.00000  Uiso   1.00
N133   N     0.10989   0.80717   0.13587   0.00000  Uiso   1.00
N134   N     0.07216   0.62501   0.43604   0.00000  Uiso   1.00
N135   N     0.80447   0.92398   0.65001   0.00000  Uiso   1.00
N136   N     0.04753   0.73560   0.21309   0.00000  Uiso   1.00
N137   N     0.00980   0.55344   0.51325   0.00000  Uiso   1.00
N138   N     0.74211   0.85241   0.72722   0.00000  Uiso   1.00
C139   C     0.99901   0.20829   0.23390   0.00000  Uiso   1.00
C140   C     0.98424   0.22151   0.36356   0.00000  Uiso   1.00
C141   C     0.93709   0.19277   0.42956   0.00000  Uiso   1.00
C142   C     0.93116   0.21138   0.54677   0.00000  Uiso   1.00
C143   C     0.90215   0.22498   0.74057   0.00000  Uiso   1.00
C144   C     0.99464   0.27172   0.17069   0.00000  Uiso   1.00
C145   C     0.95622   0.28519   0.07451   0.00000  Uiso   1.00
C146   C     0.95905   0.34607   0.02936   0.00000  Uiso   1.00
C147   C     0.94621   0.43761   0.92368   0.00000  Uiso   1.00
C148   C     0.06841   0.18932   0.22967   0.00000  Uiso   1.00
C149   C     0.09202   0.13351   0.18307   0.00000  Uiso   1.00
C150   C     0.15696   0.12502   0.18756   0.00000  Uiso   1.00
C151   C     0.25866   0.08862   0.17346   0.00000  Uiso   1.00
C152   C     0.07235   0.29246   0.32470   0.00000  Uiso   1.00
C153   C     0.02408   0.26723   0.41287   0.00000  Uiso   1.00
C154   C     0.01822   0.28589   0.53002   0.00000  Uiso   1.00
C155   C     0.97106   0.25718   0.59618   0.00000  Uiso   1.00
C156   C     0.03447   0.31744   0.22000   0.00000  Uiso   1.00
C157   C     0.03736   0.37831   0.17497   0.00000  Uiso   1.00
C158   C     0.99895   0.39187   0.07877   0.00000  Uiso   1.00
C159   C     0.10824   0.23504   0.27899   0.00000  Uiso   1.00
C160   C     0.17316   0.22664   0.28354   0.00000  Uiso   1.00
C161   C     0.19687   0.17082   0.23696   0.00000  Uiso   1.00
H162   H     0.96800   0.17270   0.19550   0.00000  Uiso   1.00
H163   H     0.90627   0.15740   0.39135   0.00000  Uiso   1.00
H164   H     0.92541   0.24980   0.03636   0.00000  Uiso   1.00
H165   H     0.06119   0.09815   0.14491   0.00000  Uiso   1.00
H166   H     0.85537   0.16060   0.63023   0.00000  Uiso   1.00
H167   H     0.89574   0.35544   0.88169   0.00000  Uiso   1.00
H168   H     0.18206   0.03564   0.11058   0.00000  Uiso   1.00
H169   H     0.10336   0.32806   0.36309   0.00000  Uiso   1.00
H170   H     0.04905   0.32127   0.56816   0.00000  Uiso   1.00
H171   H     0.06819   0.41368   0.21316   0.00000  Uiso   1.00
H172   H     0.20397   0.26203   0.32171   0.00000  Uiso   1.00
H173   H     0.97126   0.29362   0.77373   0.00000  Uiso   1.00
H174   H     0.01163   0.48845   0.02518   0.00000  Uiso   1.00
H175   H     0.29795   0.16866   0.25408   0.00000  Uiso   1.00
O176   O     0.87514   0.21986   0.83384   0.00000  Uiso   1.00
O177   O     0.92811   0.47547   0.85177   0.00000  Uiso   1.00
O178   O     0.30375   0.05591   0.15208   0.00000  Uiso   1.00
N179   N     0.89011   0.19283   0.63587   0.00000  Uiso   1.00
N180   N     0.92784   0.37499   0.93604   0.00000  Uiso   1.00
N181   N     0.19553   0.07602   0.15001   0.00000  Uiso   1.00
N182   N     0.95247   0.26440   0.71309   0.00000  Uiso   1.00
N183   N     0.99020   0.44656   0.01325   0.00000  Uiso   1.00
N184   N     0.25789   0.14759   0.22722   0.00000  Uiso   1.00
C185   C     0.20829   0.99901   0.76610   0.00000  Uiso   1.00
C186   C     0.22151   0.98424   0.63644   0.00000  Uiso   1.00
C187   C     0.19277   0.93709   0.57044   0.00000  Uiso   1.00
C188   C     0.21138   0.93116   0.45323   0.00000  Uiso   1.00
C189   C     0.22498   0.90215   0.25943   0.00000  Uiso   1.00
C190   C     0.27172   0.99464   0.82931   0.00000  Uiso   1.00
C191   C     0.28519   0.95622   0.92549   0.00000  Uiso   1.00
C192   C     0.34607   0.95905   0.97064   0.00000  Uiso   1.00
C193   C     0.43761   0.94621   0.07632   0.00000  Uiso   1.00
C194   C     0.18932   0.06841   0.77033   0.00000  Uiso   1.00
C195   C     0.13351   0.09202   0.81693   0.00000  Uiso   1.00
C196   C     0.12502   0.15696   0.81244   0.00000  Uiso   1.00
C197   C     0.08862   0.25866   0.82654   0.00000  Uiso   1.00
C198   C     0.29246   0.07235   0.67530   0.00000  Uiso   1.00
C199   C     0.26723   0.02408   0.58713   0.00000  Uiso   1.00
C200   C     0.28589   0.01822   0.46998   0.00000  Uiso   1.00
C201   C     0.25718   0.97106   0.40382   0.00000  Uiso   1.00
C202   C     0.31744   0.03447   0.78000   0.00000  Uiso   1.00
C203   C     0.37831   0.03736   0.82503   0.00000  Uiso   1.00
C204   C     0.39187   0.99895   0.92123   0.00000  Uiso   1.00
C205   C     0.23504   0.10824   0.72101   0.00000  Uiso   1.00
C206   C     0.22664   0.17316   0.71646   0.00000  Uiso   1.00
C207   C     0.17082   0.19687   0.76304   0.00000  Uiso   1.00
H208   H     0.17270   0.96800   0.80450   0.00000  Uiso   1.00
H209   H     0.15740   0.90627   0.60865   0.00000  Uiso   1.00
H210   H     0.24980   0.92541   0.96364   0.00000  Uiso   1.00
H211   H     0.09815   0.06119   0.85509   0.00000  Uiso   1.00
H212   H     0.16060   0.85537   0.36977   0.00000  Uiso   1.00
H213   H     0.35544   0.89574   0.11831   0.00000  Uiso   1.00
H214   H     0.03564   0.18206   0.88942   0.00000  Uiso   1.00
H215   H     0.32806   0.10336   0.63691   0.00000  Uiso   1.00
H216   H     0.32127   0.04905   0.43184   0.00000  Uiso   1.00
H217   H     0.41368   0.06819   0.78684   0.00000  Uiso   1.00
H218   H     0.26203   0.20397   0.67829   0.00000  Uiso   1.00
H219   H     0.29362   0.97126   0.22627   0.00000  Uiso   1.00
H220   H     0.48845   0.01163   0.97482   0.00000  Uiso   1.00
H221   H     0.16866   0.29795   0.74592   0.00000  Uiso   1.00
O222   O     0.21986   0.87514   0.16616   0.00000  Uiso   1.00
O223   O     0.47547   0.92811   0.14823   0.00000  Uiso   1.00
O224   O     0.05591   0.30375   0.84792   0.00000  Uiso   1.00
N225   N     0.19283   0.89011   0.36413   0.00000  Uiso   1.00
N226   N     0.37499   0.92784   0.06396   0.00000  Uiso   1.00
N227   N     0.07602   0.19553   0.84999   0.00000  Uiso   1.00
N228   N     0.26440   0.95247   0.28691   0.00000  Uiso   1.00
N229   N     0.44656   0.99020   0.98675   0.00000  Uiso   1.00
N230   N     0.14759   0.25789   0.77278   0.00000  Uiso   1.00
C231   C     0.79171   0.00099   0.26610   0.00000  Uiso   1.00
C232   C     0.77849   0.01576   0.13644   0.00000  Uiso   1.00
C233   C     0.80723   0.06291   0.07044   0.00000  Uiso   1.00
C234   C     0.78862   0.06884   0.95323   0.00000  Uiso   1.00
C235   C     0.77502   0.09785   0.75943   0.00000  Uiso   1.00
C236   C     0.72828   0.00536   0.32931   0.00000  Uiso   1.00
C237   C     0.71481   0.04378   0.42549   0.00000  Uiso   1.00
C238   C     0.65393   0.04095   0.47064   0.00000  Uiso   1.00
C239   C     0.56239   0.05379   0.57632   0.00000  Uiso   1.00
C240   C     0.81068   0.93159   0.27033   0.00000  Uiso   1.00
C241   C     0.86649   0.90798   0.31693   0.00000  Uiso   1.00
C242   C     0.87498   0.84304   0.31244   0.00000  Uiso   1.00
C243   C     0.91138   0.74134   0.32654   0.00000  Uiso   1.00
C244   C     0.70754   0.92765   0.17530   0.00000  Uiso   1.00
C245   C     0.73277   0.97592   0.08713   0.00000  Uiso   1.00
C246   C     0.71411   0.98178   0.96998   0.00000  Uiso   1.00
C247   C     0.74282   0.02894   0.90382   0.00000  Uiso   1.00
C248   C     0.68256   0.96553   0.28000   0.00000  Uiso   1.00
C249   C     0.62169   0.96264   0.32503   0.00000  Uiso   1.00
C250   C     0.60813   0.00105   0.42123   0.00000  Uiso   1.00
C251   C     0.76496   0.89176   0.22101   0.00000  Uiso   1.00
C252   C     0.77336   0.82684   0.21646   0.00000  Uiso   1.00
C253   C     0.82918   0.80313   0.26304   0.00000  Uiso   1.00
H254   H     0.82730   0.03200   0.30450   0.00000  Uiso   1.00
H255   H     0.84260   0.09373   0.10865   0.00000  Uiso   1.00
H256   H     0.75020   0.07459   0.46364   0.00000  Uiso   1.00
H257   H     0.90185   0.93881   0.35509   0.00000  Uiso   1.00
H258   H     0.83940   0.14463   0.86977   0.00000  Uiso   1.00
H259   H     0.64456   0.10426   0.61831   0.00000  Uiso   1.00
H260   H     0.96436   0.81794   0.38942   0.00000  Uiso   1.00
H261   H     0.67194   0.89664   0.13691   0.00000  Uiso   1.00
H262   H     0.67873   0.95095   0.93184   0.00000  Uiso   1.00
H263   H     0.58632   0.93181   0.28684   0.00000  Uiso   1.00
H264   H     0.73797   0.79603   0.17829   0.00000  Uiso   1.00
H265   H     0.70638   0.02874   0.72627   0.00000  Uiso   1.00
H266   H     0.51155   0.98837   0.47482   0.00000  Uiso   1.00
H267   H     0.83134   0.70205   0.24592   0.00000  Uiso   1.00
O268   O     0.78014   0.12486   0.66616   0.00000  Uiso   1.00
O269   O     0.52453   0.07189   0.64823   0.00000  Uiso   1.00
O270   O     0.94409   0.69625   0.34792   0.00000  Uiso   1.00
N271   N     0.80717   0.10989   0.86413   0.00000  Uiso   1.00
N272   N     0.62501   0.07216   0.56396   0.00000  Uiso   1.00
N273   N     0.92398   0.80447   0.34999   0.00000  Uiso   1.00
N274   N     0.73560   0.04753   0.78691   0.00000  Uiso   1.00
N275   N     0.55344   0.00980   0.48675   0.00000  Uiso   1.00
N276   N     0.85241   0.74211   0.27278   0.00000  Uiso   1.00
C277   C     0.49901   0.29171   0.01610   0.00000  Uiso   1.00
C278   C     0.48424   0.27849   0.88644   0.00000  Uiso   1.00
C279   C     0.43709   0.30723   0.82044   0.00000  Uiso   1.00
C280   C     0.43116   0.28862   0.70323   0.00000  Uiso   1.00
C281   C     0.40215   0.27502   0.50943   0.00000  Uiso   1.00
C282   C     0.49464   0.22828   0.07931   0.00000  Uiso   1.00
C283   C     0.45622   0.21481   0.17549   0.00000  Uiso   1.00
C284   C     0.45905   0.15393   0.22064   0.00000  Uiso   1.00
C285   C     0.44621   0.06239   0.32632   0.00000  Uiso   1.00
C286   C     0.56841   0.31068   0.02033   0.00000  Uiso   1.00
C287   C     0.59202   0.36649   0.06693   0.00000  Uiso   1.00
C288   C     0.65696   0.37498   0.06244   0.00000  Uiso   1.00
C289   C     0.75866   0.41138   0.07654   0.00000  Uiso   1.00
C290   C     0.57235   0.20754   0.92530   0.00000  Uiso   1.00
C291   C     0.52408   0.23277   0.83713   0.00000  Uiso   1.00
C292   C     0.51822   0.21411   0.71998   0.00000  Uiso   1.00
C293   C     0.47106   0.24282   0.65382   0.00000  Uiso   1.00
C294   C     0.53447   0.18256   0.03000   0.00000  Uiso   1.00
C295   C     0.53736   0.12169   0.07503   0.00000  Uiso   1.00
C296   C     0.49895   0.10813   0.17123   0.00000  Uiso   1.00
C297   C     0.60824   0.26496   0.97101   0.00000  Uiso   1.00
C298   C     0.67316   0.27336   0.96646   0.00000  Uiso   1.00
C299   C     0.69687   0.32918   0.01304   0.00000  Uiso   1.00
H300   H     0.46800   0.32730   0.05450   0.00000  Uiso   1.00
H301   H     0.40627   0.34260   0.85865   0.00000  Uiso   1.00
H302   H     0.42541   0.25020   0.21364   0.00000  Uiso   1.00
H303   H     0.56119   0.40185   0.10509   0.00000  Uiso   1.00
H304   H     0.35537   0.33940   0.61977   0.00000  Uiso   1.00
H305   H     0.39574   0.14456   0.36831   0.00000  Uiso   1.00
H306   H     0.68206   0.46436   0.13942   0.00000  Uiso   1.00
H307   H     0.60336   0.17194   0.88691   0.00000  Uiso   1.00
H308   H     0.54905   0.17873   0.68184   0.00000  Uiso   1.00
H309   H     0.56819   0.08632   0.03684   0.00000  Uiso   1.00
H310   H     0.70397   0.23797   0.92829   0.00000  Uiso   1.00
H311   H     0.47126   0.20638   0.47627   0.00000  Uiso   1.00
H312   H     0.51163   0.01155   0.22482   0.00000  Uiso   1.00
H313   H     0.79795   0.33134   0.99592   0.00000  Uiso   1.00
O314   O     0.37514   0.28014   0.41616   0.00000  Uiso   1.00
O315   O     0.42811   0.02453   0.39823   0.00000  Uiso   1.00
O316   O     0.80375   0.44409   0.09792   0.00000  Uiso   1.00
N317   N     0.39011   0.30717   0.61413   0.00000  Uiso   1.00
N318   N     0.42784   0.12501   0.31396   0.00000  Uiso   1.00
N319   N     0.69553   0.42398   0.09999   0.00000  Uiso   1.00
N320   N     0.45247   0.23560   0.53691   0.00000  Uiso   1.00
N321   N     0.49020   0.05344   0.23675   0.00000  Uiso   1.00
N322   N     0.75789   0.35241   0.02278   0.00000  Uiso   1.00
C323   C     0.50099   0.70829   0.51610   0.00000  Uiso   1.00
C324   C     0.51576   0.72151   0.38644   0.00000  Uiso   1.00
C325   C     0.56291   0.69277   0.32044   0.00000  Uiso   1.00
C326   C     0.56884   0.71138   0.20323   0.00000  Uiso   1.00
C327   C     0.59785   0.72498   0.00943   0.00000  Uiso   1.00
C328   C     0.50536   0.77172   0.57931   0.00000  Uiso   1.00
C329   C     0.54378   0.78519   0.67549   0.00000  Uiso   1.00
C330   C     0.54095   0.84607   0.72064   0.00000  Uiso   1.00
C331   C     0.55379   0.93761   0.82632   0.00000  Uiso   1.00
C332   C     0.43159   0.68932   0.52033   0.00000  Uiso   1.00
C333   C     0.40798   0.63351   0.56693   0.00000  Uiso   1.00
C334   C     0.34304   0.62502   0.56244   0.00000  Uiso   1.00
C335   C     0.24134   0.58862   0.57654   0.00000  Uiso   1.00
C336   C     0.42765   0.79246   0.42530   0.00000  Uiso   1.00
C337   C     0.47592   0.76723   0.33713   0.00000  Uiso   1.00
C338   C     0.48178   0.78589   0.21998   0.00000  Uiso   1.00
C339   C     0.52894   0.75718   0.15382   0.00000  Uiso   1.00
C340   C     0.46553   0.81744   0.53000   0.00000  Uiso   1.00
C341   C     0.46264   0.87831   0.57503   0.00000  Uiso   1.00
C342   C     0.50105   0.89187   0.67123   0.00000  Uiso   1.00
C343   C     0.39176   0.73504   0.47101   0.00000  Uiso   1.00
C344   C     0.32684   0.72664   0.46646   0.00000  Uiso   1.00
C345   C     0.30313   0.67082   0.51304   0.00000  Uiso   1.00
H346   H     0.53200   0.67270   0.55450   0.00000  Uiso   1.00
H347   H     0.59373   0.65740   0.35865   0.00000  Uiso   1.00
H348   H     0.57459   0.74980   0.71364   0.00000  Uiso   1.00
H349   H     0.43881   0.59815   0.60509   0.00000  Uiso   1.00
H350   H     0.64463   0.66060   0.11977   0.00000  Uiso   1.00
H351   H     0.60426   0.85544   0.86831   0.00000  Uiso   1.00
H352   H     0.31794   0.53564   0.63942   0.00000  Uiso   1.00
H353   H     0.39664   0.82806   0.38691   0.00000  Uiso   1.00
H354   H     0.45095   0.82127   0.18184   0.00000  Uiso   1.00
H355   H     0.43181   0.91368   0.53684   0.00000  Uiso   1.00
H356   H     0.29603   0.76203   0.42829   0.00000  Uiso   1.00
H357   H     0.52874   0.79362   0.97627   0.00000  Uiso   1.00
H358   H     0.48837   0.98845   0.72482   0.00000  Uiso   1.00
H359   H     0.20205   0.66866   0.49592   0.00000  Uiso   1.00
O360   O     0.62486   0.71986   0.91616   0.00000  Uiso   1.00
O361   O     0.57189   0.97547   0.89823   0.00000  Uiso   1.00
O362   O     0.19625   0.55591   0.59792   0.00000  Uiso   1.00
N363   N     0.60989   0.69283   0.11413   0.00000  Uiso   1.00
N364   N     0.57216   0.87499   0.81396   0.00000  Uiso   1.00
N365   N     0.30447   0.57602   0.59999   0.00000  Uiso   1.00
N366   N     0.54753   0.76440   0.03691   0.00000  Uiso   1.00
N367   N     0.50980   0.94656   0.73675   0.00000  Uiso   1.00
N368   N     0.24211   0.64759   0.52278   0.00000  Uiso   1.00
