data_job_04111
_audit_creation_date              2018-12-19
_audit_creation_method            'Materials Studio'
_symmetry_space_group_name_H-M    'P1'
_symmetry_Int_Tables_number       1
_symmetry_cell_setting            triclinic
loop_
_symmetry_equiv_pos_as_xyz
  x,y,z
_cell_length_a                    16.1899
_cell_length_b                    16.1899
_cell_length_c                    19.8304
_cell_angle_alpha                 90.0000
_cell_angle_beta                  90.0000
_cell_angle_gamma                 90.0000
loop_
_atom_site_label
_atom_site_type_symbol
_atom_site_fract_x
_atom_site_fract_y
_atom_site_fract_z
_atom_site_U_iso_or_equiv
_atom_site_adp_type
_atom_site_occupancy
C1     C     0.27081   0.84295   0.65211   0.00000  Uiso   1.00
C2     C     0.29446   0.79187   0.59045   0.00000  Uiso   1.00
C3     C     0.33930   0.71882   0.59128   0.00000  Uiso   1.00
C4     C     0.35454   0.68146   0.52950   0.00000  Uiso   1.00
C5     C     0.39565   0.59691   0.44296   0.00000  Uiso   1.00
C6     C     0.30487   0.92941   0.63956   0.00000  Uiso   1.00
C7     C     0.35846   0.97201   0.68168   0.00000  Uiso   1.00
C8     C     0.38246   0.05045   0.66124   0.00000  Uiso   1.00
C9     C     0.43970   0.17946   0.65095   0.00000  Uiso   1.00
C10    C     0.17701   0.85114   0.65011   0.00000  Uiso   1.00
C11    C     0.12309   0.82794   0.70111   0.00000  Uiso   1.00
C12    C     0.03943   0.84049   0.68956   0.00000  Uiso   1.00
C13    C     0.89814   0.84797   0.69566   0.00000  Uiso   1.00
C14    C     0.21814   0.90650   0.54091   0.00000  Uiso   1.00
C15    C     0.26585   0.82639   0.53006   0.00000  Uiso   1.00
C16    C     0.28103   0.78913   0.46826   0.00000  Uiso   1.00
C17    C     0.32588   0.71604   0.46900   0.00000  Uiso   1.00
C18    C     0.27627   0.96393   0.57916   0.00000  Uiso   1.00
C19    C     0.30019   0.04232   0.55866   0.00000  Uiso   1.00
C20    C     0.35381   0.08503   0.60074   0.00000  Uiso   1.00
C21    C     0.14840   0.88565   0.58971   0.00000  Uiso   1.00
C22    C     0.06482   0.89825   0.57809   0.00000  Uiso   1.00
C23    C     0.01078   0.87507   0.62906   0.00000  Uiso   1.00
H24    H     0.29308   0.81609   0.69913   0.00000  Uiso   1.00
H25    H     0.36143   0.69213   0.63803   0.00000  Uiso   1.00
H26    H     0.38058   0.94529   0.72842   0.00000  Uiso   1.00
H27    H     0.14525   0.80123   0.74784   0.00000  Uiso   1.00
H28    H     0.42462   0.56994   0.54366   0.00000  Uiso   1.00
H29    H     0.46498   0.10375   0.73425   0.00000  Uiso   1.00
H30    H     0.96873   0.79998   0.77522   0.00000  Uiso   1.00
H31    H     0.19587   0.93338   0.49389   0.00000  Uiso   1.00
H32    H     0.25888   0.81586   0.42153   0.00000  Uiso   1.00
H33    H     0.27804   0.06902   0.51192   0.00000  Uiso   1.00
H34    H     0.04270   0.92496   0.53134   0.00000  Uiso   1.00
H35    H     0.34139   0.67037   0.36794   0.00000  Uiso   1.00
H36    H     0.38175   0.20417   0.55854   0.00000  Uiso   1.00
H37    H     0.88550   0.90041   0.59950   0.00000  Uiso   1.00
O38    O     0.42624   0.54075   0.41190   0.00000  Uiso   1.00
O39    O     0.47918   0.24108   0.66196   0.00000  Uiso   1.00
O40    O     0.82810   0.84254   0.71570   0.00000  Uiso   1.00
N41    N     0.39637   0.60970   0.51224   0.00000  Uiso   1.00
N42    N     0.43412   0.10877   0.69043   0.00000  Uiso   1.00
N43    N     0.97016   0.82479   0.72873   0.00000  Uiso   1.00
N44    N     0.35158   0.66373   0.41768   0.00000  Uiso   1.00
N45    N     0.38933   0.16280   0.59587   0.00000  Uiso   1.00
N46    N     0.92537   0.87883   0.63418   0.00000  Uiso   1.00
C47    C     0.72919   0.15705   0.65211   0.00000  Uiso   1.00
C48    C     0.70554   0.20813   0.59045   0.00000  Uiso   1.00
C49    C     0.66070   0.28118   0.59128   0.00000  Uiso   1.00
C50    C     0.64546   0.31854   0.52950   0.00000  Uiso   1.00
C51    C     0.60435   0.40309   0.44296   0.00000  Uiso   1.00
C52    C     0.69513   0.07059   0.63956   0.00000  Uiso   1.00
C53    C     0.64154   0.02799   0.68168   0.00000  Uiso   1.00
C54    C     0.61754   0.94955   0.66124   0.00000  Uiso   1.00
C55    C     0.56030   0.82054   0.65095   0.00000  Uiso   1.00
C56    C     0.82299   0.14886   0.65011   0.00000  Uiso   1.00
C57    C     0.87691   0.17206   0.70111   0.00000  Uiso   1.00
C58    C     0.96057   0.15951   0.68956   0.00000  Uiso   1.00
C59    C     0.10186   0.15203   0.69566   0.00000  Uiso   1.00
C60    C     0.78186   0.09350   0.54091   0.00000  Uiso   1.00
C61    C     0.73415   0.17361   0.53006   0.00000  Uiso   1.00
C62    C     0.71897   0.21087   0.46826   0.00000  Uiso   1.00
C63    C     0.67412   0.28396   0.46900   0.00000  Uiso   1.00
C64    C     0.72373   0.03607   0.57916   0.00000  Uiso   1.00
C65    C     0.69981   0.95768   0.55866   0.00000  Uiso   1.00
C66    C     0.64619   0.91497   0.60074   0.00000  Uiso   1.00
C67    C     0.85160   0.11435   0.58971   0.00000  Uiso   1.00
C68    C     0.93518   0.10175   0.57809   0.00000  Uiso   1.00
C69    C     0.98922   0.12493   0.62906   0.00000  Uiso   1.00
H70    H     0.70692   0.18391   0.69913   0.00000  Uiso   1.00
H71    H     0.63857   0.30787   0.63803   0.00000  Uiso   1.00
H72    H     0.61942   0.05471   0.72842   0.00000  Uiso   1.00
H73    H     0.85475   0.19877   0.74784   0.00000  Uiso   1.00
H74    H     0.57538   0.43006   0.54366   0.00000  Uiso   1.00
H75    H     0.53502   0.89625   0.73425   0.00000  Uiso   1.00
H76    H     0.03127   0.20002   0.77522   0.00000  Uiso   1.00
H77    H     0.80413   0.06662   0.49389   0.00000  Uiso   1.00
H78    H     0.74112   0.18414   0.42153   0.00000  Uiso   1.00
H79    H     0.72196   0.93098   0.51192   0.00000  Uiso   1.00
H80    H     0.95730   0.07504   0.53134   0.00000  Uiso   1.00
H81    H     0.65861   0.32963   0.36794   0.00000  Uiso   1.00
H82    H     0.61825   0.79583   0.55854   0.00000  Uiso   1.00
H83    H     0.11450   0.09959   0.59950   0.00000  Uiso   1.00
O84    O     0.57376   0.45925   0.41190   0.00000  Uiso   1.00
O85    O     0.52082   0.75892   0.66196   0.00000  Uiso   1.00
O86    O     0.17190   0.15746   0.71570   0.00000  Uiso   1.00
N87    N     0.60363   0.39030   0.51224   0.00000  Uiso   1.00
N88    N     0.56588   0.89123   0.69043   0.00000  Uiso   1.00
N89    N     0.02984   0.17521   0.72873   0.00000  Uiso   1.00
N90    N     0.64842   0.33627   0.41768   0.00000  Uiso   1.00
N91    N     0.61067   0.83720   0.59587   0.00000  Uiso   1.00
N92    N     0.07463   0.12117   0.63418   0.00000  Uiso   1.00
C93    C     0.84295   0.72919   0.34789   0.00000  Uiso   1.00
C94    C     0.79187   0.70554   0.40955   0.00000  Uiso   1.00
C95    C     0.71882   0.66070   0.40872   0.00000  Uiso   1.00
C96    C     0.68146   0.64546   0.47050   0.00000  Uiso   1.00
C97    C     0.59691   0.60435   0.55704   0.00000  Uiso   1.00
C98    C     0.92941   0.69513   0.36044   0.00000  Uiso   1.00
C99    C     0.97201   0.64154   0.31832   0.00000  Uiso   1.00
C100   C     0.05045   0.61754   0.33876   0.00000  Uiso   1.00
C101   C     0.17946   0.56030   0.34905   0.00000  Uiso   1.00
C102   C     0.85114   0.82299   0.34989   0.00000  Uiso   1.00
C103   C     0.82794   0.87691   0.29889   0.00000  Uiso   1.00
C104   C     0.84049   0.96057   0.31044   0.00000  Uiso   1.00
C105   C     0.84797   0.10186   0.30434   0.00000  Uiso   1.00
C106   C     0.90650   0.78186   0.45909   0.00000  Uiso   1.00
C107   C     0.82639   0.73415   0.46994   0.00000  Uiso   1.00
C108   C     0.78913   0.71897   0.53174   0.00000  Uiso   1.00
C109   C     0.71604   0.67412   0.53100   0.00000  Uiso   1.00
C110   C     0.96393   0.72373   0.42084   0.00000  Uiso   1.00
C111   C     0.04232   0.69981   0.44134   0.00000  Uiso   1.00
C112   C     0.08503   0.64619   0.39926   0.00000  Uiso   1.00
C113   C     0.88565   0.85160   0.41029   0.00000  Uiso   1.00
C114   C     0.89825   0.93518   0.42191   0.00000  Uiso   1.00
C115   C     0.87507   0.98922   0.37094   0.00000  Uiso   1.00
H116   H     0.81609   0.70692   0.30087   0.00000  Uiso   1.00
H117   H     0.69213   0.63857   0.36197   0.00000  Uiso   1.00
H118   H     0.94529   0.61942   0.27158   0.00000  Uiso   1.00
H119   H     0.80123   0.85475   0.25216   0.00000  Uiso   1.00
H120   H     0.56994   0.57538   0.45634   0.00000  Uiso   1.00
H121   H     0.10375   0.53502   0.26575   0.00000  Uiso   1.00
H122   H     0.79998   0.03127   0.22478   0.00000  Uiso   1.00
H123   H     0.93338   0.80413   0.50611   0.00000  Uiso   1.00
H124   H     0.81586   0.74112   0.57847   0.00000  Uiso   1.00
H125   H     0.06902   0.72196   0.48808   0.00000  Uiso   1.00
H126   H     0.92496   0.95730   0.46866   0.00000  Uiso   1.00
H127   H     0.67037   0.65861   0.63206   0.00000  Uiso   1.00
H128   H     0.20417   0.61825   0.44146   0.00000  Uiso   1.00
H129   H     0.90041   0.11450   0.40050   0.00000  Uiso   1.00
O130   O     0.54075   0.57376   0.58810   0.00000  Uiso   1.00
O131   O     0.24108   0.52082   0.33804   0.00000  Uiso   1.00
O132   O     0.84254   0.17190   0.28430   0.00000  Uiso   1.00
N133   N     0.60970   0.60363   0.48776   0.00000  Uiso   1.00
N134   N     0.10877   0.56588   0.30957   0.00000  Uiso   1.00
N135   N     0.82479   0.02984   0.27127   0.00000  Uiso   1.00
N136   N     0.66373   0.64842   0.58232   0.00000  Uiso   1.00
N137   N     0.16280   0.61067   0.40413   0.00000  Uiso   1.00
N138   N     0.87883   0.07463   0.36582   0.00000  Uiso   1.00
C139   C     0.15705   0.27081   0.34789   0.00000  Uiso   1.00
C140   C     0.20813   0.29446   0.40955   0.00000  Uiso   1.00
C141   C     0.28118   0.33930   0.40872   0.00000  Uiso   1.00
C142   C     0.31854   0.35454   0.47050   0.00000  Uiso   1.00
C143   C     0.40309   0.39565   0.55704   0.00000  Uiso   1.00
C144   C     0.07059   0.30487   0.36044   0.00000  Uiso   1.00
C145   C     0.02799   0.35846   0.31832   0.00000  Uiso   1.00
C146   C     0.94955   0.38246   0.33876   0.00000  Uiso   1.00
C147   C     0.82054   0.43970   0.34905   0.00000  Uiso   1.00
C148   C     0.14886   0.17701   0.34989   0.00000  Uiso   1.00
C149   C     0.17206   0.12309   0.29889   0.00000  Uiso   1.00
C150   C     0.15951   0.03943   0.31044   0.00000  Uiso   1.00
C151   C     0.15203   0.89814   0.30434   0.00000  Uiso   1.00
C152   C     0.09350   0.21814   0.45909   0.00000  Uiso   1.00
C153   C     0.17361   0.26585   0.46994   0.00000  Uiso   1.00
C154   C     0.21087   0.28103   0.53174   0.00000  Uiso   1.00
C155   C     0.28396   0.32588   0.53100   0.00000  Uiso   1.00
C156   C     0.03607   0.27627   0.42084   0.00000  Uiso   1.00
C157   C     0.95768   0.30019   0.44134   0.00000  Uiso   1.00
C158   C     0.91497   0.35381   0.39926   0.00000  Uiso   1.00
C159   C     0.11435   0.14840   0.41029   0.00000  Uiso   1.00
C160   C     0.10175   0.06482   0.42191   0.00000  Uiso   1.00
C161   C     0.12493   0.01078   0.37094   0.00000  Uiso   1.00
H162   H     0.18391   0.29308   0.30087   0.00000  Uiso   1.00
H163   H     0.30787   0.36143   0.36197   0.00000  Uiso   1.00
H164   H     0.05471   0.38058   0.27158   0.00000  Uiso   1.00
H165   H     0.19877   0.14525   0.25216   0.00000  Uiso   1.00
H166   H     0.43006   0.42462   0.45634   0.00000  Uiso   1.00
H167   H     0.89625   0.46498   0.26575   0.00000  Uiso   1.00
H168   H     0.20002   0.96873   0.22478   0.00000  Uiso   1.00
H169   H     0.06662   0.19587   0.50611   0.00000  Uiso   1.00
H170   H     0.18414   0.25888   0.57847   0.00000  Uiso   1.00
H171   H     0.93098   0.27804   0.48808   0.00000  Uiso   1.00
H172   H     0.07504   0.04270   0.46866   0.00000  Uiso   1.00
H173   H     0.32963   0.34139   0.63206   0.00000  Uiso   1.00
H174   H     0.79583   0.38175   0.44146   0.00000  Uiso   1.00
H175   H     0.09959   0.88550   0.40050   0.00000  Uiso   1.00
O176   O     0.45925   0.42624   0.58810   0.00000  Uiso   1.00
O177   O     0.75892   0.47918   0.33804   0.00000  Uiso   1.00
O178   O     0.15746   0.82810   0.28430   0.00000  Uiso   1.00
N179   N     0.39030   0.39637   0.48776   0.00000  Uiso   1.00
N180   N     0.89123   0.43412   0.30957   0.00000  Uiso   1.00
N181   N     0.17521   0.97016   0.27127   0.00000  Uiso   1.00
N182   N     0.33627   0.35158   0.58232   0.00000  Uiso   1.00
N183   N     0.83720   0.38933   0.40413   0.00000  Uiso   1.00
N184   N     0.12117   0.92537   0.36582   0.00000  Uiso   1.00
C185   C     0.22919   0.34295   0.84789   0.00000  Uiso   1.00
C186   C     0.20554   0.29187   0.90955   0.00000  Uiso   1.00
C187   C     0.16070   0.21882   0.90872   0.00000  Uiso   1.00
C188   C     0.14546   0.18146   0.97050   0.00000  Uiso   1.00
C189   C     0.10435   0.09691   0.05704   0.00000  Uiso   1.00
C190   C     0.19513   0.42941   0.86044   0.00000  Uiso   1.00
C191   C     0.14154   0.47201   0.81832   0.00000  Uiso   1.00
C192   C     0.11754   0.55045   0.83876   0.00000  Uiso   1.00
C193   C     0.06030   0.67946   0.84905   0.00000  Uiso   1.00
C194   C     0.32299   0.35114   0.84989   0.00000  Uiso   1.00
C195   C     0.37691   0.32794   0.79889   0.00000  Uiso   1.00
C196   C     0.46057   0.34049   0.81044   0.00000  Uiso   1.00
C197   C     0.60186   0.34797   0.80434   0.00000  Uiso   1.00
C198   C     0.28186   0.40650   0.95909   0.00000  Uiso   1.00
C199   C     0.23415   0.32639   0.96994   0.00000  Uiso   1.00
C200   C     0.21897   0.28913   0.03174   0.00000  Uiso   1.00
C201   C     0.17412   0.21604   0.03100   0.00000  Uiso   1.00
C202   C     0.22373   0.46393   0.92084   0.00000  Uiso   1.00
C203   C     0.19981   0.54232   0.94134   0.00000  Uiso   1.00
C204   C     0.14619   0.58503   0.89926   0.00000  Uiso   1.00
C205   C     0.35160   0.38565   0.91029   0.00000  Uiso   1.00
C206   C     0.43518   0.39825   0.92191   0.00000  Uiso   1.00
C207   C     0.48922   0.37507   0.87094   0.00000  Uiso   1.00
H208   H     0.20692   0.31609   0.80087   0.00000  Uiso   1.00
H209   H     0.13857   0.19213   0.86197   0.00000  Uiso   1.00
H210   H     0.11942   0.44529   0.77158   0.00000  Uiso   1.00
H211   H     0.35475   0.30123   0.75216   0.00000  Uiso   1.00
H212   H     0.07538   0.06994   0.95634   0.00000  Uiso   1.00
H213   H     0.03502   0.60375   0.76575   0.00000  Uiso   1.00
H214   H     0.53127   0.29998   0.72478   0.00000  Uiso   1.00
H215   H     0.30413   0.43338   0.00611   0.00000  Uiso   1.00
H216   H     0.24112   0.31586   0.07847   0.00000  Uiso   1.00
H217   H     0.22196   0.56902   0.98808   0.00000  Uiso   1.00
H218   H     0.45730   0.42496   0.96866   0.00000  Uiso   1.00
H219   H     0.15861   0.17037   0.13206   0.00000  Uiso   1.00
H220   H     0.11825   0.70417   0.94146   0.00000  Uiso   1.00
H221   H     0.61450   0.40041   0.90050   0.00000  Uiso   1.00
O222   O     0.07376   0.04075   0.08810   0.00000  Uiso   1.00
O223   O     0.02082   0.74108   0.83804   0.00000  Uiso   1.00
O224   O     0.67190   0.34254   0.78430   0.00000  Uiso   1.00
N225   N     0.10363   0.10970   0.98776   0.00000  Uiso   1.00
N226   N     0.06588   0.60877   0.80957   0.00000  Uiso   1.00
N227   N     0.52984   0.32479   0.77127   0.00000  Uiso   1.00
N228   N     0.14842   0.16373   0.08232   0.00000  Uiso   1.00
N229   N     0.11067   0.66280   0.90413   0.00000  Uiso   1.00
N230   N     0.57463   0.37883   0.86582   0.00000  Uiso   1.00
C231   C     0.77081   0.65705   0.84789   0.00000  Uiso   1.00
C232   C     0.79446   0.70813   0.90955   0.00000  Uiso   1.00
C233   C     0.83930   0.78118   0.90872   0.00000  Uiso   1.00
C234   C     0.85454   0.81854   0.97050   0.00000  Uiso   1.00
C235   C     0.89565   0.90309   0.05704   0.00000  Uiso   1.00
C236   C     0.80487   0.57059   0.86044   0.00000  Uiso   1.00
C237   C     0.85846   0.52799   0.81832   0.00000  Uiso   1.00
C238   C     0.88246   0.44955   0.83876   0.00000  Uiso   1.00
C239   C     0.93970   0.32054   0.84905   0.00000  Uiso   1.00
C240   C     0.67701   0.64886   0.84989   0.00000  Uiso   1.00
C241   C     0.62309   0.67206   0.79889   0.00000  Uiso   1.00
C242   C     0.53943   0.65951   0.81044   0.00000  Uiso   1.00
C243   C     0.39814   0.65203   0.80434   0.00000  Uiso   1.00
C244   C     0.71814   0.59350   0.95909   0.00000  Uiso   1.00
C245   C     0.76585   0.67361   0.96994   0.00000  Uiso   1.00
C246   C     0.78103   0.71087   0.03174   0.00000  Uiso   1.00
C247   C     0.82588   0.78396   0.03100   0.00000  Uiso   1.00
C248   C     0.77627   0.53607   0.92084   0.00000  Uiso   1.00
C249   C     0.80019   0.45768   0.94134   0.00000  Uiso   1.00
C250   C     0.85381   0.41497   0.89926   0.00000  Uiso   1.00
C251   C     0.64840   0.61435   0.91029   0.00000  Uiso   1.00
C252   C     0.56482   0.60175   0.92191   0.00000  Uiso   1.00
C253   C     0.51078   0.62493   0.87094   0.00000  Uiso   1.00
H254   H     0.79308   0.68391   0.80087   0.00000  Uiso   1.00
H255   H     0.86143   0.80787   0.86197   0.00000  Uiso   1.00
H256   H     0.88058   0.55471   0.77158   0.00000  Uiso   1.00
H257   H     0.64525   0.69877   0.75216   0.00000  Uiso   1.00
H258   H     0.92462   0.93006   0.95634   0.00000  Uiso   1.00
H259   H     0.96498   0.39625   0.76575   0.00000  Uiso   1.00
H260   H     0.46873   0.70002   0.72478   0.00000  Uiso   1.00
H261   H     0.69587   0.56662   0.00611   0.00000  Uiso   1.00
H262   H     0.75888   0.68414   0.07847   0.00000  Uiso   1.00
H263   H     0.77804   0.43098   0.98808   0.00000  Uiso   1.00
H264   H     0.54270   0.57504   0.96866   0.00000  Uiso   1.00
H265   H     0.84139   0.82963   0.13206   0.00000  Uiso   1.00
H266   H     0.88175   0.29583   0.94146   0.00000  Uiso   1.00
H267   H     0.38550   0.59959   0.90050   0.00000  Uiso   1.00
O268   O     0.92624   0.95925   0.08810   0.00000  Uiso   1.00
O269   O     0.97918   0.25892   0.83804   0.00000  Uiso   1.00
O270   O     0.32810   0.65746   0.78430   0.00000  Uiso   1.00
N271   N     0.89637   0.89030   0.98776   0.00000  Uiso   1.00
N272   N     0.93412   0.39123   0.80957   0.00000  Uiso   1.00
N273   N     0.47016   0.67521   0.77127   0.00000  Uiso   1.00
N274   N     0.85158   0.83627   0.08232   0.00000  Uiso   1.00
N275   N     0.88933   0.33720   0.90413   0.00000  Uiso   1.00
N276   N     0.42537   0.62117   0.86582   0.00000  Uiso   1.00
C277   C     0.65705   0.22919   0.15211   0.00000  Uiso   1.00
C278   C     0.70813   0.20554   0.09045   0.00000  Uiso   1.00
C279   C     0.78118   0.16070   0.09128   0.00000  Uiso   1.00
C280   C     0.81854   0.14546   0.02950   0.00000  Uiso   1.00
C281   C     0.90309   0.10435   0.94296   0.00000  Uiso   1.00
C282   C     0.57059   0.19513   0.13956   0.00000  Uiso   1.00
C283   C     0.52799   0.14154   0.18168   0.00000  Uiso   1.00
C284   C     0.44955   0.11754   0.16124   0.00000  Uiso   1.00
C285   C     0.32054   0.06030   0.15095   0.00000  Uiso   1.00
C286   C     0.64886   0.32299   0.15011   0.00000  Uiso   1.00
C287   C     0.67206   0.37691   0.20111   0.00000  Uiso   1.00
C288   C     0.65951   0.46057   0.18956   0.00000  Uiso   1.00
C289   C     0.65203   0.60186   0.19566   0.00000  Uiso   1.00
C290   C     0.59350   0.28186   0.04091   0.00000  Uiso   1.00
C291   C     0.67361   0.23415   0.03006   0.00000  Uiso   1.00
C292   C     0.71087   0.21897   0.96826   0.00000  Uiso   1.00
C293   C     0.78396   0.17412   0.96900   0.00000  Uiso   1.00
C294   C     0.53607   0.22373   0.07916   0.00000  Uiso   1.00
C295   C     0.45768   0.19981   0.05866   0.00000  Uiso   1.00
C296   C     0.41497   0.14619   0.10074   0.00000  Uiso   1.00
C297   C     0.61435   0.35160   0.08971   0.00000  Uiso   1.00
C298   C     0.60175   0.43518   0.07809   0.00000  Uiso   1.00
C299   C     0.62493   0.48922   0.12906   0.00000  Uiso   1.00
H300   H     0.68391   0.20692   0.19913   0.00000  Uiso   1.00
H301   H     0.80787   0.13857   0.13803   0.00000  Uiso   1.00
H302   H     0.55471   0.11942   0.22842   0.00000  Uiso   1.00
H303   H     0.69877   0.35475   0.24784   0.00000  Uiso   1.00
H304   H     0.93006   0.07538   0.04366   0.00000  Uiso   1.00
H305   H     0.39625   0.03502   0.23425   0.00000  Uiso   1.00
H306   H     0.70002   0.53127   0.27522   0.00000  Uiso   1.00
H307   H     0.56662   0.30413   0.99389   0.00000  Uiso   1.00
H308   H     0.68414   0.24112   0.92153   0.00000  Uiso   1.00
H309   H     0.43098   0.22196   0.01192   0.00000  Uiso   1.00
H310   H     0.57504   0.45730   0.03134   0.00000  Uiso   1.00
H311   H     0.82963   0.15861   0.86794   0.00000  Uiso   1.00
H312   H     0.29583   0.11825   0.05854   0.00000  Uiso   1.00
H313   H     0.59959   0.61450   0.09950   0.00000  Uiso   1.00
O314   O     0.95925   0.07376   0.91190   0.00000  Uiso   1.00
O315   O     0.25892   0.02082   0.16196   0.00000  Uiso   1.00
O316   O     0.65746   0.67190   0.21570   0.00000  Uiso   1.00
N317   N     0.89030   0.10363   0.01224   0.00000  Uiso   1.00
N318   N     0.39123   0.06588   0.19043   0.00000  Uiso   1.00
N319   N     0.67521   0.52984   0.22873   0.00000  Uiso   1.00
N320   N     0.83627   0.14842   0.91768   0.00000  Uiso   1.00
N321   N     0.33720   0.11067   0.09587   0.00000  Uiso   1.00
N322   N     0.62117   0.57463   0.13418   0.00000  Uiso   1.00
C323   C     0.34295   0.77081   0.15211   0.00000  Uiso   1.00
C324   C     0.29187   0.79446   0.09045   0.00000  Uiso   1.00
C325   C     0.21882   0.83930   0.09128   0.00000  Uiso   1.00
C326   C     0.18146   0.85454   0.02950   0.00000  Uiso   1.00
C327   C     0.09691   0.89565   0.94296   0.00000  Uiso   1.00
C328   C     0.42941   0.80487   0.13956   0.00000  Uiso   1.00
C329   C     0.47201   0.85846   0.18168   0.00000  Uiso   1.00
C330   C     0.55045   0.88246   0.16124   0.00000  Uiso   1.00
C331   C     0.67946   0.93970   0.15095   0.00000  Uiso   1.00
C332   C     0.35114   0.67701   0.15011   0.00000  Uiso   1.00
C333   C     0.32794   0.62309   0.20111   0.00000  Uiso   1.00
C334   C     0.34049   0.53943   0.18956   0.00000  Uiso   1.00
C335   C     0.34797   0.39814   0.19566   0.00000  Uiso   1.00
C336   C     0.40650   0.71814   0.04091   0.00000  Uiso   1.00
C337   C     0.32639   0.76585   0.03006   0.00000  Uiso   1.00
C338   C     0.28913   0.78103   0.96826   0.00000  Uiso   1.00
C339   C     0.21604   0.82588   0.96900   0.00000  Uiso   1.00
C340   C     0.46393   0.77627   0.07916   0.00000  Uiso   1.00
C341   C     0.54232   0.80019   0.05866   0.00000  Uiso   1.00
C342   C     0.58503   0.85381   0.10074   0.00000  Uiso   1.00
C343   C     0.38565   0.64840   0.08971   0.00000  Uiso   1.00
C344   C     0.39825   0.56482   0.07809   0.00000  Uiso   1.00
C345   C     0.37507   0.51078   0.12906   0.00000  Uiso   1.00
H346   H     0.31609   0.79308   0.19913   0.00000  Uiso   1.00
H347   H     0.19213   0.86143   0.13803   0.00000  Uiso   1.00
H348   H     0.44529   0.88058   0.22842   0.00000  Uiso   1.00
H349   H     0.30123   0.64525   0.24784   0.00000  Uiso   1.00
H350   H     0.06994   0.92462   0.04366   0.00000  Uiso   1.00
H351   H     0.60375   0.96498   0.23425   0.00000  Uiso   1.00
H352   H     0.29998   0.46873   0.27522   0.00000  Uiso   1.00
H353   H     0.43338   0.69587   0.99389   0.00000  Uiso   1.00
H354   H     0.31586   0.75888   0.92153   0.00000  Uiso   1.00
H355   H     0.56902   0.77804   0.01192   0.00000  Uiso   1.00
H356   H     0.42496   0.54270   0.03134   0.00000  Uiso   1.00
H357   H     0.17037   0.84139   0.86794   0.00000  Uiso   1.00
H358   H     0.70417   0.88175   0.05854   0.00000  Uiso   1.00
H359   H     0.40041   0.38550   0.09950   0.00000  Uiso   1.00
O360   O     0.04075   0.92624   0.91190   0.00000  Uiso   1.00
O361   O     0.74108   0.97918   0.16196   0.00000  Uiso   1.00
O362   O     0.34254   0.32810   0.21570   0.00000  Uiso   1.00
N363   N     0.10970   0.89637   0.01224   0.00000  Uiso   1.00
N364   N     0.60877   0.93412   0.19043   0.00000  Uiso   1.00
N365   N     0.32479   0.47016   0.22873   0.00000  Uiso   1.00
N366   N     0.16373   0.85158   0.91768   0.00000  Uiso   1.00
N367   N     0.66280   0.88933   0.09587   0.00000  Uiso   1.00
N368   N     0.37883   0.42537   0.13418   0.00000  Uiso   1.00
