data_job_03203
_audit_creation_date              2018-12-19
_audit_creation_method            'Materials Studio'
_symmetry_space_group_name_H-M    'P1'
_symmetry_Int_Tables_number       1
_symmetry_cell_setting            triclinic
loop_
_symmetry_equiv_pos_as_xyz
  x,y,z
_cell_length_a                    20.8936
_cell_length_b                    26.2443
_cell_length_c                    10.6492
_cell_angle_alpha                 90.0000
_cell_angle_beta                  90.0000
_cell_angle_gamma                 90.0000
loop_
_atom_site_label
_atom_site_type_symbol
_atom_site_fract_x
_atom_site_fract_y
_atom_site_fract_z
_atom_site_U_iso_or_equiv
_atom_site_adp_type
_atom_site_occupancy
C1     C     0.19299   0.07631   0.73241   0.00000  Uiso   1.00
C2     C     0.14244   0.09767   0.64353   0.00000  Uiso   1.00
C3     C     0.13697   0.08651   0.51661   0.00000  Uiso   1.00
C4     C     0.08748   0.10996   0.45156   0.00000  Uiso   1.00
C5     C     0.01547   0.13806   0.30443   0.00000  Uiso   1.00
C6     C     0.22661   0.12235   0.78972   0.00000  Uiso   1.00
C7     C     0.29190   0.13192   0.78572   0.00000  Uiso   1.00
C8     C     0.31327   0.17614   0.84374   0.00000  Uiso   1.00
C9     C     0.37194   0.24253   0.92365   0.00000  Uiso   1.00
C10    C     0.15636   0.05107   0.83950   0.00000  Uiso   1.00
C11    C     0.16260   0.00071   0.87738   0.00000  Uiso   1.00
C12    C     0.12482   0.98492   0.97735   0.00000  Uiso   1.00
C13    C     0.07442   0.94063   0.13455   0.00000  Uiso   1.00
C14    C     0.11483   0.13780   0.84260   0.00000  Uiso   1.00
C15    C     0.09999   0.13107   0.70338   0.00000  Uiso   1.00
C16    C     0.05050   0.15454   0.63851   0.00000  Uiso   1.00
C17    C     0.04495   0.14341   0.51151   0.00000  Uiso   1.00
C18    C     0.18416   0.15575   0.84956   0.00000  Uiso   1.00
C19    C     0.20543   0.19996   0.90762   0.00000  Uiso   1.00
C20    C     0.27074   0.20960   0.90370   0.00000  Uiso   1.00
C21    C     0.11391   0.08446   0.89935   0.00000  Uiso   1.00
C22    C     0.07612   0.06875   0.99928   0.00000  Uiso   1.00
C23    C     0.08230   0.01838   0.03730   0.00000  Uiso   1.00
H24    H     0.22604   0.05031   0.68582   0.00000  Uiso   1.00
H25    H     0.16983   0.06066   0.47032   0.00000  Uiso   1.00
H26    H     0.32474   0.10607   0.73940   0.00000  Uiso   1.00
H27    H     0.19545   0.97488   0.83105   0.00000  Uiso   1.00
H28    H     0.08881   0.08688   0.25778   0.00000  Uiso   1.00
H29    H     0.41545   0.18261   0.82519   0.00000  Uiso   1.00
H30    H     0.14281   0.90597   0.01845   0.00000  Uiso   1.00
H31    H     0.08178   0.16381   0.88920   0.00000  Uiso   1.00
H32    H     0.01766   0.18039   0.68485   0.00000  Uiso   1.00
H33    H     0.17257   0.22579   0.95393   0.00000  Uiso   1.00
H34    H     0.04328   0.09460   0.04557   0.00000  Uiso   1.00
H35    H     0.96530   0.18406   0.43190   0.00000  Uiso   1.00
H36    H     0.29194   0.27979   0.99931   0.00000  Uiso   1.00
H37    H     0.01931   0.00315   0.19256   0.00000  Uiso   1.00
O38    O     0.98749   0.14434   0.20674   0.00000  Uiso   1.00
O39    O     0.41603   0.26993   0.95117   0.00000  Uiso   1.00
O40    O     0.05833   0.90698   0.20471   0.00000  Uiso   1.00
N41    N     0.06854   0.10747   0.32681   0.00000  Uiso   1.00
N42    N     0.37392   0.19698   0.85728   0.00000  Uiso   1.00
N43    N     0.11904   0.93834   0.03798   0.00000  Uiso   1.00
N44    N     0.00208   0.15976   0.42050   0.00000  Uiso   1.00
N45    N     0.30746   0.24927   0.95098   0.00000  Uiso   1.00
N46    N     0.05258   0.99063   0.13167   0.00000  Uiso   1.00
C47    C     0.30701   0.92369   0.73241   0.00000  Uiso   1.00
C48    C     0.35756   0.90233   0.64353   0.00000  Uiso   1.00
C49    C     0.36303   0.91349   0.51661   0.00000  Uiso   1.00
C50    C     0.41252   0.89004   0.45156   0.00000  Uiso   1.00
C51    C     0.48453   0.86194   0.30443   0.00000  Uiso   1.00
C52    C     0.27339   0.87765   0.78972   0.00000  Uiso   1.00
C53    C     0.20810   0.86808   0.78572   0.00000  Uiso   1.00
C54    C     0.18673   0.82386   0.84374   0.00000  Uiso   1.00
C55    C     0.12806   0.75747   0.92365   0.00000  Uiso   1.00
C56    C     0.34364   0.94893   0.83950   0.00000  Uiso   1.00
C57    C     0.33740   0.99929   0.87738   0.00000  Uiso   1.00
C58    C     0.37518   0.01508   0.97735   0.00000  Uiso   1.00
C59    C     0.42558   0.05937   0.13455   0.00000  Uiso   1.00
C60    C     0.38517   0.86220   0.84260   0.00000  Uiso   1.00
C61    C     0.40001   0.86893   0.70338   0.00000  Uiso   1.00
C62    C     0.44950   0.84546   0.63851   0.00000  Uiso   1.00
C63    C     0.45505   0.85659   0.51151   0.00000  Uiso   1.00
C64    C     0.31584   0.84425   0.84956   0.00000  Uiso   1.00
C65    C     0.29457   0.80004   0.90762   0.00000  Uiso   1.00
C66    C     0.22926   0.79040   0.90370   0.00000  Uiso   1.00
C67    C     0.38609   0.91554   0.89935   0.00000  Uiso   1.00
C68    C     0.42388   0.93125   0.99928   0.00000  Uiso   1.00
C69    C     0.41770   0.98162   0.03730   0.00000  Uiso   1.00
H70    H     0.27396   0.94969   0.68582   0.00000  Uiso   1.00
H71    H     0.33017   0.93934   0.47032   0.00000  Uiso   1.00
H72    H     0.17526   0.89393   0.73940   0.00000  Uiso   1.00
H73    H     0.30455   0.02512   0.83105   0.00000  Uiso   1.00
H74    H     0.41119   0.91312   0.25778   0.00000  Uiso   1.00
H75    H     0.08455   0.81739   0.82519   0.00000  Uiso   1.00
H76    H     0.35719   0.09403   0.01845   0.00000  Uiso   1.00
H77    H     0.41822   0.83619   0.88920   0.00000  Uiso   1.00
H78    H     0.48234   0.81961   0.68485   0.00000  Uiso   1.00
H79    H     0.32743   0.77421   0.95393   0.00000  Uiso   1.00
H80    H     0.45672   0.90540   0.04557   0.00000  Uiso   1.00
H81    H     0.53470   0.81594   0.43190   0.00000  Uiso   1.00
H82    H     0.20806   0.72021   0.99931   0.00000  Uiso   1.00
H83    H     0.48069   0.99685   0.19256   0.00000  Uiso   1.00
O84    O     0.51251   0.85566   0.20674   0.00000  Uiso   1.00
O85    O     0.08397   0.73007   0.95117   0.00000  Uiso   1.00
O86    O     0.44167   0.09302   0.20471   0.00000  Uiso   1.00
N87    N     0.43146   0.89253   0.32681   0.00000  Uiso   1.00
N88    N     0.12608   0.80302   0.85728   0.00000  Uiso   1.00
N89    N     0.38096   0.06166   0.03798   0.00000  Uiso   1.00
N90    N     0.49792   0.84024   0.42050   0.00000  Uiso   1.00
N91    N     0.19254   0.75073   0.95098   0.00000  Uiso   1.00
N92    N     0.44742   0.00937   0.13167   0.00000  Uiso   1.00
C93    C     0.30701   0.57631   0.76759   0.00000  Uiso   1.00
C94    C     0.35756   0.59767   0.85647   0.00000  Uiso   1.00
C95    C     0.36303   0.58651   0.98339   0.00000  Uiso   1.00
C96    C     0.41252   0.60996   0.04844   0.00000  Uiso   1.00
C97    C     0.48453   0.63806   0.19557   0.00000  Uiso   1.00
C98    C     0.27339   0.62235   0.71028   0.00000  Uiso   1.00
C99    C     0.20810   0.63192   0.71428   0.00000  Uiso   1.00
C100   C     0.18673   0.67614   0.65626   0.00000  Uiso   1.00
C101   C     0.12806   0.74253   0.57635   0.00000  Uiso   1.00
C102   C     0.34364   0.55107   0.66050   0.00000  Uiso   1.00
C103   C     0.33740   0.50071   0.62262   0.00000  Uiso   1.00
C104   C     0.37518   0.48492   0.52265   0.00000  Uiso   1.00
C105   C     0.42558   0.44063   0.36545   0.00000  Uiso   1.00
C106   C     0.38517   0.63780   0.65740   0.00000  Uiso   1.00
C107   C     0.40001   0.63107   0.79662   0.00000  Uiso   1.00
C108   C     0.44950   0.65454   0.86149   0.00000  Uiso   1.00
C109   C     0.45505   0.64341   0.98849   0.00000  Uiso   1.00
C110   C     0.31584   0.65575   0.65044   0.00000  Uiso   1.00
C111   C     0.29457   0.69996   0.59238   0.00000  Uiso   1.00
C112   C     0.22926   0.70960   0.59630   0.00000  Uiso   1.00
C113   C     0.38609   0.58446   0.60065   0.00000  Uiso   1.00
C114   C     0.42388   0.56875   0.50072   0.00000  Uiso   1.00
C115   C     0.41770   0.51838   0.46270   0.00000  Uiso   1.00
H116   H     0.27396   0.55031   0.81418   0.00000  Uiso   1.00
H117   H     0.33017   0.56066   0.02968   0.00000  Uiso   1.00
H118   H     0.17526   0.60607   0.76060   0.00000  Uiso   1.00
H119   H     0.30455   0.47488   0.66895   0.00000  Uiso   1.00
H120   H     0.41119   0.58688   0.24222   0.00000  Uiso   1.00
H121   H     0.08455   0.68261   0.67481   0.00000  Uiso   1.00
H122   H     0.35719   0.40597   0.48155   0.00000  Uiso   1.00
H123   H     0.41822   0.66381   0.61080   0.00000  Uiso   1.00
H124   H     0.48234   0.68039   0.81515   0.00000  Uiso   1.00
H125   H     0.32743   0.72579   0.54607   0.00000  Uiso   1.00
H126   H     0.45672   0.59460   0.45443   0.00000  Uiso   1.00
H127   H     0.53470   0.68406   0.06810   0.00000  Uiso   1.00
H128   H     0.20806   0.77979   0.50069   0.00000  Uiso   1.00
H129   H     0.48069   0.50315   0.30744   0.00000  Uiso   1.00
O130   O     0.51251   0.64434   0.29326   0.00000  Uiso   1.00
O131   O     0.08397   0.76993   0.54883   0.00000  Uiso   1.00
O132   O     0.44167   0.40698   0.29529   0.00000  Uiso   1.00
N133   N     0.43146   0.60747   0.17319   0.00000  Uiso   1.00
N134   N     0.12608   0.69698   0.64272   0.00000  Uiso   1.00
N135   N     0.38096   0.43834   0.46202   0.00000  Uiso   1.00
N136   N     0.49792   0.65976   0.07950   0.00000  Uiso   1.00
N137   N     0.19254   0.74927   0.54902   0.00000  Uiso   1.00
N138   N     0.44742   0.49063   0.36833   0.00000  Uiso   1.00
C139   C     0.19299   0.42369   0.76759   0.00000  Uiso   1.00
C140   C     0.14244   0.40233   0.85647   0.00000  Uiso   1.00
C141   C     0.13697   0.41349   0.98339   0.00000  Uiso   1.00
C142   C     0.08748   0.39004   0.04844   0.00000  Uiso   1.00
C143   C     0.01547   0.36194   0.19557   0.00000  Uiso   1.00
C144   C     0.22661   0.37765   0.71028   0.00000  Uiso   1.00
C145   C     0.29190   0.36808   0.71428   0.00000  Uiso   1.00
C146   C     0.31327   0.32386   0.65626   0.00000  Uiso   1.00
C147   C     0.37194   0.25747   0.57635   0.00000  Uiso   1.00
C148   C     0.15636   0.44893   0.66050   0.00000  Uiso   1.00
C149   C     0.16260   0.49929   0.62262   0.00000  Uiso   1.00
C150   C     0.12482   0.51508   0.52265   0.00000  Uiso   1.00
C151   C     0.07442   0.55937   0.36545   0.00000  Uiso   1.00
C152   C     0.11483   0.36220   0.65740   0.00000  Uiso   1.00
C153   C     0.09999   0.36893   0.79662   0.00000  Uiso   1.00
C154   C     0.05050   0.34546   0.86149   0.00000  Uiso   1.00
C155   C     0.04495   0.35659   0.98849   0.00000  Uiso   1.00
C156   C     0.18416   0.34425   0.65044   0.00000  Uiso   1.00
C157   C     0.20543   0.30004   0.59238   0.00000  Uiso   1.00
C158   C     0.27074   0.29040   0.59630   0.00000  Uiso   1.00
C159   C     0.11391   0.41554   0.60065   0.00000  Uiso   1.00
C160   C     0.07612   0.43125   0.50072   0.00000  Uiso   1.00
C161   C     0.08230   0.48162   0.46270   0.00000  Uiso   1.00
H162   H     0.22604   0.44969   0.81418   0.00000  Uiso   1.00
H163   H     0.16983   0.43934   0.02968   0.00000  Uiso   1.00
H164   H     0.32474   0.39393   0.76060   0.00000  Uiso   1.00
H165   H     0.19545   0.52512   0.66895   0.00000  Uiso   1.00
H166   H     0.08881   0.41312   0.24222   0.00000  Uiso   1.00
H167   H     0.41545   0.31739   0.67481   0.00000  Uiso   1.00
H168   H     0.14281   0.59403   0.48155   0.00000  Uiso   1.00
H169   H     0.08178   0.33619   0.61080   0.00000  Uiso   1.00
H170   H     0.01766   0.31961   0.81515   0.00000  Uiso   1.00
H171   H     0.17257   0.27421   0.54607   0.00000  Uiso   1.00
H172   H     0.04328   0.40540   0.45443   0.00000  Uiso   1.00
H173   H     0.96530   0.31594   0.06810   0.00000  Uiso   1.00
H174   H     0.29194   0.22021   0.50069   0.00000  Uiso   1.00
H175   H     0.01931   0.49685   0.30744   0.00000  Uiso   1.00
O176   O     0.98749   0.35566   0.29326   0.00000  Uiso   1.00
O177   O     0.41603   0.23007   0.54883   0.00000  Uiso   1.00
O178   O     0.05833   0.59302   0.29529   0.00000  Uiso   1.00
N179   N     0.06854   0.39253   0.17319   0.00000  Uiso   1.00
N180   N     0.37392   0.30302   0.64272   0.00000  Uiso   1.00
N181   N     0.11904   0.56166   0.46202   0.00000  Uiso   1.00
N182   N     0.00208   0.34024   0.07950   0.00000  Uiso   1.00
N183   N     0.30746   0.25073   0.54902   0.00000  Uiso   1.00
N184   N     0.05258   0.50937   0.36833   0.00000  Uiso   1.00
C185   C     0.80701   0.92369   0.26759   0.00000  Uiso   1.00
C186   C     0.85756   0.90233   0.35647   0.00000  Uiso   1.00
C187   C     0.86303   0.91349   0.48339   0.00000  Uiso   1.00
C188   C     0.91252   0.89004   0.54844   0.00000  Uiso   1.00
C189   C     0.98453   0.86194   0.69557   0.00000  Uiso   1.00
C190   C     0.77339   0.87765   0.21028   0.00000  Uiso   1.00
C191   C     0.70810   0.86808   0.21428   0.00000  Uiso   1.00
C192   C     0.68673   0.82386   0.15626   0.00000  Uiso   1.00
C193   C     0.62806   0.75747   0.07635   0.00000  Uiso   1.00
C194   C     0.84364   0.94893   0.16050   0.00000  Uiso   1.00
C195   C     0.83740   0.99929   0.12262   0.00000  Uiso   1.00
C196   C     0.87518   0.01508   0.02265   0.00000  Uiso   1.00
C197   C     0.92558   0.05937   0.86545   0.00000  Uiso   1.00
C198   C     0.88517   0.86220   0.15740   0.00000  Uiso   1.00
C199   C     0.90001   0.86893   0.29662   0.00000  Uiso   1.00
C200   C     0.94950   0.84546   0.36149   0.00000  Uiso   1.00
C201   C     0.95505   0.85659   0.48849   0.00000  Uiso   1.00
C202   C     0.81584   0.84425   0.15044   0.00000  Uiso   1.00
C203   C     0.79457   0.80004   0.09238   0.00000  Uiso   1.00
C204   C     0.72926   0.79040   0.09630   0.00000  Uiso   1.00
C205   C     0.88609   0.91554   0.10065   0.00000  Uiso   1.00
C206   C     0.92388   0.93125   0.00072   0.00000  Uiso   1.00
C207   C     0.91770   0.98162   0.96270   0.00000  Uiso   1.00
H208   H     0.77396   0.94969   0.31418   0.00000  Uiso   1.00
H209   H     0.83017   0.93934   0.52968   0.00000  Uiso   1.00
H210   H     0.67526   0.89393   0.26060   0.00000  Uiso   1.00
H211   H     0.80455   0.02512   0.16895   0.00000  Uiso   1.00
H212   H     0.91119   0.91312   0.74222   0.00000  Uiso   1.00
H213   H     0.58455   0.81739   0.17481   0.00000  Uiso   1.00
H214   H     0.85719   0.09403   0.98155   0.00000  Uiso   1.00
H215   H     0.91822   0.83619   0.11080   0.00000  Uiso   1.00
H216   H     0.98234   0.81961   0.31515   0.00000  Uiso   1.00
H217   H     0.82743   0.77421   0.04607   0.00000  Uiso   1.00
H218   H     0.95672   0.90540   0.95443   0.00000  Uiso   1.00
H219   H     0.03470   0.81594   0.56810   0.00000  Uiso   1.00
H220   H     0.70806   0.72021   0.00069   0.00000  Uiso   1.00
H221   H     0.98069   0.99685   0.80744   0.00000  Uiso   1.00
O222   O     0.01251   0.85566   0.79326   0.00000  Uiso   1.00
O223   O     0.58397   0.73007   0.04883   0.00000  Uiso   1.00
O224   O     0.94167   0.09302   0.79529   0.00000  Uiso   1.00
N225   N     0.93146   0.89253   0.67319   0.00000  Uiso   1.00
N226   N     0.62608   0.80302   0.14272   0.00000  Uiso   1.00
N227   N     0.88096   0.06166   0.96202   0.00000  Uiso   1.00
N228   N     0.99792   0.84024   0.57950   0.00000  Uiso   1.00
N229   N     0.69254   0.75073   0.04902   0.00000  Uiso   1.00
N230   N     0.94742   0.00937   0.86833   0.00000  Uiso   1.00
C231   C     0.69299   0.07631   0.26759   0.00000  Uiso   1.00
C232   C     0.64244   0.09767   0.35647   0.00000  Uiso   1.00
C233   C     0.63697   0.08651   0.48339   0.00000  Uiso   1.00
C234   C     0.58748   0.10996   0.54844   0.00000  Uiso   1.00
C235   C     0.51547   0.13806   0.69557   0.00000  Uiso   1.00
C236   C     0.72661   0.12235   0.21028   0.00000  Uiso   1.00
C237   C     0.79190   0.13192   0.21428   0.00000  Uiso   1.00
C238   C     0.81327   0.17614   0.15626   0.00000  Uiso   1.00
C239   C     0.87194   0.24253   0.07635   0.00000  Uiso   1.00
C240   C     0.65636   0.05107   0.16050   0.00000  Uiso   1.00
C241   C     0.66260   0.00071   0.12262   0.00000  Uiso   1.00
C242   C     0.62482   0.98492   0.02265   0.00000  Uiso   1.00
C243   C     0.57442   0.94063   0.86545   0.00000  Uiso   1.00
C244   C     0.61483   0.13780   0.15740   0.00000  Uiso   1.00
C245   C     0.59999   0.13107   0.29662   0.00000  Uiso   1.00
C246   C     0.55050   0.15454   0.36149   0.00000  Uiso   1.00
C247   C     0.54495   0.14341   0.48849   0.00000  Uiso   1.00
C248   C     0.68416   0.15575   0.15044   0.00000  Uiso   1.00
C249   C     0.70543   0.19996   0.09238   0.00000  Uiso   1.00
C250   C     0.77074   0.20960   0.09630   0.00000  Uiso   1.00
C251   C     0.61391   0.08446   0.10065   0.00000  Uiso   1.00
C252   C     0.57612   0.06875   0.00072   0.00000  Uiso   1.00
C253   C     0.58230   0.01838   0.96270   0.00000  Uiso   1.00
H254   H     0.72604   0.05031   0.31418   0.00000  Uiso   1.00
H255   H     0.66983   0.06066   0.52968   0.00000  Uiso   1.00
H256   H     0.82474   0.10607   0.26060   0.00000  Uiso   1.00
H257   H     0.69545   0.97488   0.16895   0.00000  Uiso   1.00
H258   H     0.58881   0.08688   0.74222   0.00000  Uiso   1.00
H259   H     0.91545   0.18261   0.17481   0.00000  Uiso   1.00
H260   H     0.64281   0.90597   0.98155   0.00000  Uiso   1.00
H261   H     0.58178   0.16381   0.11080   0.00000  Uiso   1.00
H262   H     0.51766   0.18039   0.31515   0.00000  Uiso   1.00
H263   H     0.67257   0.22579   0.04607   0.00000  Uiso   1.00
H264   H     0.54328   0.09460   0.95443   0.00000  Uiso   1.00
H265   H     0.46530   0.18406   0.56810   0.00000  Uiso   1.00
H266   H     0.79194   0.27979   0.00069   0.00000  Uiso   1.00
H267   H     0.51931   0.00315   0.80744   0.00000  Uiso   1.00
O268   O     0.48749   0.14434   0.79326   0.00000  Uiso   1.00
O269   O     0.91603   0.26993   0.04883   0.00000  Uiso   1.00
O270   O     0.55833   0.90698   0.79529   0.00000  Uiso   1.00
N271   N     0.56854   0.10747   0.67319   0.00000  Uiso   1.00
N272   N     0.87392   0.19698   0.14272   0.00000  Uiso   1.00
N273   N     0.61904   0.93834   0.96202   0.00000  Uiso   1.00
N274   N     0.50208   0.15976   0.57950   0.00000  Uiso   1.00
N275   N     0.80746   0.24927   0.04902   0.00000  Uiso   1.00
N276   N     0.55258   0.99063   0.86833   0.00000  Uiso   1.00
C277   C     0.69299   0.42369   0.23241   0.00000  Uiso   1.00
C278   C     0.64244   0.40233   0.14353   0.00000  Uiso   1.00
C279   C     0.63697   0.41349   0.01661   0.00000  Uiso   1.00
C280   C     0.58748   0.39004   0.95156   0.00000  Uiso   1.00
C281   C     0.51547   0.36194   0.80443   0.00000  Uiso   1.00
C282   C     0.72661   0.37765   0.28972   0.00000  Uiso   1.00
C283   C     0.79190   0.36808   0.28572   0.00000  Uiso   1.00
C284   C     0.81327   0.32386   0.34374   0.00000  Uiso   1.00
C285   C     0.87194   0.25747   0.42365   0.00000  Uiso   1.00
C286   C     0.65636   0.44893   0.33950   0.00000  Uiso   1.00
C287   C     0.66260   0.49929   0.37738   0.00000  Uiso   1.00
C288   C     0.62482   0.51508   0.47735   0.00000  Uiso   1.00
C289   C     0.57442   0.55937   0.63455   0.00000  Uiso   1.00
C290   C     0.61483   0.36220   0.34260   0.00000  Uiso   1.00
C291   C     0.59999   0.36893   0.20338   0.00000  Uiso   1.00
C292   C     0.55050   0.34546   0.13851   0.00000  Uiso   1.00
C293   C     0.54495   0.35659   0.01151   0.00000  Uiso   1.00
C294   C     0.68416   0.34425   0.34956   0.00000  Uiso   1.00
C295   C     0.70543   0.30004   0.40762   0.00000  Uiso   1.00
C296   C     0.77074   0.29040   0.40370   0.00000  Uiso   1.00
C297   C     0.61391   0.41554   0.39935   0.00000  Uiso   1.00
C298   C     0.57612   0.43125   0.49928   0.00000  Uiso   1.00
C299   C     0.58230   0.48162   0.53730   0.00000  Uiso   1.00
H300   H     0.72604   0.44969   0.18582   0.00000  Uiso   1.00
H301   H     0.66983   0.43934   0.97032   0.00000  Uiso   1.00
H302   H     0.82474   0.39393   0.23940   0.00000  Uiso   1.00
H303   H     0.69545   0.52512   0.33105   0.00000  Uiso   1.00
H304   H     0.58881   0.41312   0.75778   0.00000  Uiso   1.00
H305   H     0.91545   0.31739   0.32519   0.00000  Uiso   1.00
H306   H     0.64281   0.59403   0.51845   0.00000  Uiso   1.00
H307   H     0.58178   0.33619   0.38920   0.00000  Uiso   1.00
H308   H     0.51766   0.31961   0.18485   0.00000  Uiso   1.00
H309   H     0.67257   0.27421   0.45393   0.00000  Uiso   1.00
H310   H     0.54328   0.40540   0.54557   0.00000  Uiso   1.00
H311   H     0.46530   0.31594   0.93190   0.00000  Uiso   1.00
H312   H     0.79194   0.22021   0.49931   0.00000  Uiso   1.00
H313   H     0.51931   0.49685   0.69256   0.00000  Uiso   1.00
O314   O     0.48749   0.35566   0.70674   0.00000  Uiso   1.00
O315   O     0.91603   0.23007   0.45117   0.00000  Uiso   1.00
O316   O     0.55833   0.59302   0.70471   0.00000  Uiso   1.00
N317   N     0.56854   0.39253   0.82681   0.00000  Uiso   1.00
N318   N     0.87392   0.30302   0.35728   0.00000  Uiso   1.00
N319   N     0.61904   0.56166   0.53798   0.00000  Uiso   1.00
N320   N     0.50208   0.34024   0.92050   0.00000  Uiso   1.00
N321   N     0.80746   0.25073   0.45098   0.00000  Uiso   1.00
N322   N     0.55258   0.50937   0.63167   0.00000  Uiso   1.00
C323   C     0.80701   0.57631   0.23241   0.00000  Uiso   1.00
C324   C     0.85756   0.59767   0.14353   0.00000  Uiso   1.00
C325   C     0.86303   0.58651   0.01661   0.00000  Uiso   1.00
C326   C     0.91252   0.60996   0.95156   0.00000  Uiso   1.00
C327   C     0.98453   0.63806   0.80443   0.00000  Uiso   1.00
C328   C     0.77339   0.62235   0.28972   0.00000  Uiso   1.00
C329   C     0.70810   0.63192   0.28572   0.00000  Uiso   1.00
C330   C     0.68673   0.67614   0.34374   0.00000  Uiso   1.00
C331   C     0.62806   0.74253   0.42365   0.00000  Uiso   1.00
C332   C     0.84364   0.55107   0.33950   0.00000  Uiso   1.00
C333   C     0.83740   0.50071   0.37738   0.00000  Uiso   1.00
C334   C     0.87518   0.48492   0.47735   0.00000  Uiso   1.00
C335   C     0.92558   0.44063   0.63455   0.00000  Uiso   1.00
C336   C     0.88517   0.63780   0.34260   0.00000  Uiso   1.00
C337   C     0.90001   0.63107   0.20338   0.00000  Uiso   1.00
C338   C     0.94950   0.65454   0.13851   0.00000  Uiso   1.00
C339   C     0.95505   0.64341   0.01151   0.00000  Uiso   1.00
C340   C     0.81584   0.65575   0.34956   0.00000  Uiso   1.00
C341   C     0.79457   0.69996   0.40762   0.00000  Uiso   1.00
C342   C     0.72926   0.70960   0.40370   0.00000  Uiso   1.00
C343   C     0.88609   0.58446   0.39935   0.00000  Uiso   1.00
C344   C     0.92388   0.56875   0.49928   0.00000  Uiso   1.00
C345   C     0.91770   0.51838   0.53730   0.00000  Uiso   1.00
H346   H     0.77396   0.55031   0.18582   0.00000  Uiso   1.00
H347   H     0.83017   0.56066   0.97032   0.00000  Uiso   1.00
H348   H     0.67526   0.60607   0.23940   0.00000  Uiso   1.00
H349   H     0.80455   0.47488   0.33105   0.00000  Uiso   1.00
H350   H     0.91119   0.58688   0.75778   0.00000  Uiso   1.00
H351   H     0.58455   0.68261   0.32519   0.00000  Uiso   1.00
H352   H     0.85719   0.40597   0.51845   0.00000  Uiso   1.00
H353   H     0.91822   0.66381   0.38920   0.00000  Uiso   1.00
H354   H     0.98234   0.68039   0.18485   0.00000  Uiso   1.00
H355   H     0.82743   0.72579   0.45393   0.00000  Uiso   1.00
H356   H     0.95672   0.59460   0.54557   0.00000  Uiso   1.00
H357   H     0.03470   0.68406   0.93190   0.00000  Uiso   1.00
H358   H     0.70806   0.77979   0.49931   0.00000  Uiso   1.00
H359   H     0.98069   0.50315   0.69256   0.00000  Uiso   1.00
O360   O     0.01251   0.64434   0.70674   0.00000  Uiso   1.00
O361   O     0.58397   0.76993   0.45117   0.00000  Uiso   1.00
O362   O     0.94167   0.40698   0.70471   0.00000  Uiso   1.00
N363   N     0.93146   0.60747   0.82681   0.00000  Uiso   1.00
N364   N     0.62608   0.69698   0.35728   0.00000  Uiso   1.00
N365   N     0.88096   0.43834   0.53798   0.00000  Uiso   1.00
N366   N     0.99792   0.65976   0.92050   0.00000  Uiso   1.00
N367   N     0.69254   0.74927   0.45098   0.00000  Uiso   1.00
N368   N     0.94742   0.49063   0.63167   0.00000  Uiso   1.00
