data_job_03277
_audit_creation_date              2018-12-19
_audit_creation_method            'Materials Studio'
_symmetry_space_group_name_H-M    'P1'
_symmetry_Int_Tables_number       1
_symmetry_cell_setting            triclinic
loop_
_symmetry_equiv_pos_as_xyz
  x,y,z
_cell_length_a                    14.8468
_cell_length_b                    19.8334
_cell_length_c                    25.9432
_cell_angle_alpha                 90.0000
_cell_angle_beta                  123.1735
_cell_angle_gamma                 90.0000
loop_
_atom_site_label
_atom_site_type_symbol
_atom_site_fract_x
_atom_site_fract_y
_atom_site_fract_z
_atom_site_U_iso_or_equiv
_atom_site_adp_type
_atom_site_occupancy
C1     C     0.28718   0.97401   0.45773   0.00000  Uiso   1.00
C2     C     0.24800   0.90299   0.43302   0.00000  Uiso   1.00
C3     C     0.30129   0.84358   0.46183   0.00000  Uiso   1.00
C4     C     0.25216   0.78373   0.43172   0.00000  Uiso   1.00
C5     C     0.20639   0.67350   0.40199   0.00000  Uiso   1.00
C6     C     0.29139   0.01147   0.40775   0.00000  Uiso   1.00
C7     C     0.38115   0.04327   0.41532   0.00000  Uiso   1.00
C8     C     0.36852   0.07474   0.36394   0.00000  Uiso   1.00
C9     C     0.39009   0.13297   0.29500   0.00000  Uiso   1.00
C10    C     0.19741   0.00715   0.46067   0.00000  Uiso   1.00
C11    C     0.20816   0.03533   0.51273   0.00000  Uiso   1.00
C12    C     0.11642   0.06318   0.50591   0.00000  Uiso   1.00
C13    C     0.99208   0.11470   0.51913   0.00000  Uiso   1.00
C14    C     0.10515   0.97337   0.35304   0.00000  Uiso   1.00
C15    C     0.14913   0.90265   0.37616   0.00000  Uiso   1.00
C16    C     0.09990   0.84287   0.34600   0.00000  Uiso   1.00
C17    C     0.15311   0.78338   0.37476   0.00000  Uiso   1.00
C18    C     0.19252   0.01112   0.35089   0.00000  Uiso   1.00
C19    C     0.17975   0.04256   0.29950   0.00000  Uiso   1.00
C20    C     0.26948   0.07440   0.30698   0.00000  Uiso   1.00
C21    C     0.09854   0.00680   0.40381   0.00000  Uiso   1.00
C22    C     0.00677   0.03462   0.39691   0.00000  Uiso   1.00
C23    C     0.01737   0.06283   0.44894   0.00000  Uiso   1.00
H24    H     0.36416   0.97429   0.50200   0.00000  Uiso   1.00
H25    H     0.37781   0.84387   0.50583   0.00000  Uiso   1.00
H26    H     0.45765   0.04353   0.45933   0.00000  Uiso   1.00
H27    H     0.28469   0.03559   0.55672   0.00000  Uiso   1.00
H28    H     0.34937   0.69913   0.48499   0.00000  Uiso   1.00
H29    H     0.51770   0.12015   0.38695   0.00000  Uiso   1.00
H30    H     0.15298   0.10340   0.59233   0.00000  Uiso   1.00
H31    H     0.02817   0.97311   0.30877   0.00000  Uiso   1.00
H32    H     0.02339   0.84262   0.30200   0.00000  Uiso   1.00
H33    H     0.10323   0.04228   0.25550   0.00000  Uiso   1.00
H34    H     0.93027   0.03434   0.35290   0.00000  Uiso   1.00
H35    H     0.06171   0.69811   0.31956   0.00000  Uiso   1.00
H36    H     0.23004   0.11914   0.22151   0.00000  Uiso   1.00
H37    H     0.86532   0.10239   0.42689   0.00000  Uiso   1.00
O38    O     0.20847   0.61280   0.40130   0.00000  Uiso   1.00
O39    O     0.42931   0.16518   0.27267   0.00000  Uiso   1.00
O40    O     0.95081   0.14320   0.54213   0.00000  Uiso   1.00
N41    N     0.28231   0.71679   0.44699   0.00000  Uiso   1.00
N42    N     0.43970   0.11041   0.35532   0.00000  Uiso   1.00
N43    N     0.09872   0.09477   0.54733   0.00000  Uiso   1.00
N44    N     0.12752   0.71625   0.35797   0.00000  Uiso   1.00
N45    N     0.28491   0.10987   0.26631   0.00000  Uiso   1.00
N46    N     0.94393   0.09423   0.45831   0.00000  Uiso   1.00
C47    C     0.78718   0.47401   0.45773   0.00000  Uiso   1.00
C48    C     0.74800   0.40299   0.43302   0.00000  Uiso   1.00
C49    C     0.80129   0.34358   0.46183   0.00000  Uiso   1.00
C50    C     0.75216   0.28373   0.43172   0.00000  Uiso   1.00
C51    C     0.70639   0.17350   0.40199   0.00000  Uiso   1.00
C52    C     0.79139   0.51147   0.40775   0.00000  Uiso   1.00
C53    C     0.88115   0.54327   0.41532   0.00000  Uiso   1.00
C54    C     0.86852   0.57474   0.36394   0.00000  Uiso   1.00
C55    C     0.89009   0.63297   0.29500   0.00000  Uiso   1.00
C56    C     0.69741   0.50715   0.46067   0.00000  Uiso   1.00
C57    C     0.70816   0.53533   0.51273   0.00000  Uiso   1.00
C58    C     0.61642   0.56318   0.50591   0.00000  Uiso   1.00
C59    C     0.49208   0.61470   0.51913   0.00000  Uiso   1.00
C60    C     0.60515   0.47337   0.35304   0.00000  Uiso   1.00
C61    C     0.64913   0.40265   0.37616   0.00000  Uiso   1.00
C62    C     0.59990   0.34287   0.34600   0.00000  Uiso   1.00
C63    C     0.65311   0.28338   0.37476   0.00000  Uiso   1.00
C64    C     0.69252   0.51112   0.35089   0.00000  Uiso   1.00
C65    C     0.67975   0.54256   0.29950   0.00000  Uiso   1.00
C66    C     0.76948   0.57440   0.30698   0.00000  Uiso   1.00
C67    C     0.59854   0.50680   0.40381   0.00000  Uiso   1.00
C68    C     0.50677   0.53462   0.39691   0.00000  Uiso   1.00
C69    C     0.51737   0.56283   0.44894   0.00000  Uiso   1.00
H70    H     0.86416   0.47429   0.50200   0.00000  Uiso   1.00
H71    H     0.87781   0.34387   0.50583   0.00000  Uiso   1.00
H72    H     0.95765   0.54353   0.45933   0.00000  Uiso   1.00
H73    H     0.78469   0.53559   0.55672   0.00000  Uiso   1.00
H74    H     0.84937   0.19913   0.48499   0.00000  Uiso   1.00
H75    H     0.01770   0.62015   0.38695   0.00000  Uiso   1.00
H76    H     0.65298   0.60340   0.59233   0.00000  Uiso   1.00
H77    H     0.52817   0.47311   0.30877   0.00000  Uiso   1.00
H78    H     0.52339   0.34262   0.30200   0.00000  Uiso   1.00
H79    H     0.60323   0.54228   0.25550   0.00000  Uiso   1.00
H80    H     0.43027   0.53434   0.35290   0.00000  Uiso   1.00
H81    H     0.56171   0.19811   0.31956   0.00000  Uiso   1.00
H82    H     0.73004   0.61914   0.22151   0.00000  Uiso   1.00
H83    H     0.36532   0.60239   0.42689   0.00000  Uiso   1.00
O84    O     0.70847   0.11280   0.40130   0.00000  Uiso   1.00
O85    O     0.92931   0.66518   0.27267   0.00000  Uiso   1.00
O86    O     0.45081   0.64320   0.54213   0.00000  Uiso   1.00
N87    N     0.78231   0.21679   0.44699   0.00000  Uiso   1.00
N88    N     0.93970   0.61041   0.35532   0.00000  Uiso   1.00
N89    N     0.59872   0.59477   0.54733   0.00000  Uiso   1.00
N90    N     0.62752   0.21625   0.35797   0.00000  Uiso   1.00
N91    N     0.78491   0.60987   0.26631   0.00000  Uiso   1.00
N92    N     0.44393   0.59423   0.45831   0.00000  Uiso   1.00
C93    C     0.71282   0.97401   0.04227   0.00000  Uiso   1.00
C94    C     0.75200   0.90299   0.06698   0.00000  Uiso   1.00
C95    C     0.69871   0.84358   0.03817   0.00000  Uiso   1.00
C96    C     0.74784   0.78373   0.06828   0.00000  Uiso   1.00
C97    C     0.79361   0.67350   0.09801   0.00000  Uiso   1.00
C98    C     0.70861   0.01147   0.09225   0.00000  Uiso   1.00
C99    C     0.61885   0.04327   0.08468   0.00000  Uiso   1.00
C100   C     0.63148   0.07474   0.13606   0.00000  Uiso   1.00
C101   C     0.60991   0.13297   0.20500   0.00000  Uiso   1.00
C102   C     0.80259   0.00715   0.03933   0.00000  Uiso   1.00
C103   C     0.79184   0.03533   0.98727   0.00000  Uiso   1.00
C104   C     0.88358   0.06318   0.99409   0.00000  Uiso   1.00
C105   C     0.00792   0.11470   0.98087   0.00000  Uiso   1.00
C106   C     0.89485   0.97337   0.14696   0.00000  Uiso   1.00
C107   C     0.85087   0.90265   0.12384   0.00000  Uiso   1.00
C108   C     0.90010   0.84287   0.15400   0.00000  Uiso   1.00
C109   C     0.84689   0.78338   0.12524   0.00000  Uiso   1.00
C110   C     0.80748   0.01112   0.14911   0.00000  Uiso   1.00
C111   C     0.82025   0.04256   0.20050   0.00000  Uiso   1.00
C112   C     0.73052   0.07440   0.19302   0.00000  Uiso   1.00
C113   C     0.90146   0.00680   0.09619   0.00000  Uiso   1.00
C114   C     0.99323   0.03462   0.10309   0.00000  Uiso   1.00
C115   C     0.98263   0.06283   0.05106   0.00000  Uiso   1.00
H116   H     0.63584   0.97429   0.99800   0.00000  Uiso   1.00
H117   H     0.62219   0.84387   0.99417   0.00000  Uiso   1.00
H118   H     0.54235   0.04353   0.04067   0.00000  Uiso   1.00
H119   H     0.71531   0.03559   0.94328   0.00000  Uiso   1.00
H120   H     0.65063   0.69913   0.01501   0.00000  Uiso   1.00
H121   H     0.48230   0.12015   0.11305   0.00000  Uiso   1.00
H122   H     0.84702   0.10340   0.90767   0.00000  Uiso   1.00
H123   H     0.97183   0.97311   0.19123   0.00000  Uiso   1.00
H124   H     0.97661   0.84262   0.19800   0.00000  Uiso   1.00
H125   H     0.89677   0.04228   0.24450   0.00000  Uiso   1.00
H126   H     0.06973   0.03434   0.14710   0.00000  Uiso   1.00
H127   H     0.93829   0.69811   0.18044   0.00000  Uiso   1.00
H128   H     0.76996   0.11914   0.27849   0.00000  Uiso   1.00
H129   H     0.13468   0.10239   0.07311   0.00000  Uiso   1.00
O130   O     0.79153   0.61280   0.09870   0.00000  Uiso   1.00
O131   O     0.57069   0.16518   0.22733   0.00000  Uiso   1.00
O132   O     0.04919   0.14320   0.95787   0.00000  Uiso   1.00
N133   N     0.71769   0.71679   0.05301   0.00000  Uiso   1.00
N134   N     0.56030   0.11041   0.14468   0.00000  Uiso   1.00
N135   N     0.90128   0.09477   0.95267   0.00000  Uiso   1.00
N136   N     0.87248   0.71625   0.14203   0.00000  Uiso   1.00
N137   N     0.71509   0.10987   0.23369   0.00000  Uiso   1.00
N138   N     0.05607   0.09423   0.04169   0.00000  Uiso   1.00
C139   C     0.21282   0.47401   0.04227   0.00000  Uiso   1.00
C140   C     0.25200   0.40299   0.06698   0.00000  Uiso   1.00
C141   C     0.19871   0.34358   0.03817   0.00000  Uiso   1.00
C142   C     0.24784   0.28373   0.06828   0.00000  Uiso   1.00
C143   C     0.29361   0.17350   0.09801   0.00000  Uiso   1.00
C144   C     0.20861   0.51147   0.09225   0.00000  Uiso   1.00
C145   C     0.11885   0.54327   0.08468   0.00000  Uiso   1.00
C146   C     0.13148   0.57474   0.13606   0.00000  Uiso   1.00
C147   C     0.10991   0.63297   0.20500   0.00000  Uiso   1.00
C148   C     0.30259   0.50715   0.03933   0.00000  Uiso   1.00
C149   C     0.29184   0.53533   0.98727   0.00000  Uiso   1.00
C150   C     0.38358   0.56318   0.99409   0.00000  Uiso   1.00
C151   C     0.50792   0.61470   0.98087   0.00000  Uiso   1.00
C152   C     0.39485   0.47337   0.14696   0.00000  Uiso   1.00
C153   C     0.35087   0.40265   0.12384   0.00000  Uiso   1.00
C154   C     0.40010   0.34287   0.15400   0.00000  Uiso   1.00
C155   C     0.34689   0.28338   0.12524   0.00000  Uiso   1.00
C156   C     0.30748   0.51112   0.14911   0.00000  Uiso   1.00
C157   C     0.32025   0.54256   0.20050   0.00000  Uiso   1.00
C158   C     0.23052   0.57440   0.19302   0.00000  Uiso   1.00
C159   C     0.40146   0.50680   0.09619   0.00000  Uiso   1.00
C160   C     0.49323   0.53462   0.10309   0.00000  Uiso   1.00
C161   C     0.48263   0.56283   0.05106   0.00000  Uiso   1.00
H162   H     0.13584   0.47429   0.99800   0.00000  Uiso   1.00
H163   H     0.12219   0.34387   0.99417   0.00000  Uiso   1.00
H164   H     0.04235   0.54353   0.04067   0.00000  Uiso   1.00
H165   H     0.21531   0.53559   0.94328   0.00000  Uiso   1.00
H166   H     0.15063   0.19913   0.01501   0.00000  Uiso   1.00
H167   H     0.98230   0.62015   0.11305   0.00000  Uiso   1.00
H168   H     0.34702   0.60340   0.90767   0.00000  Uiso   1.00
H169   H     0.47183   0.47311   0.19123   0.00000  Uiso   1.00
H170   H     0.47661   0.34262   0.19800   0.00000  Uiso   1.00
H171   H     0.39677   0.54228   0.24450   0.00000  Uiso   1.00
H172   H     0.56973   0.53434   0.14710   0.00000  Uiso   1.00
H173   H     0.43829   0.19811   0.18044   0.00000  Uiso   1.00
H174   H     0.26996   0.61914   0.27849   0.00000  Uiso   1.00
H175   H     0.63468   0.60239   0.07311   0.00000  Uiso   1.00
O176   O     0.29153   0.11280   0.09870   0.00000  Uiso   1.00
O177   O     0.07069   0.66518   0.22733   0.00000  Uiso   1.00
O178   O     0.54919   0.64320   0.95787   0.00000  Uiso   1.00
N179   N     0.21769   0.21679   0.05301   0.00000  Uiso   1.00
N180   N     0.06030   0.61041   0.14468   0.00000  Uiso   1.00
N181   N     0.40128   0.59477   0.95267   0.00000  Uiso   1.00
N182   N     0.37248   0.21625   0.14203   0.00000  Uiso   1.00
N183   N     0.21509   0.60987   0.23369   0.00000  Uiso   1.00
N184   N     0.55607   0.59423   0.04169   0.00000  Uiso   1.00
C185   C     0.71282   0.02599   0.54227   0.00000  Uiso   1.00
C186   C     0.75200   0.09701   0.56698   0.00000  Uiso   1.00
C187   C     0.69871   0.15642   0.53817   0.00000  Uiso   1.00
C188   C     0.74784   0.21627   0.56828   0.00000  Uiso   1.00
C189   C     0.79361   0.32650   0.59801   0.00000  Uiso   1.00
C190   C     0.70861   0.98853   0.59225   0.00000  Uiso   1.00
C191   C     0.61885   0.95673   0.58468   0.00000  Uiso   1.00
C192   C     0.63148   0.92526   0.63606   0.00000  Uiso   1.00
C193   C     0.60991   0.86703   0.70500   0.00000  Uiso   1.00
C194   C     0.80259   0.99285   0.53933   0.00000  Uiso   1.00
C195   C     0.79184   0.96467   0.48727   0.00000  Uiso   1.00
C196   C     0.88358   0.93682   0.49409   0.00000  Uiso   1.00
C197   C     0.00792   0.88530   0.48087   0.00000  Uiso   1.00
C198   C     0.89485   0.02663   0.64696   0.00000  Uiso   1.00
C199   C     0.85087   0.09735   0.62384   0.00000  Uiso   1.00
C200   C     0.90010   0.15713   0.65400   0.00000  Uiso   1.00
C201   C     0.84689   0.21662   0.62524   0.00000  Uiso   1.00
C202   C     0.80748   0.98888   0.64911   0.00000  Uiso   1.00
C203   C     0.82025   0.95744   0.70050   0.00000  Uiso   1.00
C204   C     0.73052   0.92560   0.69302   0.00000  Uiso   1.00
C205   C     0.90146   0.99320   0.59619   0.00000  Uiso   1.00
C206   C     0.99323   0.96538   0.60309   0.00000  Uiso   1.00
C207   C     0.98263   0.93717   0.55106   0.00000  Uiso   1.00
H208   H     0.63584   0.02571   0.49800   0.00000  Uiso   1.00
H209   H     0.62219   0.15613   0.49417   0.00000  Uiso   1.00
H210   H     0.54235   0.95647   0.54067   0.00000  Uiso   1.00
H211   H     0.71531   0.96441   0.44328   0.00000  Uiso   1.00
H212   H     0.65063   0.30087   0.51501   0.00000  Uiso   1.00
H213   H     0.48230   0.87985   0.61305   0.00000  Uiso   1.00
H214   H     0.84702   0.89660   0.40767   0.00000  Uiso   1.00
H215   H     0.97183   0.02689   0.69123   0.00000  Uiso   1.00
H216   H     0.97661   0.15738   0.69800   0.00000  Uiso   1.00
H217   H     0.89677   0.95772   0.74450   0.00000  Uiso   1.00
H218   H     0.06973   0.96566   0.64710   0.00000  Uiso   1.00
H219   H     0.93829   0.30189   0.68044   0.00000  Uiso   1.00
H220   H     0.76996   0.88086   0.77849   0.00000  Uiso   1.00
H221   H     0.13468   0.89761   0.57311   0.00000  Uiso   1.00
O222   O     0.79153   0.38720   0.59870   0.00000  Uiso   1.00
O223   O     0.57069   0.83482   0.72733   0.00000  Uiso   1.00
O224   O     0.04919   0.85680   0.45787   0.00000  Uiso   1.00
N225   N     0.71769   0.28321   0.55301   0.00000  Uiso   1.00
N226   N     0.56030   0.88959   0.64468   0.00000  Uiso   1.00
N227   N     0.90128   0.90523   0.45267   0.00000  Uiso   1.00
N228   N     0.87248   0.28375   0.64203   0.00000  Uiso   1.00
N229   N     0.71509   0.89013   0.73369   0.00000  Uiso   1.00
N230   N     0.05607   0.90577   0.54169   0.00000  Uiso   1.00
C231   C     0.21282   0.52599   0.54227   0.00000  Uiso   1.00
C232   C     0.25200   0.59701   0.56698   0.00000  Uiso   1.00
C233   C     0.19871   0.65642   0.53817   0.00000  Uiso   1.00
C234   C     0.24784   0.71627   0.56828   0.00000  Uiso   1.00
C235   C     0.29361   0.82650   0.59801   0.00000  Uiso   1.00
C236   C     0.20861   0.48853   0.59225   0.00000  Uiso   1.00
C237   C     0.11885   0.45673   0.58468   0.00000  Uiso   1.00
C238   C     0.13148   0.42526   0.63606   0.00000  Uiso   1.00
C239   C     0.10991   0.36703   0.70500   0.00000  Uiso   1.00
C240   C     0.30259   0.49285   0.53933   0.00000  Uiso   1.00
C241   C     0.29184   0.46467   0.48727   0.00000  Uiso   1.00
C242   C     0.38358   0.43682   0.49409   0.00000  Uiso   1.00
C243   C     0.50792   0.38530   0.48087   0.00000  Uiso   1.00
C244   C     0.39485   0.52663   0.64696   0.00000  Uiso   1.00
C245   C     0.35087   0.59735   0.62384   0.00000  Uiso   1.00
C246   C     0.40010   0.65713   0.65400   0.00000  Uiso   1.00
C247   C     0.34689   0.71662   0.62524   0.00000  Uiso   1.00
C248   C     0.30748   0.48888   0.64911   0.00000  Uiso   1.00
C249   C     0.32025   0.45744   0.70050   0.00000  Uiso   1.00
C250   C     0.23052   0.42560   0.69302   0.00000  Uiso   1.00
C251   C     0.40146   0.49320   0.59619   0.00000  Uiso   1.00
C252   C     0.49323   0.46538   0.60309   0.00000  Uiso   1.00
C253   C     0.48263   0.43717   0.55106   0.00000  Uiso   1.00
H254   H     0.13584   0.52571   0.49800   0.00000  Uiso   1.00
H255   H     0.12219   0.65613   0.49417   0.00000  Uiso   1.00
H256   H     0.04235   0.45647   0.54067   0.00000  Uiso   1.00
H257   H     0.21531   0.46441   0.44328   0.00000  Uiso   1.00
H258   H     0.15063   0.80087   0.51501   0.00000  Uiso   1.00
H259   H     0.98230   0.37985   0.61305   0.00000  Uiso   1.00
H260   H     0.34702   0.39660   0.40767   0.00000  Uiso   1.00
H261   H     0.47183   0.52689   0.69123   0.00000  Uiso   1.00
H262   H     0.47661   0.65738   0.69800   0.00000  Uiso   1.00
H263   H     0.39677   0.45772   0.74450   0.00000  Uiso   1.00
H264   H     0.56973   0.46566   0.64710   0.00000  Uiso   1.00
H265   H     0.43829   0.80189   0.68044   0.00000  Uiso   1.00
H266   H     0.26996   0.38086   0.77849   0.00000  Uiso   1.00
H267   H     0.63468   0.39761   0.57311   0.00000  Uiso   1.00
O268   O     0.29153   0.88720   0.59870   0.00000  Uiso   1.00
O269   O     0.07069   0.33482   0.72733   0.00000  Uiso   1.00
O270   O     0.54919   0.35680   0.45787   0.00000  Uiso   1.00
N271   N     0.21769   0.78321   0.55301   0.00000  Uiso   1.00
N272   N     0.06030   0.38959   0.64468   0.00000  Uiso   1.00
N273   N     0.40128   0.40523   0.45267   0.00000  Uiso   1.00
N274   N     0.37248   0.78375   0.64203   0.00000  Uiso   1.00
N275   N     0.21509   0.39013   0.73369   0.00000  Uiso   1.00
N276   N     0.55607   0.40577   0.54169   0.00000  Uiso   1.00
C277   C     0.28718   0.02599   0.95773   0.00000  Uiso   1.00
C278   C     0.24800   0.09701   0.93302   0.00000  Uiso   1.00
C279   C     0.30129   0.15642   0.96183   0.00000  Uiso   1.00
C280   C     0.25216   0.21627   0.93172   0.00000  Uiso   1.00
C281   C     0.20639   0.32650   0.90199   0.00000  Uiso   1.00
C282   C     0.29139   0.98853   0.90775   0.00000  Uiso   1.00
C283   C     0.38115   0.95673   0.91532   0.00000  Uiso   1.00
C284   C     0.36852   0.92526   0.86394   0.00000  Uiso   1.00
C285   C     0.39009   0.86703   0.79500   0.00000  Uiso   1.00
C286   C     0.19741   0.99285   0.96067   0.00000  Uiso   1.00
C287   C     0.20816   0.96467   0.01273   0.00000  Uiso   1.00
C288   C     0.11642   0.93682   0.00591   0.00000  Uiso   1.00
C289   C     0.99208   0.88530   0.01913   0.00000  Uiso   1.00
C290   C     0.10515   0.02663   0.85304   0.00000  Uiso   1.00
C291   C     0.14913   0.09735   0.87616   0.00000  Uiso   1.00
C292   C     0.09990   0.15713   0.84600   0.00000  Uiso   1.00
C293   C     0.15311   0.21662   0.87476   0.00000  Uiso   1.00
C294   C     0.19252   0.98888   0.85089   0.00000  Uiso   1.00
C295   C     0.17975   0.95744   0.79950   0.00000  Uiso   1.00
C296   C     0.26948   0.92560   0.80698   0.00000  Uiso   1.00
C297   C     0.09854   0.99320   0.90381   0.00000  Uiso   1.00
C298   C     0.00677   0.96538   0.89691   0.00000  Uiso   1.00
C299   C     0.01737   0.93717   0.94894   0.00000  Uiso   1.00
H300   H     0.36416   0.02571   0.00200   0.00000  Uiso   1.00
H301   H     0.37781   0.15613   0.00583   0.00000  Uiso   1.00
H302   H     0.45765   0.95647   0.95933   0.00000  Uiso   1.00
H303   H     0.28469   0.96441   0.05672   0.00000  Uiso   1.00
H304   H     0.34937   0.30087   0.98499   0.00000  Uiso   1.00
H305   H     0.51770   0.87985   0.88695   0.00000  Uiso   1.00
H306   H     0.15298   0.89660   0.09233   0.00000  Uiso   1.00
H307   H     0.02817   0.02689   0.80877   0.00000  Uiso   1.00
H308   H     0.02339   0.15738   0.80200   0.00000  Uiso   1.00
H309   H     0.10323   0.95772   0.75550   0.00000  Uiso   1.00
H310   H     0.93027   0.96566   0.85290   0.00000  Uiso   1.00
H311   H     0.06171   0.30189   0.81956   0.00000  Uiso   1.00
H312   H     0.23004   0.88086   0.72151   0.00000  Uiso   1.00
H313   H     0.86532   0.89761   0.92689   0.00000  Uiso   1.00
O314   O     0.20847   0.38720   0.90130   0.00000  Uiso   1.00
O315   O     0.42931   0.83482   0.77267   0.00000  Uiso   1.00
O316   O     0.95081   0.85680   0.04213   0.00000  Uiso   1.00
N317   N     0.28231   0.28321   0.94699   0.00000  Uiso   1.00
N318   N     0.43970   0.88959   0.85532   0.00000  Uiso   1.00
N319   N     0.09872   0.90523   0.04733   0.00000  Uiso   1.00
N320   N     0.12752   0.28375   0.85797   0.00000  Uiso   1.00
N321   N     0.28491   0.89013   0.76631   0.00000  Uiso   1.00
N322   N     0.94393   0.90577   0.95831   0.00000  Uiso   1.00
C323   C     0.78718   0.52599   0.95773   0.00000  Uiso   1.00
C324   C     0.74800   0.59701   0.93302   0.00000  Uiso   1.00
C325   C     0.80129   0.65642   0.96183   0.00000  Uiso   1.00
C326   C     0.75216   0.71627   0.93172   0.00000  Uiso   1.00
C327   C     0.70639   0.82650   0.90199   0.00000  Uiso   1.00
C328   C     0.79139   0.48853   0.90775   0.00000  Uiso   1.00
C329   C     0.88115   0.45673   0.91532   0.00000  Uiso   1.00
C330   C     0.86852   0.42526   0.86394   0.00000  Uiso   1.00
C331   C     0.89009   0.36703   0.79500   0.00000  Uiso   1.00
C332   C     0.69741   0.49285   0.96067   0.00000  Uiso   1.00
C333   C     0.70816   0.46467   0.01273   0.00000  Uiso   1.00
C334   C     0.61642   0.43682   0.00591   0.00000  Uiso   1.00
C335   C     0.49208   0.38530   0.01913   0.00000  Uiso   1.00
C336   C     0.60515   0.52663   0.85304   0.00000  Uiso   1.00
C337   C     0.64913   0.59735   0.87616   0.00000  Uiso   1.00
C338   C     0.59990   0.65713   0.84600   0.00000  Uiso   1.00
C339   C     0.65311   0.71662   0.87476   0.00000  Uiso   1.00
C340   C     0.69252   0.48888   0.85089   0.00000  Uiso   1.00
C341   C     0.67975   0.45744   0.79950   0.00000  Uiso   1.00
C342   C     0.76948   0.42560   0.80698   0.00000  Uiso   1.00
C343   C     0.59854   0.49320   0.90381   0.00000  Uiso   1.00
C344   C     0.50677   0.46538   0.89691   0.00000  Uiso   1.00
C345   C     0.51737   0.43717   0.94894   0.00000  Uiso   1.00
H346   H     0.86416   0.52571   0.00200   0.00000  Uiso   1.00
H347   H     0.87781   0.65613   0.00583   0.00000  Uiso   1.00
H348   H     0.95765   0.45647   0.95933   0.00000  Uiso   1.00
H349   H     0.78469   0.46441   0.05672   0.00000  Uiso   1.00
H350   H     0.84937   0.80087   0.98499   0.00000  Uiso   1.00
H351   H     0.01770   0.37985   0.88695   0.00000  Uiso   1.00
H352   H     0.65298   0.39660   0.09233   0.00000  Uiso   1.00
H353   H     0.52817   0.52689   0.80877   0.00000  Uiso   1.00
H354   H     0.52339   0.65738   0.80200   0.00000  Uiso   1.00
H355   H     0.60323   0.45772   0.75550   0.00000  Uiso   1.00
H356   H     0.43027   0.46566   0.85290   0.00000  Uiso   1.00
H357   H     0.56171   0.80189   0.81956   0.00000  Uiso   1.00
H358   H     0.73004   0.38086   0.72151   0.00000  Uiso   1.00
H359   H     0.36532   0.39761   0.92689   0.00000  Uiso   1.00
O360   O     0.70847   0.88720   0.90130   0.00000  Uiso   1.00
O361   O     0.92931   0.33482   0.77267   0.00000  Uiso   1.00
O362   O     0.45081   0.35680   0.04213   0.00000  Uiso   1.00
N363   N     0.78231   0.78321   0.94699   0.00000  Uiso   1.00
N364   N     0.93970   0.38959   0.85532   0.00000  Uiso   1.00
N365   N     0.59872   0.40523   0.04733   0.00000  Uiso   1.00
N366   N     0.62752   0.78375   0.85797   0.00000  Uiso   1.00
N367   N     0.78491   0.39013   0.76631   0.00000  Uiso   1.00
N368   N     0.44393   0.40577   0.95831   0.00000  Uiso   1.00
