data_job_00842
_audit_creation_date              2018-12-19
_audit_creation_method            'Materials Studio'
_symmetry_space_group_name_H-M    'P1'
_symmetry_Int_Tables_number       1
_symmetry_cell_setting            triclinic
loop_
_symmetry_equiv_pos_as_xyz
  x,y,z
_cell_length_a                    21.5446
_cell_length_b                    10.2825
_cell_length_c                    19.3387
_cell_angle_alpha                 90.0000
_cell_angle_beta                  148.7254
_cell_angle_gamma                 90.0000
loop_
_atom_site_label
_atom_site_type_symbol
_atom_site_fract_x
_atom_site_fract_y
_atom_site_fract_z
_atom_site_U_iso_or_equiv
_atom_site_adp_type
_atom_site_occupancy
C1     C     0.37428   0.85814   0.71564   0.00000  Uiso   1.00
C2     C     0.27426   0.95422   0.63658   0.00000  Uiso   1.00
C3     C     0.27913   0.08779   0.63128   0.00000  Uiso   1.00
C4     C     0.17825   0.15879   0.55327   0.00000  Uiso   1.00
C5     C     0.03848   0.31719   0.44122   0.00000  Uiso   1.00
C6     C     0.39921   0.78558   0.80662   0.00000  Uiso   1.00
C7     C     0.50914   0.77734   0.94430   0.00000  Uiso   1.00
C8     C     0.51345   0.70636   0.00942   0.00000  Uiso   1.00
C9     C     0.56769   0.60288   0.16137   0.00000  Uiso   1.00
C10    C     0.32069   0.75826   0.61525   0.00000  Uiso   1.00
C11    C     0.36460   0.72702   0.59203   0.00000  Uiso   1.00
C12    C     0.30281   0.63301   0.49606   0.00000  Uiso   1.00
C13    C     0.23512   0.48710   0.35087   0.00000  Uiso   1.00
C14    C     0.18649   0.74672   0.58651   0.00000  Uiso   1.00
C15    C     0.17226   0.89370   0.56644   0.00000  Uiso   1.00
C16    C     0.07135   0.96452   0.48841   0.00000  Uiso   1.00
C17    C     0.07606   0.09816   0.48300   0.00000  Uiso   1.00
C18    C     0.29722   0.72507   0.73649   0.00000  Uiso   1.00
C19    C     0.30136   0.65408   0.80143   0.00000  Uiso   1.00
C20    C     0.41126   0.64574   0.93916   0.00000  Uiso   1.00
C21    C     0.21868   0.69775   0.54511   0.00000  Uiso   1.00
C22    C     0.15682   0.60376   0.44916   0.00000  Uiso   1.00
C23    C     0.20062   0.57238   0.42580   0.00000  Uiso   1.00
H24    H     0.45370   0.90525   0.77026   0.00000  Uiso   1.00
H25    H     0.35809   0.13458   0.68558   0.00000  Uiso   1.00
H26    H     0.58806   0.82417   0.99855   0.00000  Uiso   1.00
H27    H     0.44354   0.77387   0.64633   0.00000  Uiso   1.00
H28    H     0.20711   0.36216   0.56082   0.00000  Uiso   1.00
H29    H     0.69204   0.70761   0.22071   0.00000  Uiso   1.00
H30    H     0.38729   0.60152   0.47800   0.00000  Uiso   1.00
H31    H     0.10707   0.69961   0.53191   0.00000  Uiso   1.00
H32    H     0.99242   0.91766   0.43415   0.00000  Uiso   1.00
H33    H     0.22241   0.60725   0.74712   0.00000  Uiso   1.00
H34    H     0.07788   0.55695   0.39490   0.00000  Uiso   1.00
H35    H     0.91033   0.18610   0.35675   0.00000  Uiso   1.00
H36    H     0.39526   0.53155   0.01665   0.00000  Uiso   1.00
H37    H     0.09051   0.42546   0.27393   0.00000  Uiso   1.00
O38    O     0.98957   0.42129   0.39881   0.00000  Uiso   1.00
O39    O     0.62578   0.56253   0.26456   0.00000  Uiso   1.00
O40    O     0.22596   0.42335   0.29014   0.00000  Uiso   1.00
N41    N     0.15299   0.29080   0.52618   0.00000  Uiso   1.00
N42    N     0.60636   0.67885   0.14315   0.00000  Uiso   1.00
N43    N     0.32147   0.57964   0.44880   0.00000  Uiso   1.00
N44    N     0.99329   0.19606   0.41637   0.00000  Uiso   1.00
N45    N     0.44667   0.58411   0.03334   0.00000  Uiso   1.00
N46    N     0.16177   0.48490   0.33899   0.00000  Uiso   1.00
C47    C     0.62572   0.35814   0.78436   0.00000  Uiso   1.00
C48    C     0.72574   0.45422   0.86342   0.00000  Uiso   1.00
C49    C     0.72087   0.58779   0.86872   0.00000  Uiso   1.00
C50    C     0.82175   0.65879   0.94673   0.00000  Uiso   1.00
C51    C     0.96152   0.81719   0.05878   0.00000  Uiso   1.00
C52    C     0.60079   0.28558   0.69338   0.00000  Uiso   1.00
C53    C     0.49086   0.27734   0.55570   0.00000  Uiso   1.00
C54    C     0.48655   0.20636   0.49058   0.00000  Uiso   1.00
C55    C     0.43231   0.10288   0.33863   0.00000  Uiso   1.00
C56    C     0.67931   0.25826   0.88475   0.00000  Uiso   1.00
C57    C     0.63540   0.22702   0.90797   0.00000  Uiso   1.00
C58    C     0.69719   0.13301   0.00394   0.00000  Uiso   1.00
C59    C     0.76488   0.98710   0.14913   0.00000  Uiso   1.00
C60    C     0.81351   0.24672   0.91349   0.00000  Uiso   1.00
C61    C     0.82774   0.39370   0.93356   0.00000  Uiso   1.00
C62    C     0.92865   0.46452   0.01159   0.00000  Uiso   1.00
C63    C     0.92394   0.59816   0.01700   0.00000  Uiso   1.00
C64    C     0.70278   0.22507   0.76351   0.00000  Uiso   1.00
C65    C     0.69864   0.15408   0.69857   0.00000  Uiso   1.00
C66    C     0.58874   0.14574   0.56084   0.00000  Uiso   1.00
C67    C     0.78132   0.19775   0.95489   0.00000  Uiso   1.00
C68    C     0.84318   0.10376   0.05084   0.00000  Uiso   1.00
C69    C     0.79938   0.07238   0.07420   0.00000  Uiso   1.00
H70    H     0.54630   0.40525   0.72974   0.00000  Uiso   1.00
H71    H     0.64191   0.63458   0.81442   0.00000  Uiso   1.00
H72    H     0.41194   0.32417   0.50145   0.00000  Uiso   1.00
H73    H     0.55646   0.27387   0.85367   0.00000  Uiso   1.00
H74    H     0.79289   0.86216   0.93918   0.00000  Uiso   1.00
H75    H     0.30796   0.20761   0.27929   0.00000  Uiso   1.00
H76    H     0.61271   0.10152   0.02200   0.00000  Uiso   1.00
H77    H     0.89293   0.19961   0.96809   0.00000  Uiso   1.00
H78    H     0.00758   0.41766   0.06585   0.00000  Uiso   1.00
H79    H     0.77759   0.10725   0.75288   0.00000  Uiso   1.00
H80    H     0.92212   0.05695   0.10510   0.00000  Uiso   1.00
H81    H     0.08967   0.68610   0.14325   0.00000  Uiso   1.00
H82    H     0.60474   0.03155   0.48335   0.00000  Uiso   1.00
H83    H     0.90949   0.92546   0.22607   0.00000  Uiso   1.00
O84    O     0.01043   0.92129   0.10119   0.00000  Uiso   1.00
O85    O     0.37422   0.06253   0.23544   0.00000  Uiso   1.00
O86    O     0.77404   0.92335   0.20986   0.00000  Uiso   1.00
N87    N     0.84701   0.79080   0.97382   0.00000  Uiso   1.00
N88    N     0.39364   0.17885   0.35685   0.00000  Uiso   1.00
N89    N     0.67853   0.07964   0.05120   0.00000  Uiso   1.00
N90    N     0.00671   0.69606   0.08363   0.00000  Uiso   1.00
N91    N     0.55333   0.08411   0.46666   0.00000  Uiso   1.00
N92    N     0.83823   0.98490   0.16101   0.00000  Uiso   1.00
C93    C     0.62572   0.14186   0.28436   0.00000  Uiso   1.00
C94    C     0.72574   0.04578   0.36342   0.00000  Uiso   1.00
C95    C     0.72087   0.91221   0.36872   0.00000  Uiso   1.00
C96    C     0.82175   0.84121   0.44673   0.00000  Uiso   1.00
C97    C     0.96152   0.68281   0.55878   0.00000  Uiso   1.00
C98    C     0.60079   0.21442   0.19338   0.00000  Uiso   1.00
C99    C     0.49086   0.22266   0.05570   0.00000  Uiso   1.00
C100   C     0.48655   0.29364   0.99058   0.00000  Uiso   1.00
C101   C     0.43231   0.39712   0.83863   0.00000  Uiso   1.00
C102   C     0.67931   0.24174   0.38475   0.00000  Uiso   1.00
C103   C     0.63540   0.27298   0.40797   0.00000  Uiso   1.00
C104   C     0.69719   0.36699   0.50394   0.00000  Uiso   1.00
C105   C     0.76488   0.51290   0.64913   0.00000  Uiso   1.00
C106   C     0.81351   0.25328   0.41349   0.00000  Uiso   1.00
C107   C     0.82774   0.10630   0.43356   0.00000  Uiso   1.00
C108   C     0.92865   0.03548   0.51159   0.00000  Uiso   1.00
C109   C     0.92394   0.90184   0.51700   0.00000  Uiso   1.00
C110   C     0.70278   0.27493   0.26351   0.00000  Uiso   1.00
C111   C     0.69864   0.34592   0.19857   0.00000  Uiso   1.00
C112   C     0.58874   0.35426   0.06084   0.00000  Uiso   1.00
C113   C     0.78132   0.30225   0.45489   0.00000  Uiso   1.00
C114   C     0.84318   0.39624   0.55084   0.00000  Uiso   1.00
C115   C     0.79938   0.42762   0.57420   0.00000  Uiso   1.00
H116   H     0.54630   0.09475   0.22974   0.00000  Uiso   1.00
H117   H     0.64191   0.86542   0.31442   0.00000  Uiso   1.00
H118   H     0.41194   0.17583   0.00145   0.00000  Uiso   1.00
H119   H     0.55646   0.22613   0.35367   0.00000  Uiso   1.00
H120   H     0.79289   0.63784   0.43918   0.00000  Uiso   1.00
H121   H     0.30796   0.29239   0.77929   0.00000  Uiso   1.00
H122   H     0.61271   0.39848   0.52200   0.00000  Uiso   1.00
H123   H     0.89293   0.30039   0.46809   0.00000  Uiso   1.00
H124   H     0.00758   0.08234   0.56585   0.00000  Uiso   1.00
H125   H     0.77759   0.39275   0.25288   0.00000  Uiso   1.00
H126   H     0.92212   0.44305   0.60510   0.00000  Uiso   1.00
H127   H     0.08967   0.81390   0.64325   0.00000  Uiso   1.00
H128   H     0.60474   0.46845   0.98335   0.00000  Uiso   1.00
H129   H     0.90949   0.57454   0.72607   0.00000  Uiso   1.00
O130   O     0.01043   0.57871   0.60119   0.00000  Uiso   1.00
O131   O     0.37422   0.43747   0.73544   0.00000  Uiso   1.00
O132   O     0.77404   0.57665   0.70986   0.00000  Uiso   1.00
N133   N     0.84701   0.70920   0.47382   0.00000  Uiso   1.00
N134   N     0.39364   0.32115   0.85685   0.00000  Uiso   1.00
N135   N     0.67853   0.42036   0.55120   0.00000  Uiso   1.00
N136   N     0.00671   0.80394   0.58363   0.00000  Uiso   1.00
N137   N     0.55333   0.41589   0.96666   0.00000  Uiso   1.00
N138   N     0.83823   0.51510   0.66101   0.00000  Uiso   1.00
C139   C     0.37428   0.64186   0.21564   0.00000  Uiso   1.00
C140   C     0.27426   0.54578   0.13658   0.00000  Uiso   1.00
C141   C     0.27913   0.41221   0.13128   0.00000  Uiso   1.00
C142   C     0.17825   0.34121   0.05327   0.00000  Uiso   1.00
C143   C     0.03848   0.18281   0.94122   0.00000  Uiso   1.00
C144   C     0.39921   0.71442   0.30662   0.00000  Uiso   1.00
C145   C     0.50914   0.72266   0.44430   0.00000  Uiso   1.00
C146   C     0.51345   0.79364   0.50942   0.00000  Uiso   1.00
C147   C     0.56769   0.89712   0.66137   0.00000  Uiso   1.00
C148   C     0.32069   0.74174   0.11525   0.00000  Uiso   1.00
C149   C     0.36460   0.77298   0.09203   0.00000  Uiso   1.00
C150   C     0.30281   0.86699   0.99606   0.00000  Uiso   1.00
C151   C     0.23512   0.01290   0.85087   0.00000  Uiso   1.00
C152   C     0.18649   0.75328   0.08651   0.00000  Uiso   1.00
C153   C     0.17226   0.60630   0.06644   0.00000  Uiso   1.00
C154   C     0.07135   0.53548   0.98841   0.00000  Uiso   1.00
C155   C     0.07606   0.40184   0.98300   0.00000  Uiso   1.00
C156   C     0.29722   0.77493   0.23649   0.00000  Uiso   1.00
C157   C     0.30136   0.84592   0.30143   0.00000  Uiso   1.00
C158   C     0.41126   0.85426   0.43916   0.00000  Uiso   1.00
C159   C     0.21868   0.80225   0.04511   0.00000  Uiso   1.00
C160   C     0.15682   0.89624   0.94916   0.00000  Uiso   1.00
C161   C     0.20062   0.92762   0.92580   0.00000  Uiso   1.00
H162   H     0.45370   0.59475   0.27026   0.00000  Uiso   1.00
H163   H     0.35809   0.36542   0.18558   0.00000  Uiso   1.00
H164   H     0.58806   0.67583   0.49855   0.00000  Uiso   1.00
H165   H     0.44354   0.72613   0.14633   0.00000  Uiso   1.00
H166   H     0.20711   0.13784   0.06082   0.00000  Uiso   1.00
H167   H     0.69204   0.79239   0.72071   0.00000  Uiso   1.00
H168   H     0.38729   0.89848   0.97800   0.00000  Uiso   1.00
H169   H     0.10707   0.80039   0.03191   0.00000  Uiso   1.00
H170   H     0.99242   0.58234   0.93415   0.00000  Uiso   1.00
H171   H     0.22241   0.89275   0.24712   0.00000  Uiso   1.00
H172   H     0.07788   0.94305   0.89490   0.00000  Uiso   1.00
H173   H     0.91033   0.31390   0.85675   0.00000  Uiso   1.00
H174   H     0.39526   0.96845   0.51665   0.00000  Uiso   1.00
H175   H     0.09051   0.07454   0.77393   0.00000  Uiso   1.00
O176   O     0.98957   0.07871   0.89881   0.00000  Uiso   1.00
O177   O     0.62578   0.93747   0.76456   0.00000  Uiso   1.00
O178   O     0.22596   0.07665   0.79014   0.00000  Uiso   1.00
N179   N     0.15299   0.20920   0.02618   0.00000  Uiso   1.00
N180   N     0.60636   0.82115   0.64315   0.00000  Uiso   1.00
N181   N     0.32147   0.92036   0.94880   0.00000  Uiso   1.00
N182   N     0.99329   0.30394   0.91637   0.00000  Uiso   1.00
N183   N     0.44667   0.91589   0.53334   0.00000  Uiso   1.00
N184   N     0.16177   0.01510   0.83899   0.00000  Uiso   1.00
