data_job_06442
_audit_creation_date              2018-12-19
_audit_creation_method            'Materials Studio'
_symmetry_space_group_name_H-M    'P1'
_symmetry_Int_Tables_number       1
_symmetry_cell_setting            triclinic
loop_
_symmetry_equiv_pos_as_xyz
  x,y,z
_cell_length_a                    12.1755
_cell_length_b                    21.1820
_cell_length_c                    21.2210
_cell_angle_alpha                 63.4630
_cell_angle_beta                  79.5070
_cell_angle_gamma                 100.4567
loop_
_atom_site_label
_atom_site_type_symbol
_atom_site_fract_x
_atom_site_fract_y
_atom_site_fract_z
_atom_site_U_iso_or_equiv
_atom_site_adp_type
_atom_site_occupancy
C1     C     0.02039   0.57290   0.26827   0.00000  Uiso   1.00
C2     C     0.95016   0.53215   0.34974   0.00000  Uiso   1.00
C3     C     0.85699   0.54893   0.38060   0.00000  Uiso   1.00
C4     C     0.80427   0.50507   0.45625   0.00000  Uiso   1.00
C5     C     0.68930   0.45073   0.57619   0.00000  Uiso   1.00
C6     C     0.14782   0.59819   0.26503   0.00000  Uiso   1.00
C7     C     0.22085   0.67050   0.22466   0.00000  Uiso   1.00
C8     C     0.33453   0.68223   0.22899   0.00000  Uiso   1.00
C9     C     0.52645   0.73041   0.21738   0.00000  Uiso   1.00
C10    C     0.01258   0.51452   0.24449   0.00000  Uiso   1.00
C11    C     0.97193   0.51648   0.18684   0.00000  Uiso   1.00
C12    C     0.97177   0.45777   0.17386   0.00000  Uiso   1.00
C13    C     0.95372   0.37603   0.13036   0.00000  Uiso   1.00
C14    C     0.09244   0.46516   0.34772   0.00000  Uiso   1.00
C15    C     0.98929   0.47363   0.39289   0.00000  Uiso   1.00
C16    C     0.93670   0.42973   0.46851   0.00000  Uiso   1.00
C17    C     0.84347   0.44644   0.49948   0.00000  Uiso   1.00
C18    C     0.18695   0.53968   0.30818   0.00000  Uiso   1.00
C19    C     0.30055   0.55130   0.31257   0.00000  Uiso   1.00
C20    C     0.37373   0.62361   0.27223   0.00000  Uiso   1.00
C21    C     0.05171   0.45600   0.28764   0.00000  Uiso   1.00
C22    C     0.05163   0.39727   0.27475   0.00000  Uiso   1.00
C23    C     0.01097   0.39914   0.21709   0.00000  Uiso   1.00
H24    H     0.98994   0.61846   0.23467   0.00000  Uiso   1.00
H25    H     0.82674   0.59423   0.34719   0.00000  Uiso   1.00
H26    H     0.19055   0.71578   0.19127   0.00000  Uiso   1.00
H27    H     0.94166   0.56177   0.15346   0.00000  Uiso   1.00
H28    H     0.66309   0.54158   0.49097   0.00000  Uiso   1.00
H29    H     0.43020   0.79786   0.16219   0.00000  Uiso   1.00
H30    H     0.90538   0.47312   0.08244   0.00000  Uiso   1.00
H31    H     0.12291   0.41960   0.38132   0.00000  Uiso   1.00
H32    H     0.96700   0.38445   0.50189   0.00000  Uiso   1.00
H33    H     0.33080   0.50600   0.34597   0.00000  Uiso   1.00
H34    H     0.08191   0.35200   0.30816   0.00000  Uiso   1.00
H35    H     0.77693   0.37131   0.61654   0.00000  Uiso   1.00
H36    H     0.54405   0.62760   0.28775   0.00000  Uiso   1.00
H37    H     0.01922   0.30285   0.20801   0.00000  Uiso   1.00
O38    O     0.61508   0.43693   0.63043   0.00000  Uiso   1.00
O39    O     0.62150   0.77316   0.19906   0.00000  Uiso   1.00
O40    O     0.93293   0.34711   0.09445   0.00000  Uiso   1.00
N41    N     0.71127   0.50632   0.50398   0.00000  Uiso   1.00
N42    N     0.42846   0.74593   0.19659   0.00000  Uiso   1.00
N43    N     0.93782   0.44233   0.12202   0.00000  Uiso   1.00
N44    N     0.77252   0.41470   0.57154   0.00000  Uiso   1.00
N45    N     0.48972   0.65431   0.26415   0.00000  Uiso   1.00
N46    N     0.99908   0.35072   0.18959   0.00000  Uiso   1.00
C47    C     0.44727   0.15926   0.57213   0.00000  Uiso   1.00
C48    C     0.41694   0.11857   0.53082   0.00000  Uiso   1.00
C49    C     0.30806   0.07153   0.54643   0.00000  Uiso   1.00
C50    C     0.29816   0.03966   0.50222   0.00000  Uiso   1.00
C51    C     0.23655   0.97421   0.44688   0.00000  Uiso   1.00
C52    C     0.54953   0.13667   0.59860   0.00000  Uiso   1.00
C53    C     0.55211   0.10485   0.67119   0.00000  Uiso   1.00
C54    C     0.65384   0.08824   0.68404   0.00000  Uiso   1.00
C55    C     0.79809   0.05094   0.73392   0.00000  Uiso   1.00
C56    C     0.49600   0.24109   0.51416   0.00000  Uiso   1.00
C57    C     0.45360   0.29708   0.51576   0.00000  Uiso   1.00
C58    C     0.51028   0.36838   0.45752   0.00000  Uiso   1.00
C59    C     0.57141   0.49320   0.37629   0.00000  Uiso   1.00
C60    C     0.62334   0.18632   0.46586   0.00000  Uiso   1.00
C61    C     0.51258   0.13327   0.47310   0.00000  Uiso   1.00
C62    C     0.50285   0.10147   0.42885   0.00000  Uiso   1.00
C63    C     0.39397   0.05439   0.44439   0.00000  Uiso   1.00
C64    C     0.64516   0.15137   0.54088   0.00000  Uiso   1.00
C65    C     0.74691   0.13480   0.55362   0.00000  Uiso   1.00
C66    C     0.74965   0.10296   0.62622   0.00000  Uiso   1.00
C67    C     0.59163   0.25579   0.45643   0.00000  Uiso   1.00
C68    C     0.64839   0.32702   0.39818   0.00000  Uiso   1.00
C69    C     0.60609   0.38310   0.39969   0.00000  Uiso   1.00
H70    H     0.37282   0.14781   0.61707   0.00000  Uiso   1.00
H71    H     0.23407   0.06016   0.59111   0.00000  Uiso   1.00
H72    H     0.47810   0.09349   0.71585   0.00000  Uiso   1.00
H73    H     0.37959   0.28568   0.56044   0.00000  Uiso   1.00
H74    H     0.12242   0.96944   0.53688   0.00000  Uiso   1.00
H75    H     0.63698   0.03974   0.79991   0.00000  Uiso   1.00
H76    H     0.42927   0.44501   0.47219   0.00000  Uiso   1.00
H77    H     0.69780   0.19777   0.42092   0.00000  Uiso   1.00
H78    H     0.57688   0.11286   0.38419   0.00000  Uiso   1.00
H79    H     0.82090   0.14619   0.50894   0.00000  Uiso   1.00
H80    H     0.72240   0.33837   0.35352   0.00000  Uiso   1.00
H81    H     0.40066   0.01220   0.36894   0.00000  Uiso   1.00
H82    H     0.91522   0.08251   0.63197   0.00000  Uiso   1.00
H83    H     0.70750   0.48778   0.30425   0.00000  Uiso   1.00
O84    O     0.17614   0.93404   0.43230   0.00000  Uiso   1.00
O85    O     0.85122   0.02629   0.77738   0.00000  Uiso   1.00
O86    O     0.57871   0.55799   0.34742   0.00000  Uiso   1.00
N87    N     0.20450   0.99117   0.50239   0.00000  Uiso   1.00
N88    N     0.68557   0.05689   0.74831   0.00000  Uiso   1.00
N89    N     0.49140   0.43578   0.44192   0.00000  Uiso   1.00
N90    N     0.35421   0.01418   0.41202   0.00000  Uiso   1.00
N91    N     0.83528   0.07990   0.65794   0.00000  Uiso   1.00
N92    N     0.64111   0.45880   0.35156   0.00000  Uiso   1.00
C93    C     0.28800   0.26892   0.15855   0.00000  Uiso   1.00
C94    C     0.29719   0.35086   0.11791   0.00000  Uiso   1.00
C95    C     0.23444   0.38256   0.07005   0.00000  Uiso   1.00
C96    C     0.25541   0.45852   0.03839   0.00000  Uiso   1.00
C97    C     0.25743   0.57926   0.97287   0.00000  Uiso   1.00
C98    C     0.41162   0.26430   0.13718   0.00000  Uiso   1.00
C99    C     0.44507   0.22321   0.10553   0.00000  Uiso   1.00
C100   C     0.56237   0.22628   0.09010   0.00000  Uiso   1.00
C101   C     0.74202   0.21259   0.05455   0.00000  Uiso   1.00
C102   C     0.25718   0.24542   0.24036   0.00000  Uiso   1.00
C103   C     0.16079   0.18845   0.29547   0.00000  Uiso   1.00
C104   C     0.14807   0.17562   0.36692   0.00000  Uiso   1.00
C105   C     0.08794   0.13263   0.49156   0.00000  Uiso   1.00
C106   C     0.43682   0.34744   0.18746   0.00000  Uiso   1.00
C107   C     0.37803   0.39351   0.13361   0.00000  Uiso   1.00
C108   C     0.39909   0.46943   0.10203   0.00000  Uiso   1.00
C109   C     0.33638   0.50124   0.05412   0.00000  Uiso   1.00
C110   C     0.49245   0.30694   0.15288   0.00000  Uiso   1.00
C111   C     0.60972   0.31007   0.13751   0.00000  Uiso   1.00
C112   C     0.64335   0.26900   0.10583   0.00000  Uiso   1.00
C113   C     0.33801   0.28807   0.25606   0.00000  Uiso   1.00
C114   C     0.32544   0.27532   0.32744   0.00000  Uiso   1.00
C115   C     0.22905   0.21835   0.38264   0.00000  Uiso   1.00
H116   H     0.22507   0.23572   0.14633   0.00000  Uiso   1.00
H117   H     0.17190   0.34954   0.05791   0.00000  Uiso   1.00
H118   H     0.38250   0.19020   0.09339   0.00000  Uiso   1.00
H119   H     0.09826   0.15546   0.28330   0.00000  Uiso   1.00
H120   H     0.14863   0.49455   0.96678   0.00000  Uiso   1.00
H121   H     0.59267   0.15855   0.04162   0.00000  Uiso   1.00
H122   H     0.99331   0.08528   0.44207   0.00000  Uiso   1.00
H123   H     0.49975   0.38064   0.19968   0.00000  Uiso   1.00
H124   H     0.46165   0.50242   0.11419   0.00000  Uiso   1.00
H125   H     0.67225   0.34308   0.14967   0.00000  Uiso   1.00
H126   H     0.38801   0.30833   0.33957   0.00000  Uiso   1.00
H127   H     0.38380   0.61863   0.01245   0.00000  Uiso   1.00
H128   H     0.82785   0.28263   0.08730   0.00000  Uiso   1.00
H129   H     0.22848   0.20936   0.48775   0.00000  Uiso   1.00
O130   O     0.23622   0.63408   0.93239   0.00000  Uiso   1.00
O131   O     0.81879   0.19326   0.03059   0.00000  Uiso   1.00
O132   O     0.03243   0.09714   0.55598   0.00000  Uiso   1.00
N133   N     0.20919   0.50703   0.98927   0.00000  Uiso   1.00
N134   N     0.62435   0.19291   0.05923   0.00000  Uiso   1.00
N135   N     0.06401   0.12439   0.43363   0.00000  Uiso   1.00
N136   N     0.33573   0.57380   0.01385   0.00000  Uiso   1.00
N137   N     0.75089   0.25967   0.08381   0.00000  Uiso   1.00
N138   N     0.19055   0.19116   0.45820   0.00000  Uiso   1.00
C139   C     0.52039   0.73174   0.42714   0.00000  Uiso   1.00
C140   C     0.45015   0.65013   0.46789   0.00000  Uiso   1.00
C141   C     0.35697   0.61919   0.45120   0.00000  Uiso   1.00
C142   C     0.30424   0.54343   0.49505   0.00000  Uiso   1.00
C143   C     0.18926   0.42329   0.54942   0.00000  Uiso   1.00
C144   C     0.64782   0.73493   0.40188   0.00000  Uiso   1.00
C145   C     0.72084   0.77530   0.32968   0.00000  Uiso   1.00
C146   C     0.83451   0.77093   0.31797   0.00000  Uiso   1.00
C147   C     0.02643   0.78248   0.26985   0.00000  Uiso   1.00
C148   C     0.51260   0.75564   0.48536   0.00000  Uiso   1.00
C149   C     0.47196   0.81343   0.48335   0.00000  Uiso   1.00
C150   C     0.47182   0.82650   0.54191   0.00000  Uiso   1.00
C151   C     0.45379   0.87020   0.62341   0.00000  Uiso   1.00
C152   C     0.59244   0.65220   0.53470   0.00000  Uiso   1.00
C153   C     0.48929   0.60693   0.52632   0.00000  Uiso   1.00
C154   C     0.43668   0.53120   0.57021   0.00000  Uiso   1.00
C155   C     0.34344   0.50015   0.55358   0.00000  Uiso   1.00
C156   C     0.68695   0.69173   0.46030   0.00000  Uiso   1.00
C157   C     0.80055   0.68730   0.44869   0.00000  Uiso   1.00
C158   C     0.87372   0.72765   0.37649   0.00000  Uiso   1.00
C159   C     0.55173   0.71244   0.54379   0.00000  Uiso   1.00
C160   C     0.55166   0.72543   0.60236   0.00000  Uiso   1.00
C161   C     0.51102   0.78322   0.60044   0.00000  Uiso   1.00
H162   H     0.48993   0.76537   0.38165   0.00000  Uiso   1.00
H163   H     0.32672   0.65264   0.40598   0.00000  Uiso   1.00
H164   H     0.69053   0.80873   0.28448   0.00000  Uiso   1.00
H165   H     0.44168   0.84685   0.43813   0.00000  Uiso   1.00
H166   H     0.16305   0.50861   0.45870   0.00000  Uiso   1.00
H167   H     0.93018   0.83775   0.20252   0.00000  Uiso   1.00
H168   H     0.40544   0.91813   0.52651   0.00000  Uiso   1.00
H169   H     0.62291   0.61857   0.58019   0.00000  Uiso   1.00
H170   H     0.46699   0.49778   0.61541   0.00000  Uiso   1.00
H171   H     0.83080   0.65387   0.49391   0.00000  Uiso   1.00
H172   H     0.58195   0.69198   0.64756   0.00000  Uiso   1.00
H173   H     0.27690   0.38291   0.62868   0.00000  Uiso   1.00
H174   H     0.04403   0.71206   0.37250   0.00000  Uiso   1.00
H175   H     0.51929   0.79243   0.69649   0.00000  Uiso   1.00
O176   O     0.11503   0.36895   0.56326   0.00000  Uiso   1.00
O177   O     0.12147   0.80078   0.22717   0.00000  Uiso   1.00
O178   O     0.43302   0.90623   0.65223   0.00000  Uiso   1.00
N179   N     0.21123   0.49561   0.49388   0.00000  Uiso   1.00
N180   N     0.92844   0.80332   0.25436   0.00000  Uiso   1.00
N181   N     0.43788   0.87848   0.55726   0.00000  Uiso   1.00
N182   N     0.27249   0.42797   0.58534   0.00000  Uiso   1.00
N183   N     0.98970   0.73569   0.34583   0.00000  Uiso   1.00
N184   N     0.49914   0.81085   0.64872   0.00000  Uiso   1.00
C185   C     0.94724   0.42786   0.84075   0.00000  Uiso   1.00
C186   C     0.91694   0.46932   0.88130   0.00000  Uiso   1.00
C187   C     0.80805   0.45374   0.92827   0.00000  Uiso   1.00
C188   C     0.79818   0.49809   0.96002   0.00000  Uiso   1.00
C189   C     0.73659   0.55364   0.02527   0.00000  Uiso   1.00
C190   C     0.04950   0.40134   0.86330   0.00000  Uiso   1.00
C191   C     0.05208   0.32860   0.89511   0.00000  Uiso   1.00
C192   C     0.15380   0.31573   0.91169   0.00000  Uiso   1.00
C193   C     0.29805   0.26575   0.94893   0.00000  Uiso   1.00
C194   C     0.99597   0.48587   0.75904   0.00000  Uiso   1.00
C195   C     0.95356   0.48421   0.70319   0.00000  Uiso   1.00
C196   C     0.01023   0.54251   0.63198   0.00000  Uiso   1.00
C197   C     0.07136   0.62378   0.50735   0.00000  Uiso   1.00
C198   C     0.12333   0.53432   0.81360   0.00000  Uiso   1.00
C199   C     0.01258   0.52714   0.86656   0.00000  Uiso   1.00
C200   C     0.00287   0.57153   0.89824   0.00000  Uiso   1.00
C201   C     0.89399   0.55602   0.94524   0.00000  Uiso   1.00
C202   C     0.14514   0.45915   0.84855   0.00000  Uiso   1.00
C203   C     0.24689   0.44639   0.86508   0.00000  Uiso   1.00
C204   C     0.24962   0.37365   0.89692   0.00000  Uiso   1.00
C205   C     0.09161   0.54370   0.74429   0.00000  Uiso   1.00
C206   C     0.14837   0.60200   0.67316   0.00000  Uiso   1.00
C207   C     0.10605   0.60043   0.61721   0.00000  Uiso   1.00
H208   H     0.87279   0.38284   0.85223   0.00000  Uiso   1.00
H209   H     0.73406   0.40898   0.93968   0.00000  Uiso   1.00
H210   H     0.97805   0.28387   0.90651   0.00000  Uiso   1.00
H211   H     0.87954   0.43946   0.71462   0.00000  Uiso   1.00
H212   H     0.62245   0.46345   0.03015   0.00000  Uiso   1.00
H213   H     0.13693   0.19964   0.96020   0.00000  Uiso   1.00
H214   H     0.92920   0.52773   0.55556   0.00000  Uiso   1.00
H215   H     0.19780   0.57933   0.80212   0.00000  Uiso   1.00
H216   H     0.07690   0.61627   0.88681   0.00000  Uiso   1.00
H217   H     0.32089   0.49115   0.85365   0.00000  Uiso   1.00
H218   H     0.22238   0.64674   0.66177   0.00000  Uiso   1.00
H219   H     0.90071   0.63169   0.98725   0.00000  Uiso   1.00
H220   H     0.41519   0.36788   0.91729   0.00000  Uiso   1.00
H221   H     0.20746   0.69597   0.51266   0.00000  Uiso   1.00
O222   O     0.67620   0.56831   0.06534   0.00000  Uiso   1.00
O223   O     0.35118   0.22220   0.97355   0.00000  Uiso   1.00
O224   O     0.07864   0.65264   0.44268   0.00000  Uiso   1.00
N225   N     0.70452   0.49799   0.00841   0.00000  Uiso   1.00
N226   N     0.18552   0.25134   0.94303   0.00000  Uiso   1.00
N227   N     0.99134   0.55807   0.56472   0.00000  Uiso   1.00
N228   N     0.85425   0.58852   0.98533   0.00000  Uiso   1.00
N229   N     0.33525   0.34187   0.91994   0.00000  Uiso   1.00
N230   N     0.14107   0.64859   0.54164   0.00000  Uiso   1.00
C231   C     0.78802   0.84149   0.73107   0.00000  Uiso   1.00
C232   C     0.79721   0.88213   0.64928   0.00000  Uiso   1.00
C233   C     0.73446   0.93009   0.61761   0.00000  Uiso   1.00
C234   C     0.75542   0.96173   0.54179   0.00000  Uiso   1.00
C235   C     0.75743   0.02727   0.42126   0.00000  Uiso   1.00
C236   C     0.91165   0.86289   0.73564   0.00000  Uiso   1.00
C237   C     0.94512   0.89466   0.77659   0.00000  Uiso   1.00
C238   C     0.06242   0.91009   0.77348   0.00000  Uiso   1.00
C239   C     0.24208   0.94571   0.78707   0.00000  Uiso   1.00
C240   C     0.75719   0.75952   0.75461   0.00000  Uiso   1.00
C241   C     0.66081   0.70436   0.81152   0.00000  Uiso   1.00
C242   C     0.64807   0.63276   0.82440   0.00000  Uiso   1.00
C243   C     0.58792   0.50788   0.86744   0.00000  Uiso   1.00
C244   C     0.93682   0.81240   0.65274   0.00000  Uiso   1.00
C245   C     0.87803   0.86633   0.60674   0.00000  Uiso   1.00
C246   C     0.89908   0.89791   0.53095   0.00000  Uiso   1.00
C247   C     0.83638   0.94590   0.49917   0.00000  Uiso   1.00
C248   C     0.99247   0.84709   0.69310   0.00000  Uiso   1.00
C249   C     0.10974   0.86248   0.68993   0.00000  Uiso   1.00
C250   C     0.14338   0.89427   0.73086   0.00000  Uiso   1.00
C251   C     0.83801   0.74372   0.71207   0.00000  Uiso   1.00
C252   C     0.82543   0.67219   0.72486   0.00000  Uiso   1.00
C253   C     0.72904   0.61694   0.78178   0.00000  Uiso   1.00
H254   H     0.72511   0.85379   0.76419   0.00000  Uiso   1.00
H255   H     0.67193   0.94230   0.65055   0.00000  Uiso   1.00
H256   H     0.88256   0.90687   0.80952   0.00000  Uiso   1.00
H257   H     0.59829   0.71661   0.84443   0.00000  Uiso   1.00
H258   H     0.64865   0.03349   0.50579   0.00000  Uiso   1.00
H259   H     0.09275   0.95876   0.84100   0.00000  Uiso   1.00
H260   H     0.49331   0.55755   0.91464   0.00000  Uiso   1.00
H261   H     0.99974   0.80010   0.61962   0.00000  Uiso   1.00
H262   H     0.96163   0.88567   0.49804   0.00000  Uiso   1.00
H263   H     0.17226   0.85024   0.65701   0.00000  Uiso   1.00
H264   H     0.88799   0.65998   0.69193   0.00000  Uiso   1.00
H265   H     0.88378   0.98753   0.38201   0.00000  Uiso   1.00
H266   H     0.32789   0.91280   0.71722   0.00000  Uiso   1.00
H267   H     0.72845   0.51159   0.79086   0.00000  Uiso   1.00
O268   O     0.73622   0.06779   0.36653   0.00000  Uiso   1.00
O269   O     0.31886   0.96973   0.80632   0.00000  Uiso   1.00
O270   O     0.53240   0.44336   0.90293   0.00000  Uiso   1.00
N271   N     0.70920   0.01092   0.49335   0.00000  Uiso   1.00
N272   N     0.12442   0.94106   0.80673   0.00000  Uiso   1.00
N273   N     0.56400   0.56597   0.87560   0.00000  Uiso   1.00
N274   N     0.83572   0.98619   0.42674   0.00000  Uiso   1.00
N275   N     0.25094   0.91633   0.74013   0.00000  Uiso   1.00
N276   N     0.69053   0.54123   0.80899   0.00000  Uiso   1.00
