data_job_01654
_audit_creation_date              2018-12-19
_audit_creation_method            'Materials Studio'
_symmetry_space_group_name_H-M    'P1'
_symmetry_Int_Tables_number       1
_symmetry_cell_setting            triclinic
loop_
_symmetry_equiv_pos_as_xyz
  x,y,z
_cell_length_a                    17.5030
_cell_length_b                    38.7343
_cell_length_c                    8.2908
_cell_angle_alpha                 90.0000
_cell_angle_beta                  90.0000
_cell_angle_gamma                 90.0000
loop_
_atom_site_label
_atom_site_type_symbol
_atom_site_fract_x
_atom_site_fract_y
_atom_site_fract_z
_atom_site_U_iso_or_equiv
_atom_site_adp_type
_atom_site_occupancy
C1     C     0.24222   0.60306   0.98101   0.00000  Uiso   1.00
C2     C     0.27906   0.56994   0.04298   0.00000  Uiso   1.00
C3     C     0.32709   0.54847   0.95539   0.00000  Uiso   1.00
C4     C     0.35490   0.51939   0.03374   0.00000  Uiso   1.00
C5     C     0.41504   0.46907   0.10557   0.00000  Uiso   1.00
C6     C     0.15640   0.59853   0.00467   0.00000  Uiso   1.00
C7     C     0.10131   0.60109   0.88487   0.00000  Uiso   1.00
C8     C     0.02587   0.59608   0.93098   0.00000  Uiso   1.00
C9     C     0.89559   0.59015   0.94335   0.00000  Uiso   1.00
C10    C     0.26649   0.63149   0.09746   0.00000  Uiso   1.00
C11    C     0.30395   0.66178   0.05569   0.00000  Uiso   1.00
C12    C     0.32117   0.68452   0.17993   0.00000  Uiso   1.00
C13    C     0.36182   0.72978   0.33638   0.00000  Uiso   1.00
C14    C     0.20618   0.58960   0.27591   0.00000  Uiso   1.00
C15    C     0.25948   0.56263   0.20316   0.00000  Uiso   1.00
C16    C     0.28722   0.53358   0.28166   0.00000  Uiso   1.00
C17    C     0.33529   0.51207   0.19421   0.00000  Uiso   1.00
C18    C     0.13683   0.59121   0.16484   0.00000  Uiso   1.00
C19    C     0.06144   0.58620   0.21114   0.00000  Uiso   1.00
C20    C     0.00626   0.58875   0.09144   0.00000  Uiso   1.00
C21    C     0.24692   0.62418   0.25764   0.00000  Uiso   1.00
C22    C     0.26408   0.64688   0.38197   0.00000  Uiso   1.00
C23    C     0.30156   0.67720   0.34039   0.00000  Uiso   1.00
H24    H     0.25745   0.60876   0.85630   0.00000  Uiso   1.00
H25    H     0.34222   0.55414   0.83143   0.00000  Uiso   1.00
H26    H     0.11648   0.60675   0.76092   0.00000  Uiso   1.00
H27    H     0.31908   0.66743   0.93172   0.00000  Uiso   1.00
H28    H     0.42755   0.49035   0.87447   0.00000  Uiso   1.00
H29    H     0.95155   0.60131   0.72582   0.00000  Uiso   1.00
H30    H     0.37879   0.72925   0.08598   0.00000  Uiso   1.00
H31    H     0.19094   0.58391   0.40062   0.00000  Uiso   1.00
H32    H     0.27206   0.52793   0.40562   0.00000  Uiso   1.00
H33    H     0.04632   0.58054   0.33511   0.00000  Uiso   1.00
H34    H     0.24892   0.64122   0.50591   0.00000  Uiso   1.00
H35    H     0.37060   0.46908   0.34050   0.00000  Uiso   1.00
H36    H     0.89461   0.58003   0.19185   0.00000  Uiso   1.00
H37    H     0.32184   0.70798   0.55201   0.00000  Uiso   1.00
O38    O     0.45362   0.44333   0.10094   0.00000  Uiso   1.00
O39    O     0.82914   0.58890   0.90592   0.00000  Uiso   1.00
O40    O     0.38966   0.75676   0.37843   0.00000  Uiso   1.00
N41    N     0.40303   0.49303   0.98348   0.00000  Uiso   1.00
N42    N     0.95800   0.59676   0.84449   0.00000  Uiso   1.00
N43    N     0.35741   0.71639   0.18120   0.00000  Uiso   1.00
N44    N     0.37238   0.48158   0.23425   0.00000  Uiso   1.00
N45    N     0.92736   0.58531   0.09526   0.00000  Uiso   1.00
N46    N     0.32677   0.70494   0.43197   0.00000  Uiso   1.00
C47    C     0.25778   0.39694   0.48101   0.00000  Uiso   1.00
C48    C     0.22094   0.43006   0.54298   0.00000  Uiso   1.00
C49    C     0.17291   0.45153   0.45539   0.00000  Uiso   1.00
C50    C     0.14510   0.48061   0.53374   0.00000  Uiso   1.00
C51    C     0.08496   0.53093   0.60557   0.00000  Uiso   1.00
C52    C     0.34360   0.40147   0.50467   0.00000  Uiso   1.00
C53    C     0.39869   0.39891   0.38487   0.00000  Uiso   1.00
C54    C     0.47413   0.40392   0.43098   0.00000  Uiso   1.00
C55    C     0.60441   0.40985   0.44335   0.00000  Uiso   1.00
C56    C     0.23351   0.36851   0.59746   0.00000  Uiso   1.00
C57    C     0.19605   0.33822   0.55569   0.00000  Uiso   1.00
C58    C     0.17883   0.31548   0.67993   0.00000  Uiso   1.00
C59    C     0.13818   0.27022   0.83638   0.00000  Uiso   1.00
C60    C     0.29382   0.41040   0.77591   0.00000  Uiso   1.00
C61    C     0.24052   0.43737   0.70316   0.00000  Uiso   1.00
C62    C     0.21278   0.46642   0.78166   0.00000  Uiso   1.00
C63    C     0.16471   0.48793   0.69421   0.00000  Uiso   1.00
C64    C     0.36317   0.40879   0.66484   0.00000  Uiso   1.00
C65    C     0.43856   0.41380   0.71114   0.00000  Uiso   1.00
C66    C     0.49374   0.41125   0.59144   0.00000  Uiso   1.00
C67    C     0.25308   0.37582   0.75764   0.00000  Uiso   1.00
C68    C     0.23592   0.35312   0.88197   0.00000  Uiso   1.00
C69    C     0.19844   0.32280   0.84039   0.00000  Uiso   1.00
H70    H     0.24255   0.39124   0.35630   0.00000  Uiso   1.00
H71    H     0.15778   0.44586   0.33143   0.00000  Uiso   1.00
H72    H     0.38352   0.39325   0.26092   0.00000  Uiso   1.00
H73    H     0.18092   0.33257   0.43172   0.00000  Uiso   1.00
H74    H     0.07245   0.50965   0.37447   0.00000  Uiso   1.00
H75    H     0.54845   0.39869   0.22582   0.00000  Uiso   1.00
H76    H     0.12121   0.27075   0.58598   0.00000  Uiso   1.00
H77    H     0.30906   0.41609   0.90062   0.00000  Uiso   1.00
H78    H     0.22794   0.47207   0.90562   0.00000  Uiso   1.00
H79    H     0.45368   0.41946   0.83511   0.00000  Uiso   1.00
H80    H     0.25108   0.35878   0.00591   0.00000  Uiso   1.00
H81    H     0.12940   0.53092   0.84050   0.00000  Uiso   1.00
H82    H     0.60539   0.41997   0.69185   0.00000  Uiso   1.00
H83    H     0.17816   0.29202   0.05201   0.00000  Uiso   1.00
O84    O     0.04638   0.55667   0.60094   0.00000  Uiso   1.00
O85    O     0.67086   0.41110   0.40592   0.00000  Uiso   1.00
O86    O     0.11034   0.24324   0.87843   0.00000  Uiso   1.00
N87    N     0.09697   0.50697   0.48348   0.00000  Uiso   1.00
N88    N     0.54200   0.40324   0.34449   0.00000  Uiso   1.00
N89    N     0.14259   0.28361   0.68120   0.00000  Uiso   1.00
N90    N     0.12762   0.51842   0.73425   0.00000  Uiso   1.00
N91    N     0.57264   0.41469   0.59526   0.00000  Uiso   1.00
N92    N     0.17323   0.29506   0.93197   0.00000  Uiso   1.00
C93    C     0.75778   0.10306   0.51899   0.00000  Uiso   1.00
C94    C     0.72094   0.06994   0.45702   0.00000  Uiso   1.00
C95    C     0.67291   0.04847   0.54461   0.00000  Uiso   1.00
C96    C     0.64510   0.01939   0.46626   0.00000  Uiso   1.00
C97    C     0.58496   0.96907   0.39443   0.00000  Uiso   1.00
C98    C     0.84360   0.09853   0.49533   0.00000  Uiso   1.00
C99    C     0.89869   0.10109   0.61513   0.00000  Uiso   1.00
C100   C     0.97413   0.09608   0.56902   0.00000  Uiso   1.00
C101   C     0.10441   0.09015   0.55665   0.00000  Uiso   1.00
C102   C     0.73351   0.13149   0.40254   0.00000  Uiso   1.00
C103   C     0.69605   0.16178   0.44431   0.00000  Uiso   1.00
C104   C     0.67883   0.18452   0.32007   0.00000  Uiso   1.00
C105   C     0.63818   0.22978   0.16362   0.00000  Uiso   1.00
C106   C     0.79382   0.08960   0.22409   0.00000  Uiso   1.00
C107   C     0.74052   0.06263   0.29684   0.00000  Uiso   1.00
C108   C     0.71278   0.03358   0.21834   0.00000  Uiso   1.00
C109   C     0.66471   0.01207   0.30579   0.00000  Uiso   1.00
C110   C     0.86317   0.09121   0.33516   0.00000  Uiso   1.00
C111   C     0.93856   0.08620   0.28886   0.00000  Uiso   1.00
C112   C     0.99374   0.08875   0.40856   0.00000  Uiso   1.00
C113   C     0.75308   0.12418   0.24236   0.00000  Uiso   1.00
C114   C     0.73592   0.14688   0.11803   0.00000  Uiso   1.00
C115   C     0.69844   0.17720   0.15961   0.00000  Uiso   1.00
H116   H     0.74255   0.10876   0.64370   0.00000  Uiso   1.00
H117   H     0.65778   0.05414   0.66857   0.00000  Uiso   1.00
H118   H     0.88352   0.10675   0.73908   0.00000  Uiso   1.00
H119   H     0.68092   0.16743   0.56828   0.00000  Uiso   1.00
H120   H     0.57245   0.99035   0.62553   0.00000  Uiso   1.00
H121   H     0.04845   0.10131   0.77418   0.00000  Uiso   1.00
H122   H     0.62121   0.22925   0.41402   0.00000  Uiso   1.00
H123   H     0.80906   0.08391   0.09938   0.00000  Uiso   1.00
H124   H     0.72794   0.02793   0.09438   0.00000  Uiso   1.00
H125   H     0.95368   0.08054   0.16489   0.00000  Uiso   1.00
H126   H     0.75108   0.14122   0.99409   0.00000  Uiso   1.00
H127   H     0.62940   0.96908   0.15950   0.00000  Uiso   1.00
H128   H     0.10539   0.08003   0.30815   0.00000  Uiso   1.00
H129   H     0.67816   0.20798   0.94799   0.00000  Uiso   1.00
O130   O     0.54638   0.94333   0.39906   0.00000  Uiso   1.00
O131   O     0.17086   0.08890   0.59408   0.00000  Uiso   1.00
O132   O     0.61034   0.25676   0.12157   0.00000  Uiso   1.00
N133   N     0.59697   0.99303   0.51652   0.00000  Uiso   1.00
N134   N     0.04200   0.09676   0.65551   0.00000  Uiso   1.00
N135   N     0.64259   0.21639   0.31880   0.00000  Uiso   1.00
N136   N     0.62762   0.98158   0.26575   0.00000  Uiso   1.00
N137   N     0.07264   0.08531   0.40474   0.00000  Uiso   1.00
N138   N     0.67323   0.20494   0.06803   0.00000  Uiso   1.00
C139   C     0.74222   0.89694   0.01899   0.00000  Uiso   1.00
C140   C     0.77906   0.93006   0.95702   0.00000  Uiso   1.00
C141   C     0.82709   0.95153   0.04461   0.00000  Uiso   1.00
C142   C     0.85490   0.98061   0.96626   0.00000  Uiso   1.00
C143   C     0.91504   0.03093   0.89443   0.00000  Uiso   1.00
C144   C     0.65640   0.90147   0.99533   0.00000  Uiso   1.00
C145   C     0.60131   0.89891   0.11513   0.00000  Uiso   1.00
C146   C     0.52587   0.90392   0.06902   0.00000  Uiso   1.00
C147   C     0.39559   0.90985   0.05665   0.00000  Uiso   1.00
C148   C     0.76649   0.86851   0.90254   0.00000  Uiso   1.00
C149   C     0.80395   0.83822   0.94431   0.00000  Uiso   1.00
C150   C     0.82117   0.81548   0.82007   0.00000  Uiso   1.00
C151   C     0.86182   0.77022   0.66362   0.00000  Uiso   1.00
C152   C     0.70618   0.91040   0.72409   0.00000  Uiso   1.00
C153   C     0.75948   0.93737   0.79684   0.00000  Uiso   1.00
C154   C     0.78722   0.96642   0.71834   0.00000  Uiso   1.00
C155   C     0.83529   0.98793   0.80579   0.00000  Uiso   1.00
C156   C     0.63683   0.90879   0.83516   0.00000  Uiso   1.00
C157   C     0.56144   0.91380   0.78886   0.00000  Uiso   1.00
C158   C     0.50626   0.91125   0.90856   0.00000  Uiso   1.00
C159   C     0.74692   0.87582   0.74236   0.00000  Uiso   1.00
C160   C     0.76408   0.85312   0.61803   0.00000  Uiso   1.00
C161   C     0.80156   0.82280   0.65961   0.00000  Uiso   1.00
H162   H     0.75745   0.89124   0.14370   0.00000  Uiso   1.00
H163   H     0.84222   0.94586   0.16857   0.00000  Uiso   1.00
H164   H     0.61648   0.89325   0.23908   0.00000  Uiso   1.00
H165   H     0.81908   0.83257   0.06828   0.00000  Uiso   1.00
H166   H     0.92755   0.00965   0.12553   0.00000  Uiso   1.00
H167   H     0.45155   0.89869   0.27418   0.00000  Uiso   1.00
H168   H     0.87879   0.77075   0.91402   0.00000  Uiso   1.00
H169   H     0.69094   0.91609   0.59938   0.00000  Uiso   1.00
H170   H     0.77206   0.97207   0.59438   0.00000  Uiso   1.00
H171   H     0.54632   0.91946   0.66489   0.00000  Uiso   1.00
H172   H     0.74892   0.85878   0.49409   0.00000  Uiso   1.00
H173   H     0.87060   0.03092   0.65950   0.00000  Uiso   1.00
H174   H     0.39461   0.91997   0.80815   0.00000  Uiso   1.00
H175   H     0.82184   0.79202   0.44799   0.00000  Uiso   1.00
O176   O     0.95362   0.05667   0.89906   0.00000  Uiso   1.00
O177   O     0.32914   0.91110   0.09408   0.00000  Uiso   1.00
O178   O     0.88966   0.74324   0.62157   0.00000  Uiso   1.00
N179   N     0.90303   0.00697   0.01652   0.00000  Uiso   1.00
N180   N     0.45800   0.90324   0.15551   0.00000  Uiso   1.00
N181   N     0.85741   0.78361   0.81880   0.00000  Uiso   1.00
N182   N     0.87238   0.01842   0.76575   0.00000  Uiso   1.00
N183   N     0.42736   0.91469   0.90474   0.00000  Uiso   1.00
N184   N     0.82677   0.79506   0.56803   0.00000  Uiso   1.00
C185   C     0.75778   0.39694   0.01899   0.00000  Uiso   1.00
C186   C     0.72094   0.43006   0.95702   0.00000  Uiso   1.00
C187   C     0.67291   0.45153   0.04461   0.00000  Uiso   1.00
C188   C     0.64510   0.48061   0.96626   0.00000  Uiso   1.00
C189   C     0.58496   0.53093   0.89443   0.00000  Uiso   1.00
C190   C     0.84360   0.40147   0.99533   0.00000  Uiso   1.00
C191   C     0.89869   0.39891   0.11513   0.00000  Uiso   1.00
C192   C     0.97413   0.40392   0.06902   0.00000  Uiso   1.00
C193   C     0.10441   0.40985   0.05665   0.00000  Uiso   1.00
C194   C     0.73351   0.36851   0.90254   0.00000  Uiso   1.00
C195   C     0.69605   0.33822   0.94431   0.00000  Uiso   1.00
C196   C     0.67883   0.31548   0.82007   0.00000  Uiso   1.00
C197   C     0.63818   0.27022   0.66362   0.00000  Uiso   1.00
C198   C     0.79382   0.41040   0.72409   0.00000  Uiso   1.00
C199   C     0.74052   0.43737   0.79684   0.00000  Uiso   1.00
C200   C     0.71278   0.46642   0.71834   0.00000  Uiso   1.00
C201   C     0.66471   0.48793   0.80579   0.00000  Uiso   1.00
C202   C     0.86317   0.40879   0.83516   0.00000  Uiso   1.00
C203   C     0.93856   0.41380   0.78886   0.00000  Uiso   1.00
C204   C     0.99374   0.41125   0.90856   0.00000  Uiso   1.00
C205   C     0.75308   0.37582   0.74236   0.00000  Uiso   1.00
C206   C     0.73592   0.35312   0.61803   0.00000  Uiso   1.00
C207   C     0.69844   0.32280   0.65961   0.00000  Uiso   1.00
H208   H     0.74255   0.39124   0.14370   0.00000  Uiso   1.00
H209   H     0.65778   0.44586   0.16857   0.00000  Uiso   1.00
H210   H     0.88352   0.39325   0.23908   0.00000  Uiso   1.00
H211   H     0.68092   0.33257   0.06828   0.00000  Uiso   1.00
H212   H     0.57245   0.50965   0.12553   0.00000  Uiso   1.00
H213   H     0.04845   0.39869   0.27418   0.00000  Uiso   1.00
H214   H     0.62121   0.27075   0.91402   0.00000  Uiso   1.00
H215   H     0.80906   0.41609   0.59938   0.00000  Uiso   1.00
H216   H     0.72794   0.47207   0.59438   0.00000  Uiso   1.00
H217   H     0.95368   0.41946   0.66489   0.00000  Uiso   1.00
H218   H     0.75108   0.35878   0.49409   0.00000  Uiso   1.00
H219   H     0.62940   0.53092   0.65950   0.00000  Uiso   1.00
H220   H     0.10539   0.41997   0.80815   0.00000  Uiso   1.00
H221   H     0.67816   0.29202   0.44799   0.00000  Uiso   1.00
O222   O     0.54638   0.55667   0.89906   0.00000  Uiso   1.00
O223   O     0.17086   0.41110   0.09408   0.00000  Uiso   1.00
O224   O     0.61034   0.24324   0.62157   0.00000  Uiso   1.00
N225   N     0.59697   0.50697   0.01652   0.00000  Uiso   1.00
N226   N     0.04200   0.40324   0.15551   0.00000  Uiso   1.00
N227   N     0.64259   0.28361   0.81880   0.00000  Uiso   1.00
N228   N     0.62762   0.51842   0.76575   0.00000  Uiso   1.00
N229   N     0.07264   0.41469   0.90474   0.00000  Uiso   1.00
N230   N     0.67323   0.29506   0.56803   0.00000  Uiso   1.00
C231   C     0.74222   0.60306   0.51899   0.00000  Uiso   1.00
C232   C     0.77906   0.56994   0.45702   0.00000  Uiso   1.00
C233   C     0.82709   0.54847   0.54461   0.00000  Uiso   1.00
C234   C     0.85490   0.51939   0.46626   0.00000  Uiso   1.00
C235   C     0.91504   0.46907   0.39443   0.00000  Uiso   1.00
C236   C     0.65640   0.59853   0.49533   0.00000  Uiso   1.00
C237   C     0.60131   0.60109   0.61513   0.00000  Uiso   1.00
C238   C     0.52587   0.59608   0.56902   0.00000  Uiso   1.00
C239   C     0.39559   0.59015   0.55665   0.00000  Uiso   1.00
C240   C     0.76649   0.63149   0.40254   0.00000  Uiso   1.00
C241   C     0.80395   0.66178   0.44431   0.00000  Uiso   1.00
C242   C     0.82117   0.68452   0.32007   0.00000  Uiso   1.00
C243   C     0.86182   0.72978   0.16362   0.00000  Uiso   1.00
C244   C     0.70618   0.58960   0.22409   0.00000  Uiso   1.00
C245   C     0.75948   0.56263   0.29684   0.00000  Uiso   1.00
C246   C     0.78722   0.53358   0.21834   0.00000  Uiso   1.00
C247   C     0.83529   0.51207   0.30579   0.00000  Uiso   1.00
C248   C     0.63683   0.59121   0.33516   0.00000  Uiso   1.00
C249   C     0.56144   0.58620   0.28886   0.00000  Uiso   1.00
C250   C     0.50626   0.58875   0.40856   0.00000  Uiso   1.00
C251   C     0.74692   0.62418   0.24236   0.00000  Uiso   1.00
C252   C     0.76408   0.64688   0.11803   0.00000  Uiso   1.00
C253   C     0.80156   0.67720   0.15961   0.00000  Uiso   1.00
H254   H     0.75745   0.60876   0.64370   0.00000  Uiso   1.00
H255   H     0.84222   0.55414   0.66857   0.00000  Uiso   1.00
H256   H     0.61648   0.60675   0.73908   0.00000  Uiso   1.00
H257   H     0.81908   0.66743   0.56828   0.00000  Uiso   1.00
H258   H     0.92755   0.49035   0.62553   0.00000  Uiso   1.00
H259   H     0.45155   0.60131   0.77418   0.00000  Uiso   1.00
H260   H     0.87879   0.72925   0.41402   0.00000  Uiso   1.00
H261   H     0.69094   0.58391   0.09938   0.00000  Uiso   1.00
H262   H     0.77206   0.52793   0.09438   0.00000  Uiso   1.00
H263   H     0.54632   0.58054   0.16489   0.00000  Uiso   1.00
H264   H     0.74892   0.64122   0.99409   0.00000  Uiso   1.00
H265   H     0.87060   0.46908   0.15950   0.00000  Uiso   1.00
H266   H     0.39461   0.58003   0.30815   0.00000  Uiso   1.00
H267   H     0.82184   0.70798   0.94799   0.00000  Uiso   1.00
O268   O     0.95362   0.44333   0.39906   0.00000  Uiso   1.00
O269   O     0.32914   0.58890   0.59408   0.00000  Uiso   1.00
O270   O     0.88966   0.75676   0.12157   0.00000  Uiso   1.00
N271   N     0.90303   0.49303   0.51652   0.00000  Uiso   1.00
N272   N     0.45800   0.59676   0.65551   0.00000  Uiso   1.00
N273   N     0.85741   0.71639   0.31880   0.00000  Uiso   1.00
N274   N     0.87238   0.48158   0.26575   0.00000  Uiso   1.00
N275   N     0.42736   0.58531   0.40474   0.00000  Uiso   1.00
N276   N     0.82677   0.70494   0.06803   0.00000  Uiso   1.00
C277   C     0.24222   0.89694   0.48101   0.00000  Uiso   1.00
C278   C     0.27906   0.93006   0.54298   0.00000  Uiso   1.00
C279   C     0.32709   0.95153   0.45539   0.00000  Uiso   1.00
C280   C     0.35490   0.98061   0.53374   0.00000  Uiso   1.00
C281   C     0.41504   0.03093   0.60557   0.00000  Uiso   1.00
C282   C     0.15640   0.90147   0.50467   0.00000  Uiso   1.00
C283   C     0.10131   0.89891   0.38487   0.00000  Uiso   1.00
C284   C     0.02587   0.90392   0.43098   0.00000  Uiso   1.00
C285   C     0.89559   0.90985   0.44335   0.00000  Uiso   1.00
C286   C     0.26649   0.86851   0.59746   0.00000  Uiso   1.00
C287   C     0.30395   0.83822   0.55569   0.00000  Uiso   1.00
C288   C     0.32117   0.81548   0.67993   0.00000  Uiso   1.00
C289   C     0.36182   0.77022   0.83638   0.00000  Uiso   1.00
C290   C     0.20618   0.91040   0.77591   0.00000  Uiso   1.00
C291   C     0.25948   0.93737   0.70316   0.00000  Uiso   1.00
C292   C     0.28722   0.96642   0.78166   0.00000  Uiso   1.00
C293   C     0.33529   0.98793   0.69421   0.00000  Uiso   1.00
C294   C     0.13683   0.90879   0.66484   0.00000  Uiso   1.00
C295   C     0.06144   0.91380   0.71114   0.00000  Uiso   1.00
C296   C     0.00626   0.91125   0.59144   0.00000  Uiso   1.00
C297   C     0.24692   0.87582   0.75764   0.00000  Uiso   1.00
C298   C     0.26408   0.85312   0.88197   0.00000  Uiso   1.00
C299   C     0.30156   0.82280   0.84039   0.00000  Uiso   1.00
H300   H     0.25745   0.89124   0.35630   0.00000  Uiso   1.00
H301   H     0.34222   0.94586   0.33143   0.00000  Uiso   1.00
H302   H     0.11648   0.89325   0.26092   0.00000  Uiso   1.00
H303   H     0.31908   0.83257   0.43172   0.00000  Uiso   1.00
H304   H     0.42755   0.00965   0.37447   0.00000  Uiso   1.00
H305   H     0.95155   0.89869   0.22582   0.00000  Uiso   1.00
H306   H     0.37879   0.77075   0.58598   0.00000  Uiso   1.00
H307   H     0.19094   0.91609   0.90062   0.00000  Uiso   1.00
H308   H     0.27206   0.97207   0.90562   0.00000  Uiso   1.00
H309   H     0.04632   0.91946   0.83511   0.00000  Uiso   1.00
H310   H     0.24892   0.85878   0.00591   0.00000  Uiso   1.00
H311   H     0.37060   0.03092   0.84050   0.00000  Uiso   1.00
H312   H     0.89461   0.91997   0.69185   0.00000  Uiso   1.00
H313   H     0.32184   0.79202   0.05201   0.00000  Uiso   1.00
O314   O     0.45362   0.05667   0.60094   0.00000  Uiso   1.00
O315   O     0.82914   0.91110   0.40592   0.00000  Uiso   1.00
O316   O     0.38966   0.74324   0.87843   0.00000  Uiso   1.00
N317   N     0.40303   0.00697   0.48348   0.00000  Uiso   1.00
N318   N     0.95800   0.90324   0.34449   0.00000  Uiso   1.00
N319   N     0.35741   0.78361   0.68120   0.00000  Uiso   1.00
N320   N     0.37238   0.01842   0.73425   0.00000  Uiso   1.00
N321   N     0.92736   0.91469   0.59526   0.00000  Uiso   1.00
N322   N     0.32677   0.79506   0.93197   0.00000  Uiso   1.00
C323   C     0.25778   0.10306   0.98101   0.00000  Uiso   1.00
C324   C     0.22094   0.06994   0.04298   0.00000  Uiso   1.00
C325   C     0.17291   0.04847   0.95539   0.00000  Uiso   1.00
C326   C     0.14510   0.01939   0.03374   0.00000  Uiso   1.00
C327   C     0.08496   0.96907   0.10557   0.00000  Uiso   1.00
C328   C     0.34360   0.09853   0.00467   0.00000  Uiso   1.00
C329   C     0.39869   0.10109   0.88487   0.00000  Uiso   1.00
C330   C     0.47413   0.09608   0.93098   0.00000  Uiso   1.00
C331   C     0.60441   0.09015   0.94335   0.00000  Uiso   1.00
C332   C     0.23351   0.13149   0.09746   0.00000  Uiso   1.00
C333   C     0.19605   0.16178   0.05569   0.00000  Uiso   1.00
C334   C     0.17883   0.18452   0.17993   0.00000  Uiso   1.00
C335   C     0.13818   0.22978   0.33638   0.00000  Uiso   1.00
C336   C     0.29382   0.08960   0.27591   0.00000  Uiso   1.00
C337   C     0.24052   0.06263   0.20316   0.00000  Uiso   1.00
C338   C     0.21278   0.03358   0.28166   0.00000  Uiso   1.00
C339   C     0.16471   0.01207   0.19421   0.00000  Uiso   1.00
C340   C     0.36317   0.09121   0.16484   0.00000  Uiso   1.00
C341   C     0.43856   0.08620   0.21114   0.00000  Uiso   1.00
C342   C     0.49374   0.08875   0.09144   0.00000  Uiso   1.00
C343   C     0.25308   0.12418   0.25764   0.00000  Uiso   1.00
C344   C     0.23592   0.14688   0.38197   0.00000  Uiso   1.00
C345   C     0.19844   0.17720   0.34039   0.00000  Uiso   1.00
H346   H     0.24255   0.10876   0.85630   0.00000  Uiso   1.00
H347   H     0.15778   0.05414   0.83143   0.00000  Uiso   1.00
H348   H     0.38352   0.10675   0.76092   0.00000  Uiso   1.00
H349   H     0.18092   0.16743   0.93172   0.00000  Uiso   1.00
H350   H     0.07245   0.99035   0.87447   0.00000  Uiso   1.00
H351   H     0.54845   0.10131   0.72582   0.00000  Uiso   1.00
H352   H     0.12121   0.22925   0.08598   0.00000  Uiso   1.00
H353   H     0.30906   0.08391   0.40062   0.00000  Uiso   1.00
H354   H     0.22794   0.02793   0.40562   0.00000  Uiso   1.00
H355   H     0.45368   0.08054   0.33511   0.00000  Uiso   1.00
H356   H     0.25108   0.14122   0.50591   0.00000  Uiso   1.00
H357   H     0.12940   0.96908   0.34050   0.00000  Uiso   1.00
H358   H     0.60539   0.08003   0.19185   0.00000  Uiso   1.00
H359   H     0.17816   0.20798   0.55201   0.00000  Uiso   1.00
O360   O     0.04638   0.94333   0.10094   0.00000  Uiso   1.00
O361   O     0.67086   0.08890   0.90592   0.00000  Uiso   1.00
O362   O     0.11034   0.25676   0.37843   0.00000  Uiso   1.00
N363   N     0.09697   0.99303   0.98348   0.00000  Uiso   1.00
N364   N     0.54200   0.09676   0.84449   0.00000  Uiso   1.00
N365   N     0.14259   0.21639   0.18120   0.00000  Uiso   1.00
N366   N     0.12762   0.98158   0.23425   0.00000  Uiso   1.00
N367   N     0.57264   0.08531   0.09526   0.00000  Uiso   1.00
N368   N     0.17323   0.20494   0.43197   0.00000  Uiso   1.00
