data_job_01017
_audit_creation_date              2018-12-19
_audit_creation_method            'Materials Studio'
_symmetry_space_group_name_H-M    'P1'
_symmetry_Int_Tables_number       1
_symmetry_cell_setting            triclinic
loop_
_symmetry_equiv_pos_as_xyz
  x,y,z
_cell_length_a                    19.5185
_cell_length_b                    12.4357
_cell_length_c                    30.6621
_cell_angle_alpha                 90.0000
_cell_angle_beta                  90.0000
_cell_angle_gamma                 90.0000
loop_
_atom_site_label
_atom_site_type_symbol
_atom_site_fract_x
_atom_site_fract_y
_atom_site_fract_z
_atom_site_U_iso_or_equiv
_atom_site_adp_type
_atom_site_occupancy
C1     C     0.16634   0.69043   0.68082   0.00000  Uiso   1.00
C2     C     0.08967   0.68896   0.69037   0.00000  Uiso   1.00
C3     C     0.05967   0.66004   0.72969   0.00000  Uiso   1.00
C4     C     0.98866   0.66397   0.73187   0.00000  Uiso   1.00
C5     C     0.87562   0.65682   0.75215   0.00000  Uiso   1.00
C6     C     0.17671   0.61808   0.64122   0.00000  Uiso   1.00
C7     C     0.21990   0.52956   0.63920   0.00000  Uiso   1.00
C8     C     0.22218   0.47384   0.59999   0.00000  Uiso   1.00
C9     C     0.24432   0.35669   0.54394   0.00000  Uiso   1.00
C10    C     0.18278   0.80428   0.66561   0.00000  Uiso   1.00
C11    C     0.23108   0.87232   0.68410   0.00000  Uiso   1.00
C12    C     0.23847   0.97336   0.66541   0.00000  Uiso   1.00
C13    C     0.27002   0.14531   0.64724   0.00000  Uiso   1.00
C14    C     0.09359   0.74887   0.61476   0.00000  Uiso   1.00
C15    C     0.05016   0.72071   0.65449   0.00000  Uiso   1.00
C16    C     0.97918   0.72469   0.65660   0.00000  Uiso   1.00
C17    C     0.94907   0.69578   0.69592   0.00000  Uiso   1.00
C18    C     0.13720   0.64982   0.60533   0.00000  Uiso   1.00
C19    C     0.13942   0.59422   0.56611   0.00000  Uiso   1.00
C20    C     0.18259   0.50564   0.56404   0.00000  Uiso   1.00
C21    C     0.14326   0.83603   0.62973   0.00000  Uiso   1.00
C22    C     0.15058   0.93698   0.61101   0.00000  Uiso   1.00
C23    C     0.19888   0.00516   0.62946   0.00000  Uiso   1.00
H24    H     0.19710   0.66571   0.70876   0.00000  Uiso   1.00
H25    H     0.09026   0.63546   0.75746   0.00000  Uiso   1.00
H26    H     0.25048   0.50502   0.66698   0.00000  Uiso   1.00
H27    H     0.26165   0.84773   0.71186   0.00000  Uiso   1.00
H28    H     0.95438   0.61589   0.79561   0.00000  Uiso   1.00
H29    H     0.29223   0.34087   0.60483   0.00000  Uiso   1.00
H30    H     0.31578   0.06353   0.69948   0.00000  Uiso   1.00
H31    H     0.06283   0.77359   0.58682   0.00000  Uiso   1.00
H32    H     0.94861   0.74926   0.62883   0.00000  Uiso   1.00
H33    H     0.10883   0.61881   0.53835   0.00000  Uiso   1.00
H34    H     0.12000   0.96152   0.58324   0.00000  Uiso   1.00
H35    H     0.83942   0.70825   0.69122   0.00000  Uiso   1.00
H36    H     0.17726   0.43323   0.50043   0.00000  Uiso   1.00
H37    H     0.20081   0.15589   0.59509   0.00000  Uiso   1.00
O38    O     0.82419   0.64409   0.77324   0.00000  Uiso   1.00
O39    O     0.26744   0.28328   0.52295   0.00000  Uiso   1.00
O40    O     0.29833   0.23139   0.64713   0.00000  Uiso   1.00
N41    N     0.94300   0.64099   0.76528   0.00000  Uiso   1.00
N42    N     0.25886   0.38385   0.58692   0.00000  Uiso   1.00
N43    N     0.28089   0.05946   0.67540   0.00000  Uiso   1.00
N44    N     0.88114   0.69068   0.70911   0.00000  Uiso   1.00
N45    N     0.19699   0.43354   0.53074   0.00000  Uiso   1.00
N46    N     0.21902   0.10916   0.61922   0.00000  Uiso   1.00
C47    C     0.76904   0.02844   0.30386   0.00000  Uiso   1.00
C48    C     0.84639   0.04420   0.30104   0.00000  Uiso   1.00
C49    C     0.88615   0.03029   0.26394   0.00000  Uiso   1.00
C50    C     0.95601   0.04864   0.26808   0.00000  Uiso   1.00
C51    C     0.07171   0.06833   0.25765   0.00000  Uiso   1.00
C52    C     0.75730   0.94609   0.33994   0.00000  Uiso   1.00
C53    C     0.72214   0.84969   0.33556   0.00000  Uiso   1.00
C54    C     0.71700   0.78545   0.37245   0.00000  Uiso   1.00
C55    C     0.69435   0.65285   0.42242   0.00000  Uiso   1.00
C56    C     0.74000   0.13430   0.32084   0.00000  Uiso   1.00
C57    C     0.69028   0.19613   0.30040   0.00000  Uiso   1.00
C58    C     0.67057   0.29034   0.32121   0.00000  Uiso   1.00
C59    C     0.62105   0.44997   0.34152   0.00000  Uiso   1.00
C60    C     0.82242   0.08577   0.37718   0.00000  Uiso   1.00
C61    C     0.87538   0.07534   0.34086   0.00000  Uiso   1.00
C62    C     0.94520   0.09372   0.34506   0.00000  Uiso   1.00
C63    C     0.98505   0.07984   0.30798   0.00000  Uiso   1.00
C64    C     0.78629   0.97722   0.37977   0.00000  Uiso   1.00
C65    C     0.78120   0.91311   0.41667   0.00000  Uiso   1.00
C66    C     0.74605   0.81664   0.41234   0.00000  Uiso   1.00
C67    C     0.76899   0.16544   0.36066   0.00000  Uiso   1.00
C68    C     0.74935   0.25956   0.38151   0.00000  Uiso   1.00
C69    C     0.69961   0.32154   0.36110   0.00000  Uiso   1.00
H70    H     0.74646   0.00419   0.27286   0.00000  Uiso   1.00
H71    H     0.86369   0.00618   0.23313   0.00000  Uiso   1.00
H72    H     0.69971   0.82562   0.30474   0.00000  Uiso   1.00
H73    H     0.66786   0.17201   0.26958   0.00000  Uiso   1.00
H74    H     0.00645   0.02208   0.20665   0.00000  Uiso   1.00
H75    H     0.66066   0.64137   0.35764   0.00000  Uiso   1.00
H76    H     0.59349   0.37181   0.28350   0.00000  Uiso   1.00
H77    H     0.84499   0.11001   0.40818   0.00000  Uiso   1.00
H78    H     0.96762   0.11781   0.37588   0.00000  Uiso   1.00
H79    H     0.80364   0.93724   0.44749   0.00000  Uiso   1.00
H80    H     0.77179   0.28363   0.41233   0.00000  Uiso   1.00
H81    H     0.09080   0.11268   0.32252   0.00000  Uiso   1.00
H82    H     0.74501   0.73196   0.47350   0.00000  Uiso   1.00
H83    H     0.67785   0.46241   0.39937   0.00000  Uiso   1.00
O84    O     0.12752   0.07057   0.24090   0.00000  Uiso   1.00
O85    O     0.67385   0.57110   0.43899   0.00000  Uiso   1.00
O86    O     0.58574   0.52942   0.34172   0.00000  Uiso   1.00
N87    N     0.00947   0.04236   0.23835   0.00000  Uiso   1.00
N88    N     0.68619   0.68640   0.37951   0.00000  Uiso   1.00
N89    N     0.62338   0.36929   0.31021   0.00000  Uiso   1.00
N90    N     0.05486   0.09111   0.30070   0.00000  Uiso   1.00
N91    N     0.73158   0.73515   0.44186   0.00000  Uiso   1.00
N92    N     0.66877   0.41804   0.37255   0.00000  Uiso   1.00
C93    C     0.83366   0.30957   0.18082   0.00000  Uiso   1.00
C94    C     0.91033   0.31104   0.19037   0.00000  Uiso   1.00
C95    C     0.94033   0.33996   0.22969   0.00000  Uiso   1.00
C96    C     0.01134   0.33603   0.23187   0.00000  Uiso   1.00
C97    C     0.12438   0.34318   0.25215   0.00000  Uiso   1.00
C98    C     0.82329   0.38192   0.14122   0.00000  Uiso   1.00
C99    C     0.78010   0.47044   0.13920   0.00000  Uiso   1.00
C100   C     0.77782   0.52616   0.09999   0.00000  Uiso   1.00
C101   C     0.75568   0.64331   0.04394   0.00000  Uiso   1.00
C102   C     0.81722   0.19572   0.16561   0.00000  Uiso   1.00
C103   C     0.76892   0.12768   0.18410   0.00000  Uiso   1.00
C104   C     0.76153   0.02664   0.16541   0.00000  Uiso   1.00
C105   C     0.72998   0.85469   0.14724   0.00000  Uiso   1.00
C106   C     0.90641   0.25113   0.11476   0.00000  Uiso   1.00
C107   C     0.94984   0.27929   0.15449   0.00000  Uiso   1.00
C108   C     0.02082   0.27531   0.15660   0.00000  Uiso   1.00
C109   C     0.05093   0.30422   0.19592   0.00000  Uiso   1.00
C110   C     0.86280   0.35018   0.10533   0.00000  Uiso   1.00
C111   C     0.86058   0.40578   0.06611   0.00000  Uiso   1.00
C112   C     0.81741   0.49436   0.06404   0.00000  Uiso   1.00
C113   C     0.85674   0.16397   0.12973   0.00000  Uiso   1.00
C114   C     0.84942   0.06302   0.11101   0.00000  Uiso   1.00
C115   C     0.80112   0.99484   0.12946   0.00000  Uiso   1.00
H116   H     0.80290   0.33429   0.20876   0.00000  Uiso   1.00
H117   H     0.90974   0.36454   0.25746   0.00000  Uiso   1.00
H118   H     0.74952   0.49498   0.16698   0.00000  Uiso   1.00
H119   H     0.73835   0.15227   0.21186   0.00000  Uiso   1.00
H120   H     0.04562   0.38411   0.29561   0.00000  Uiso   1.00
H121   H     0.70777   0.65913   0.10483   0.00000  Uiso   1.00
H122   H     0.68422   0.93647   0.19948   0.00000  Uiso   1.00
H123   H     0.93717   0.22641   0.08682   0.00000  Uiso   1.00
H124   H     0.05139   0.25074   0.12883   0.00000  Uiso   1.00
H125   H     0.89117   0.38119   0.03835   0.00000  Uiso   1.00
H126   H     0.88000   0.03848   0.08324   0.00000  Uiso   1.00
H127   H     0.16058   0.29175   0.19122   0.00000  Uiso   1.00
H128   H     0.82274   0.56677   0.00043   0.00000  Uiso   1.00
H129   H     0.79919   0.84411   0.09509   0.00000  Uiso   1.00
O130   O     0.17581   0.35591   0.27324   0.00000  Uiso   1.00
O131   O     0.73256   0.71672   0.02295   0.00000  Uiso   1.00
O132   O     0.70167   0.76861   0.14713   0.00000  Uiso   1.00
N133   N     0.05700   0.35901   0.26528   0.00000  Uiso   1.00
N134   N     0.74114   0.61615   0.08692   0.00000  Uiso   1.00
N135   N     0.71911   0.94054   0.17540   0.00000  Uiso   1.00
N136   N     0.11886   0.30932   0.20911   0.00000  Uiso   1.00
N137   N     0.80301   0.56646   0.03074   0.00000  Uiso   1.00
N138   N     0.78098   0.89084   0.11922   0.00000  Uiso   1.00
C139   C     0.23096   0.97156   0.80386   0.00000  Uiso   1.00
C140   C     0.15361   0.95580   0.80104   0.00000  Uiso   1.00
C141   C     0.11385   0.96971   0.76394   0.00000  Uiso   1.00
C142   C     0.04399   0.95136   0.76808   0.00000  Uiso   1.00
C143   C     0.92829   0.93167   0.75765   0.00000  Uiso   1.00
C144   C     0.24270   0.05391   0.83994   0.00000  Uiso   1.00
C145   C     0.27786   0.15031   0.83556   0.00000  Uiso   1.00
C146   C     0.28300   0.21455   0.87245   0.00000  Uiso   1.00
C147   C     0.30565   0.34715   0.92242   0.00000  Uiso   1.00
C148   C     0.26000   0.86570   0.82084   0.00000  Uiso   1.00
C149   C     0.30972   0.80387   0.80040   0.00000  Uiso   1.00
C150   C     0.32943   0.70966   0.82121   0.00000  Uiso   1.00
C151   C     0.37895   0.55003   0.84152   0.00000  Uiso   1.00
C152   C     0.17758   0.91423   0.87718   0.00000  Uiso   1.00
C153   C     0.12462   0.92466   0.84086   0.00000  Uiso   1.00
C154   C     0.05480   0.90628   0.84506   0.00000  Uiso   1.00
C155   C     0.01495   0.92016   0.80798   0.00000  Uiso   1.00
C156   C     0.21371   0.02278   0.87977   0.00000  Uiso   1.00
C157   C     0.21880   0.08689   0.91667   0.00000  Uiso   1.00
C158   C     0.25395   0.18336   0.91234   0.00000  Uiso   1.00
C159   C     0.23101   0.83456   0.86066   0.00000  Uiso   1.00
C160   C     0.25065   0.74044   0.88151   0.00000  Uiso   1.00
C161   C     0.30039   0.67846   0.86110   0.00000  Uiso   1.00
H162   H     0.25354   0.99581   0.77286   0.00000  Uiso   1.00
H163   H     0.13631   0.99382   0.73313   0.00000  Uiso   1.00
H164   H     0.30029   0.17438   0.80474   0.00000  Uiso   1.00
H165   H     0.33214   0.82799   0.76958   0.00000  Uiso   1.00
H166   H     0.99355   0.97792   0.70665   0.00000  Uiso   1.00
H167   H     0.33934   0.35863   0.85764   0.00000  Uiso   1.00
H168   H     0.40651   0.62819   0.78350   0.00000  Uiso   1.00
H169   H     0.15501   0.88999   0.90818   0.00000  Uiso   1.00
H170   H     0.03238   0.88219   0.87588   0.00000  Uiso   1.00
H171   H     0.19636   0.06276   0.94749   0.00000  Uiso   1.00
H172   H     0.22821   0.71637   0.91233   0.00000  Uiso   1.00
H173   H     0.90920   0.88732   0.82252   0.00000  Uiso   1.00
H174   H     0.25499   0.26804   0.97350   0.00000  Uiso   1.00
H175   H     0.32215   0.53759   0.89937   0.00000  Uiso   1.00
O176   O     0.87248   0.92943   0.74090   0.00000  Uiso   1.00
O177   O     0.32615   0.42890   0.93899   0.00000  Uiso   1.00
O178   O     0.41426   0.47058   0.84172   0.00000  Uiso   1.00
N179   N     0.99053   0.95764   0.73835   0.00000  Uiso   1.00
N180   N     0.31381   0.31360   0.87951   0.00000  Uiso   1.00
N181   N     0.37662   0.63071   0.81021   0.00000  Uiso   1.00
N182   N     0.94514   0.90889   0.80070   0.00000  Uiso   1.00
N183   N     0.26842   0.26485   0.94186   0.00000  Uiso   1.00
N184   N     0.33123   0.58196   0.87255   0.00000  Uiso   1.00
C185   C     0.66634   0.30957   0.68082   0.00000  Uiso   1.00
C186   C     0.58967   0.31104   0.69037   0.00000  Uiso   1.00
C187   C     0.55967   0.33996   0.72969   0.00000  Uiso   1.00
C188   C     0.48866   0.33603   0.73187   0.00000  Uiso   1.00
C189   C     0.37562   0.34318   0.75215   0.00000  Uiso   1.00
C190   C     0.67671   0.38192   0.64122   0.00000  Uiso   1.00
C191   C     0.71990   0.47044   0.63920   0.00000  Uiso   1.00
C192   C     0.72218   0.52616   0.59999   0.00000  Uiso   1.00
C193   C     0.74432   0.64331   0.54394   0.00000  Uiso   1.00
C194   C     0.68278   0.19572   0.66561   0.00000  Uiso   1.00
C195   C     0.73108   0.12768   0.68410   0.00000  Uiso   1.00
C196   C     0.73847   0.02664   0.66541   0.00000  Uiso   1.00
C197   C     0.77002   0.85469   0.64724   0.00000  Uiso   1.00
C198   C     0.59359   0.25113   0.61476   0.00000  Uiso   1.00
C199   C     0.55016   0.27929   0.65449   0.00000  Uiso   1.00
C200   C     0.47918   0.27531   0.65660   0.00000  Uiso   1.00
C201   C     0.44907   0.30422   0.69592   0.00000  Uiso   1.00
C202   C     0.63720   0.35018   0.60533   0.00000  Uiso   1.00
C203   C     0.63942   0.40578   0.56611   0.00000  Uiso   1.00
C204   C     0.68259   0.49436   0.56404   0.00000  Uiso   1.00
C205   C     0.64326   0.16397   0.62973   0.00000  Uiso   1.00
C206   C     0.65058   0.06302   0.61101   0.00000  Uiso   1.00
C207   C     0.69888   0.99484   0.62946   0.00000  Uiso   1.00
H208   H     0.69710   0.33429   0.70876   0.00000  Uiso   1.00
H209   H     0.59026   0.36454   0.75746   0.00000  Uiso   1.00
H210   H     0.75048   0.49498   0.66698   0.00000  Uiso   1.00
H211   H     0.76165   0.15227   0.71186   0.00000  Uiso   1.00
H212   H     0.45438   0.38411   0.79561   0.00000  Uiso   1.00
H213   H     0.79223   0.65913   0.60483   0.00000  Uiso   1.00
H214   H     0.81578   0.93647   0.69948   0.00000  Uiso   1.00
H215   H     0.56283   0.22641   0.58682   0.00000  Uiso   1.00
H216   H     0.44861   0.25074   0.62883   0.00000  Uiso   1.00
H217   H     0.60883   0.38119   0.53835   0.00000  Uiso   1.00
H218   H     0.62000   0.03848   0.58324   0.00000  Uiso   1.00
H219   H     0.33942   0.29175   0.69122   0.00000  Uiso   1.00
H220   H     0.67726   0.56677   0.50043   0.00000  Uiso   1.00
H221   H     0.70081   0.84411   0.59509   0.00000  Uiso   1.00
O222   O     0.32419   0.35591   0.77324   0.00000  Uiso   1.00
O223   O     0.76744   0.71672   0.52295   0.00000  Uiso   1.00
O224   O     0.79833   0.76861   0.64713   0.00000  Uiso   1.00
N225   N     0.44300   0.35901   0.76528   0.00000  Uiso   1.00
N226   N     0.75886   0.61615   0.58692   0.00000  Uiso   1.00
N227   N     0.78089   0.94054   0.67540   0.00000  Uiso   1.00
N228   N     0.38114   0.30932   0.70911   0.00000  Uiso   1.00
N229   N     0.69699   0.56646   0.53074   0.00000  Uiso   1.00
N230   N     0.71902   0.89084   0.61922   0.00000  Uiso   1.00
C231   C     0.26904   0.97156   0.30386   0.00000  Uiso   1.00
C232   C     0.34639   0.95580   0.30104   0.00000  Uiso   1.00
C233   C     0.38615   0.96971   0.26394   0.00000  Uiso   1.00
C234   C     0.45601   0.95136   0.26808   0.00000  Uiso   1.00
C235   C     0.57171   0.93167   0.25765   0.00000  Uiso   1.00
C236   C     0.25730   0.05391   0.33994   0.00000  Uiso   1.00
C237   C     0.22214   0.15031   0.33556   0.00000  Uiso   1.00
C238   C     0.21700   0.21455   0.37245   0.00000  Uiso   1.00
C239   C     0.19435   0.34715   0.42242   0.00000  Uiso   1.00
C240   C     0.24000   0.86570   0.32084   0.00000  Uiso   1.00
C241   C     0.19028   0.80387   0.30040   0.00000  Uiso   1.00
C242   C     0.17057   0.70966   0.32121   0.00000  Uiso   1.00
C243   C     0.12105   0.55003   0.34152   0.00000  Uiso   1.00
C244   C     0.32242   0.91423   0.37718   0.00000  Uiso   1.00
C245   C     0.37538   0.92466   0.34086   0.00000  Uiso   1.00
C246   C     0.44520   0.90628   0.34506   0.00000  Uiso   1.00
C247   C     0.48505   0.92016   0.30798   0.00000  Uiso   1.00
C248   C     0.28629   0.02278   0.37977   0.00000  Uiso   1.00
C249   C     0.28120   0.08689   0.41667   0.00000  Uiso   1.00
C250   C     0.24605   0.18336   0.41234   0.00000  Uiso   1.00
C251   C     0.26899   0.83456   0.36066   0.00000  Uiso   1.00
C252   C     0.24935   0.74044   0.38151   0.00000  Uiso   1.00
C253   C     0.19961   0.67846   0.36110   0.00000  Uiso   1.00
H254   H     0.24646   0.99581   0.27286   0.00000  Uiso   1.00
H255   H     0.36369   0.99382   0.23313   0.00000  Uiso   1.00
H256   H     0.19971   0.17438   0.30474   0.00000  Uiso   1.00
H257   H     0.16786   0.82799   0.26958   0.00000  Uiso   1.00
H258   H     0.50645   0.97792   0.20665   0.00000  Uiso   1.00
H259   H     0.16066   0.35863   0.35764   0.00000  Uiso   1.00
H260   H     0.09349   0.62819   0.28350   0.00000  Uiso   1.00
H261   H     0.34499   0.88999   0.40818   0.00000  Uiso   1.00
H262   H     0.46762   0.88219   0.37588   0.00000  Uiso   1.00
H263   H     0.30364   0.06276   0.44749   0.00000  Uiso   1.00
H264   H     0.27179   0.71637   0.41233   0.00000  Uiso   1.00
H265   H     0.59080   0.88732   0.32252   0.00000  Uiso   1.00
H266   H     0.24501   0.26804   0.47350   0.00000  Uiso   1.00
H267   H     0.17785   0.53759   0.39937   0.00000  Uiso   1.00
O268   O     0.62752   0.92943   0.24090   0.00000  Uiso   1.00
O269   O     0.17385   0.42890   0.43899   0.00000  Uiso   1.00
O270   O     0.08574   0.47058   0.34172   0.00000  Uiso   1.00
N271   N     0.50947   0.95764   0.23835   0.00000  Uiso   1.00
N272   N     0.18619   0.31360   0.37951   0.00000  Uiso   1.00
N273   N     0.12338   0.63071   0.31021   0.00000  Uiso   1.00
N274   N     0.55486   0.90889   0.30070   0.00000  Uiso   1.00
N275   N     0.23158   0.26485   0.44186   0.00000  Uiso   1.00
N276   N     0.16877   0.58196   0.37255   0.00000  Uiso   1.00
C277   C     0.33366   0.69043   0.18082   0.00000  Uiso   1.00
C278   C     0.41033   0.68896   0.19037   0.00000  Uiso   1.00
C279   C     0.44033   0.66004   0.22969   0.00000  Uiso   1.00
C280   C     0.51134   0.66397   0.23187   0.00000  Uiso   1.00
C281   C     0.62438   0.65682   0.25215   0.00000  Uiso   1.00
C282   C     0.32329   0.61808   0.14122   0.00000  Uiso   1.00
C283   C     0.28010   0.52956   0.13920   0.00000  Uiso   1.00
C284   C     0.27782   0.47384   0.09999   0.00000  Uiso   1.00
C285   C     0.25568   0.35669   0.04394   0.00000  Uiso   1.00
C286   C     0.31722   0.80428   0.16561   0.00000  Uiso   1.00
C287   C     0.26892   0.87232   0.18410   0.00000  Uiso   1.00
C288   C     0.26153   0.97336   0.16541   0.00000  Uiso   1.00
C289   C     0.22998   0.14531   0.14724   0.00000  Uiso   1.00
C290   C     0.40641   0.74887   0.11476   0.00000  Uiso   1.00
C291   C     0.44984   0.72071   0.15449   0.00000  Uiso   1.00
C292   C     0.52082   0.72469   0.15660   0.00000  Uiso   1.00
C293   C     0.55093   0.69578   0.19592   0.00000  Uiso   1.00
C294   C     0.36280   0.64982   0.10533   0.00000  Uiso   1.00
C295   C     0.36058   0.59422   0.06611   0.00000  Uiso   1.00
C296   C     0.31741   0.50564   0.06404   0.00000  Uiso   1.00
C297   C     0.35674   0.83603   0.12973   0.00000  Uiso   1.00
C298   C     0.34942   0.93698   0.11101   0.00000  Uiso   1.00
C299   C     0.30112   0.00516   0.12946   0.00000  Uiso   1.00
H300   H     0.30290   0.66571   0.20876   0.00000  Uiso   1.00
H301   H     0.40974   0.63546   0.25746   0.00000  Uiso   1.00
H302   H     0.24952   0.50502   0.16698   0.00000  Uiso   1.00
H303   H     0.23835   0.84773   0.21186   0.00000  Uiso   1.00
H304   H     0.54562   0.61589   0.29561   0.00000  Uiso   1.00
H305   H     0.20777   0.34087   0.10483   0.00000  Uiso   1.00
H306   H     0.18422   0.06353   0.19948   0.00000  Uiso   1.00
H307   H     0.43717   0.77359   0.08682   0.00000  Uiso   1.00
H308   H     0.55139   0.74926   0.12883   0.00000  Uiso   1.00
H309   H     0.39117   0.61881   0.03835   0.00000  Uiso   1.00
H310   H     0.38000   0.96152   0.08324   0.00000  Uiso   1.00
H311   H     0.66058   0.70825   0.19122   0.00000  Uiso   1.00
H312   H     0.32274   0.43323   0.00043   0.00000  Uiso   1.00
H313   H     0.29919   0.15589   0.09509   0.00000  Uiso   1.00
O314   O     0.67581   0.64409   0.27324   0.00000  Uiso   1.00
O315   O     0.23256   0.28328   0.02295   0.00000  Uiso   1.00
O316   O     0.20167   0.23139   0.14713   0.00000  Uiso   1.00
N317   N     0.55700   0.64099   0.26528   0.00000  Uiso   1.00
N318   N     0.24114   0.38385   0.08692   0.00000  Uiso   1.00
N319   N     0.21911   0.05946   0.17540   0.00000  Uiso   1.00
N320   N     0.61886   0.69068   0.20911   0.00000  Uiso   1.00
N321   N     0.30301   0.43354   0.03074   0.00000  Uiso   1.00
N322   N     0.28098   0.10916   0.11922   0.00000  Uiso   1.00
C323   C     0.73096   0.02844   0.80386   0.00000  Uiso   1.00
C324   C     0.65361   0.04420   0.80104   0.00000  Uiso   1.00
C325   C     0.61385   0.03029   0.76394   0.00000  Uiso   1.00
C326   C     0.54399   0.04864   0.76808   0.00000  Uiso   1.00
C327   C     0.42829   0.06833   0.75765   0.00000  Uiso   1.00
C328   C     0.74270   0.94609   0.83994   0.00000  Uiso   1.00
C329   C     0.77786   0.84969   0.83556   0.00000  Uiso   1.00
C330   C     0.78300   0.78545   0.87245   0.00000  Uiso   1.00
C331   C     0.80565   0.65285   0.92242   0.00000  Uiso   1.00
C332   C     0.76000   0.13430   0.82084   0.00000  Uiso   1.00
C333   C     0.80972   0.19613   0.80040   0.00000  Uiso   1.00
C334   C     0.82943   0.29034   0.82121   0.00000  Uiso   1.00
C335   C     0.87895   0.44997   0.84152   0.00000  Uiso   1.00
C336   C     0.67758   0.08577   0.87718   0.00000  Uiso   1.00
C337   C     0.62462   0.07534   0.84086   0.00000  Uiso   1.00
C338   C     0.55480   0.09372   0.84506   0.00000  Uiso   1.00
C339   C     0.51495   0.07984   0.80798   0.00000  Uiso   1.00
C340   C     0.71371   0.97722   0.87977   0.00000  Uiso   1.00
C341   C     0.71880   0.91311   0.91667   0.00000  Uiso   1.00
C342   C     0.75395   0.81664   0.91234   0.00000  Uiso   1.00
C343   C     0.73101   0.16544   0.86066   0.00000  Uiso   1.00
C344   C     0.75065   0.25956   0.88151   0.00000  Uiso   1.00
C345   C     0.80039   0.32154   0.86110   0.00000  Uiso   1.00
H346   H     0.75354   0.00419   0.77286   0.00000  Uiso   1.00
H347   H     0.63631   0.00618   0.73313   0.00000  Uiso   1.00
H348   H     0.80029   0.82562   0.80474   0.00000  Uiso   1.00
H349   H     0.83214   0.17201   0.76958   0.00000  Uiso   1.00
H350   H     0.49355   0.02208   0.70665   0.00000  Uiso   1.00
H351   H     0.83934   0.64137   0.85764   0.00000  Uiso   1.00
H352   H     0.90651   0.37181   0.78350   0.00000  Uiso   1.00
H353   H     0.65501   0.11001   0.90818   0.00000  Uiso   1.00
H354   H     0.53238   0.11781   0.87588   0.00000  Uiso   1.00
H355   H     0.69636   0.93724   0.94749   0.00000  Uiso   1.00
H356   H     0.72821   0.28363   0.91233   0.00000  Uiso   1.00
H357   H     0.40920   0.11268   0.82252   0.00000  Uiso   1.00
H358   H     0.75499   0.73196   0.97350   0.00000  Uiso   1.00
H359   H     0.82215   0.46241   0.89937   0.00000  Uiso   1.00
O360   O     0.37248   0.07057   0.74090   0.00000  Uiso   1.00
O361   O     0.82615   0.57110   0.93899   0.00000  Uiso   1.00
O362   O     0.91426   0.52942   0.84172   0.00000  Uiso   1.00
N363   N     0.49053   0.04236   0.73835   0.00000  Uiso   1.00
N364   N     0.81381   0.68640   0.87951   0.00000  Uiso   1.00
N365   N     0.87662   0.36929   0.81021   0.00000  Uiso   1.00
N366   N     0.44514   0.09111   0.80070   0.00000  Uiso   1.00
N367   N     0.76842   0.73515   0.94186   0.00000  Uiso   1.00
N368   N     0.83123   0.41804   0.87255   0.00000  Uiso   1.00
