data_job_05633
_audit_creation_date              2018-12-19
_audit_creation_method            'Materials Studio'
_symmetry_space_group_name_H-M    'P1'
_symmetry_Int_Tables_number       1
_symmetry_cell_setting            triclinic
loop_
_symmetry_equiv_pos_as_xyz
  x,y,z
_cell_length_a                    7.2014
_cell_length_b                    34.6207
_cell_length_c                    24.9568
_cell_angle_alpha                 90.0000
_cell_angle_beta                  90.0000
_cell_angle_gamma                 90.0000
loop_
_atom_site_label
_atom_site_type_symbol
_atom_site_fract_x
_atom_site_fract_y
_atom_site_fract_z
_atom_site_U_iso_or_equiv
_atom_site_adp_type
_atom_site_occupancy
C1     C     0.16313   0.57816   0.12507   0.00000  Uiso   1.00
C2     C     0.24751   0.54160   0.14891   0.00000  Uiso   1.00
C3     C     0.15251   0.51382   0.17817   0.00000  Uiso   1.00
C4     C     0.25467   0.48249   0.19652   0.00000  Uiso   1.00
C5     C     0.35676   0.42625   0.23517   0.00000  Uiso   1.00
C6     C     0.27562   0.61172   0.14770   0.00000  Uiso   1.00
C7     C     0.20424   0.64290   0.17594   0.00000  Uiso   1.00
C8     C     0.33006   0.67060   0.19327   0.00000  Uiso   1.00
C9     C     0.47578   0.72324   0.23001   0.00000  Uiso   1.00
C10    C     0.20636   0.57688   0.06528   0.00000  Uiso   1.00
C11    C     0.07675   0.57877   0.02421   0.00000  Uiso   1.00
C12    C     0.14427   0.57715   0.97214   0.00000  Uiso   1.00
C13    C     0.18244   0.57569   0.88091   0.00000  Uiso   1.00
C14    C     0.51349   0.57191   0.10564   0.00000  Uiso   1.00
C15    C     0.43781   0.53821   0.13836   0.00000  Uiso   1.00
C16    C     0.54014   0.50691   0.15667   0.00000  Uiso   1.00
C17    C     0.44531   0.47909   0.18595   0.00000  Uiso   1.00
C18    C     0.46591   0.60833   0.13715   0.00000  Uiso   1.00
C19    C     0.59187   0.63599   0.15444   0.00000  Uiso   1.00
C20    C     0.52071   0.66720   0.18270   0.00000  Uiso   1.00
C21    C     0.39666   0.57348   0.05473   0.00000  Uiso   1.00
C22    C     0.46439   0.57186   0.00272   0.00000  Uiso   1.00
C23    C     0.33491   0.57375   0.96157   0.00000  Uiso   1.00
H24    H     0.01498   0.58080   0.13328   0.00000  Uiso   1.00
H25    H     0.00524   0.51646   0.18633   0.00000  Uiso   1.00
H26    H     0.05697   0.64552   0.18409   0.00000  Uiso   1.00
H27    H     0.92950   0.58140   0.03239   0.00000  Uiso   1.00
H28    H     0.07839   0.44363   0.24050   0.00000  Uiso   1.00
H29    H     0.18744   0.71577   0.23577   0.00000  Uiso   1.00
H30    H     0.91866   0.58057   0.91588   0.00000  Uiso   1.00
H31    H     0.66165   0.56927   0.09742   0.00000  Uiso   1.00
H32    H     0.68740   0.50429   0.14850   0.00000  Uiso   1.00
H33    H     0.73912   0.63335   0.14627   0.00000  Uiso   1.00
H34    H     0.61166   0.56923   0.99456   0.00000  Uiso   1.00
H35    H     0.63206   0.43376   0.20980   0.00000  Uiso   1.00
H36    H     0.74111   0.70590   0.20507   0.00000  Uiso   1.00
H37    H     0.47232   0.57069   0.88518   0.00000  Uiso   1.00
O38    O     0.36051   0.39617   0.25941   0.00000  Uiso   1.00
O39    O     0.50357   0.75321   0.25320   0.00000  Uiso   1.00
O40    O     0.15093   0.57581   0.83351   0.00000  Uiso   1.00
N41    N     0.20516   0.45022   0.22626   0.00000  Uiso   1.00
N42    N     0.30711   0.70466   0.22184   0.00000  Uiso   1.00
N43    N     0.05582   0.57826   0.92277   0.00000  Uiso   1.00
N44    N     0.50308   0.44491   0.20974   0.00000  Uiso   1.00
N45    N     0.60504   0.69934   0.20532   0.00000  Uiso   1.00
N46    N     0.35375   0.57294   0.90625   0.00000  Uiso   1.00
C47    C     0.33687   0.92184   0.12507   0.00000  Uiso   1.00
C48    C     0.25249   0.95840   0.14891   0.00000  Uiso   1.00
C49    C     0.34749   0.98618   0.17817   0.00000  Uiso   1.00
C50    C     0.24533   0.01751   0.19652   0.00000  Uiso   1.00
C51    C     0.14324   0.07375   0.23517   0.00000  Uiso   1.00
C52    C     0.22438   0.88828   0.14770   0.00000  Uiso   1.00
C53    C     0.29576   0.85710   0.17594   0.00000  Uiso   1.00
C54    C     0.16994   0.82940   0.19327   0.00000  Uiso   1.00
C55    C     0.02422   0.77676   0.23001   0.00000  Uiso   1.00
C56    C     0.29364   0.92312   0.06528   0.00000  Uiso   1.00
C57    C     0.42325   0.92123   0.02421   0.00000  Uiso   1.00
C58    C     0.35573   0.92285   0.97214   0.00000  Uiso   1.00
C59    C     0.31756   0.92431   0.88091   0.00000  Uiso   1.00
C60    C     0.98651   0.92809   0.10564   0.00000  Uiso   1.00
C61    C     0.06219   0.96179   0.13836   0.00000  Uiso   1.00
C62    C     0.95986   0.99309   0.15667   0.00000  Uiso   1.00
C63    C     0.05469   0.02091   0.18595   0.00000  Uiso   1.00
C64    C     0.03409   0.89167   0.13715   0.00000  Uiso   1.00
C65    C     0.90813   0.86401   0.15444   0.00000  Uiso   1.00
C66    C     0.97929   0.83280   0.18270   0.00000  Uiso   1.00
C67    C     0.10334   0.92652   0.05473   0.00000  Uiso   1.00
C68    C     0.03561   0.92814   0.00272   0.00000  Uiso   1.00
C69    C     0.16509   0.92625   0.96157   0.00000  Uiso   1.00
H70    H     0.48502   0.91920   0.13328   0.00000  Uiso   1.00
H71    H     0.49476   0.98354   0.18633   0.00000  Uiso   1.00
H72    H     0.44303   0.85448   0.18409   0.00000  Uiso   1.00
H73    H     0.57050   0.91860   0.03239   0.00000  Uiso   1.00
H74    H     0.42161   0.05637   0.24050   0.00000  Uiso   1.00
H75    H     0.31256   0.78423   0.23577   0.00000  Uiso   1.00
H76    H     0.58134   0.91943   0.91588   0.00000  Uiso   1.00
H77    H     0.83835   0.93073   0.09742   0.00000  Uiso   1.00
H78    H     0.81260   0.99571   0.14850   0.00000  Uiso   1.00
H79    H     0.76088   0.86665   0.14627   0.00000  Uiso   1.00
H80    H     0.88834   0.93077   0.99456   0.00000  Uiso   1.00
H81    H     0.86794   0.06624   0.20980   0.00000  Uiso   1.00
H82    H     0.75889   0.79410   0.20507   0.00000  Uiso   1.00
H83    H     0.02768   0.92931   0.88518   0.00000  Uiso   1.00
O84    O     0.13949   0.10383   0.25941   0.00000  Uiso   1.00
O85    O     0.99643   0.74679   0.25320   0.00000  Uiso   1.00
O86    O     0.34907   0.92419   0.83351   0.00000  Uiso   1.00
N87    N     0.29484   0.04978   0.22626   0.00000  Uiso   1.00
N88    N     0.19289   0.79534   0.22184   0.00000  Uiso   1.00
N89    N     0.44418   0.92174   0.92277   0.00000  Uiso   1.00
N90    N     0.99692   0.05509   0.20974   0.00000  Uiso   1.00
N91    N     0.89496   0.80066   0.20532   0.00000  Uiso   1.00
N92    N     0.14625   0.92706   0.90625   0.00000  Uiso   1.00
C93    C     0.83687   0.07816   0.37493   0.00000  Uiso   1.00
C94    C     0.75249   0.04160   0.35109   0.00000  Uiso   1.00
C95    C     0.84749   0.01382   0.32183   0.00000  Uiso   1.00
C96    C     0.74533   0.98249   0.30348   0.00000  Uiso   1.00
C97    C     0.64324   0.92625   0.26483   0.00000  Uiso   1.00
C98    C     0.72438   0.11172   0.35230   0.00000  Uiso   1.00
C99    C     0.79576   0.14290   0.32406   0.00000  Uiso   1.00
C100   C     0.66994   0.17060   0.30673   0.00000  Uiso   1.00
C101   C     0.52422   0.22324   0.26999   0.00000  Uiso   1.00
C102   C     0.79364   0.07688   0.43472   0.00000  Uiso   1.00
C103   C     0.92325   0.07877   0.47579   0.00000  Uiso   1.00
C104   C     0.85573   0.07715   0.52786   0.00000  Uiso   1.00
C105   C     0.81756   0.07569   0.61909   0.00000  Uiso   1.00
C106   C     0.48651   0.07191   0.39436   0.00000  Uiso   1.00
C107   C     0.56219   0.03821   0.36164   0.00000  Uiso   1.00
C108   C     0.45986   0.00691   0.34333   0.00000  Uiso   1.00
C109   C     0.55469   0.97909   0.31405   0.00000  Uiso   1.00
C110   C     0.53409   0.10833   0.36285   0.00000  Uiso   1.00
C111   C     0.40813   0.13599   0.34556   0.00000  Uiso   1.00
C112   C     0.47929   0.16720   0.31730   0.00000  Uiso   1.00
C113   C     0.60334   0.07348   0.44527   0.00000  Uiso   1.00
C114   C     0.53561   0.07186   0.49728   0.00000  Uiso   1.00
C115   C     0.66509   0.07375   0.53843   0.00000  Uiso   1.00
H116   H     0.98502   0.08080   0.36672   0.00000  Uiso   1.00
H117   H     0.99476   0.01646   0.31367   0.00000  Uiso   1.00
H118   H     0.94303   0.14552   0.31591   0.00000  Uiso   1.00
H119   H     0.07050   0.08140   0.46761   0.00000  Uiso   1.00
H120   H     0.92161   0.94363   0.25950   0.00000  Uiso   1.00
H121   H     0.81256   0.21577   0.26423   0.00000  Uiso   1.00
H122   H     0.08134   0.08057   0.58412   0.00000  Uiso   1.00
H123   H     0.33835   0.06927   0.40258   0.00000  Uiso   1.00
H124   H     0.31260   0.00429   0.35150   0.00000  Uiso   1.00
H125   H     0.26088   0.13335   0.35373   0.00000  Uiso   1.00
H126   H     0.38834   0.06923   0.50544   0.00000  Uiso   1.00
H127   H     0.36794   0.93376   0.29020   0.00000  Uiso   1.00
H128   H     0.25889   0.20590   0.29493   0.00000  Uiso   1.00
H129   H     0.52768   0.07069   0.61482   0.00000  Uiso   1.00
O130   O     0.63949   0.89617   0.24059   0.00000  Uiso   1.00
O131   O     0.49643   0.25321   0.24680   0.00000  Uiso   1.00
O132   O     0.84907   0.07581   0.66649   0.00000  Uiso   1.00
N133   N     0.79484   0.95022   0.27374   0.00000  Uiso   1.00
N134   N     0.69289   0.20466   0.27816   0.00000  Uiso   1.00
N135   N     0.94418   0.07826   0.57723   0.00000  Uiso   1.00
N136   N     0.49692   0.94491   0.29026   0.00000  Uiso   1.00
N137   N     0.39496   0.19934   0.29468   0.00000  Uiso   1.00
N138   N     0.64625   0.07294   0.59375   0.00000  Uiso   1.00
C139   C     0.66313   0.42184   0.37493   0.00000  Uiso   1.00
C140   C     0.74751   0.45840   0.35109   0.00000  Uiso   1.00
C141   C     0.65251   0.48618   0.32183   0.00000  Uiso   1.00
C142   C     0.75467   0.51751   0.30348   0.00000  Uiso   1.00
C143   C     0.85676   0.57375   0.26483   0.00000  Uiso   1.00
C144   C     0.77562   0.38828   0.35230   0.00000  Uiso   1.00
C145   C     0.70424   0.35710   0.32406   0.00000  Uiso   1.00
C146   C     0.83006   0.32940   0.30673   0.00000  Uiso   1.00
C147   C     0.97578   0.27676   0.26999   0.00000  Uiso   1.00
C148   C     0.70636   0.42312   0.43472   0.00000  Uiso   1.00
C149   C     0.57675   0.42123   0.47579   0.00000  Uiso   1.00
C150   C     0.64427   0.42285   0.52786   0.00000  Uiso   1.00
C151   C     0.68244   0.42431   0.61909   0.00000  Uiso   1.00
C152   C     0.01349   0.42809   0.39436   0.00000  Uiso   1.00
C153   C     0.93781   0.46179   0.36164   0.00000  Uiso   1.00
C154   C     0.04014   0.49309   0.34333   0.00000  Uiso   1.00
C155   C     0.94531   0.52091   0.31405   0.00000  Uiso   1.00
C156   C     0.96591   0.39167   0.36285   0.00000  Uiso   1.00
C157   C     0.09187   0.36401   0.34556   0.00000  Uiso   1.00
C158   C     0.02071   0.33280   0.31730   0.00000  Uiso   1.00
C159   C     0.89666   0.42652   0.44527   0.00000  Uiso   1.00
C160   C     0.96439   0.42814   0.49728   0.00000  Uiso   1.00
C161   C     0.83491   0.42625   0.53843   0.00000  Uiso   1.00
H162   H     0.51498   0.41920   0.36672   0.00000  Uiso   1.00
H163   H     0.50524   0.48354   0.31367   0.00000  Uiso   1.00
H164   H     0.55697   0.35448   0.31591   0.00000  Uiso   1.00
H165   H     0.42950   0.41860   0.46761   0.00000  Uiso   1.00
H166   H     0.57839   0.55637   0.25950   0.00000  Uiso   1.00
H167   H     0.68744   0.28423   0.26423   0.00000  Uiso   1.00
H168   H     0.41866   0.41943   0.58412   0.00000  Uiso   1.00
H169   H     0.16165   0.43073   0.40258   0.00000  Uiso   1.00
H170   H     0.18740   0.49571   0.35150   0.00000  Uiso   1.00
H171   H     0.23912   0.36665   0.35373   0.00000  Uiso   1.00
H172   H     0.11166   0.43077   0.50544   0.00000  Uiso   1.00
H173   H     0.13206   0.56624   0.29020   0.00000  Uiso   1.00
H174   H     0.24111   0.29410   0.29493   0.00000  Uiso   1.00
H175   H     0.97232   0.42931   0.61482   0.00000  Uiso   1.00
O176   O     0.86051   0.60383   0.24059   0.00000  Uiso   1.00
O177   O     0.00357   0.24679   0.24680   0.00000  Uiso   1.00
O178   O     0.65093   0.42419   0.66649   0.00000  Uiso   1.00
N179   N     0.70516   0.54978   0.27374   0.00000  Uiso   1.00
N180   N     0.80711   0.29534   0.27816   0.00000  Uiso   1.00
N181   N     0.55582   0.42174   0.57723   0.00000  Uiso   1.00
N182   N     0.00308   0.55509   0.29026   0.00000  Uiso   1.00
N183   N     0.10504   0.30066   0.29468   0.00000  Uiso   1.00
N184   N     0.85375   0.42706   0.59375   0.00000  Uiso   1.00
C185   C     0.83687   0.42184   0.87493   0.00000  Uiso   1.00
C186   C     0.75249   0.45840   0.85109   0.00000  Uiso   1.00
C187   C     0.84749   0.48618   0.82183   0.00000  Uiso   1.00
C188   C     0.74533   0.51751   0.80348   0.00000  Uiso   1.00
C189   C     0.64324   0.57375   0.76483   0.00000  Uiso   1.00
C190   C     0.72438   0.38828   0.85230   0.00000  Uiso   1.00
C191   C     0.79576   0.35710   0.82406   0.00000  Uiso   1.00
C192   C     0.66994   0.32940   0.80673   0.00000  Uiso   1.00
C193   C     0.52422   0.27676   0.76999   0.00000  Uiso   1.00
C194   C     0.79364   0.42312   0.93472   0.00000  Uiso   1.00
C195   C     0.92325   0.42123   0.97579   0.00000  Uiso   1.00
C196   C     0.85573   0.42285   0.02786   0.00000  Uiso   1.00
C197   C     0.81756   0.42431   0.11909   0.00000  Uiso   1.00
C198   C     0.48651   0.42809   0.89436   0.00000  Uiso   1.00
C199   C     0.56219   0.46179   0.86164   0.00000  Uiso   1.00
C200   C     0.45986   0.49309   0.84333   0.00000  Uiso   1.00
C201   C     0.55469   0.52091   0.81405   0.00000  Uiso   1.00
C202   C     0.53409   0.39167   0.86285   0.00000  Uiso   1.00
C203   C     0.40813   0.36401   0.84556   0.00000  Uiso   1.00
C204   C     0.47929   0.33280   0.81730   0.00000  Uiso   1.00
C205   C     0.60334   0.42652   0.94527   0.00000  Uiso   1.00
C206   C     0.53561   0.42814   0.99728   0.00000  Uiso   1.00
C207   C     0.66509   0.42625   0.03843   0.00000  Uiso   1.00
H208   H     0.98502   0.41920   0.86672   0.00000  Uiso   1.00
H209   H     0.99476   0.48354   0.81367   0.00000  Uiso   1.00
H210   H     0.94303   0.35448   0.81591   0.00000  Uiso   1.00
H211   H     0.07050   0.41860   0.96761   0.00000  Uiso   1.00
H212   H     0.92161   0.55637   0.75950   0.00000  Uiso   1.00
H213   H     0.81256   0.28423   0.76423   0.00000  Uiso   1.00
H214   H     0.08134   0.41943   0.08412   0.00000  Uiso   1.00
H215   H     0.33835   0.43073   0.90258   0.00000  Uiso   1.00
H216   H     0.31260   0.49571   0.85150   0.00000  Uiso   1.00
H217   H     0.26088   0.36665   0.85373   0.00000  Uiso   1.00
H218   H     0.38834   0.43077   0.00544   0.00000  Uiso   1.00
H219   H     0.36794   0.56624   0.79020   0.00000  Uiso   1.00
H220   H     0.25889   0.29410   0.79493   0.00000  Uiso   1.00
H221   H     0.52768   0.42931   0.11482   0.00000  Uiso   1.00
O222   O     0.63949   0.60383   0.74059   0.00000  Uiso   1.00
O223   O     0.49643   0.24679   0.74680   0.00000  Uiso   1.00
O224   O     0.84907   0.42419   0.16649   0.00000  Uiso   1.00
N225   N     0.79484   0.54978   0.77374   0.00000  Uiso   1.00
N226   N     0.69289   0.29534   0.77816   0.00000  Uiso   1.00
N227   N     0.94418   0.42174   0.07723   0.00000  Uiso   1.00
N228   N     0.49692   0.55509   0.79026   0.00000  Uiso   1.00
N229   N     0.39496   0.30066   0.79468   0.00000  Uiso   1.00
N230   N     0.64625   0.42706   0.09375   0.00000  Uiso   1.00
C231   C     0.66313   0.07816   0.87493   0.00000  Uiso   1.00
C232   C     0.74751   0.04160   0.85109   0.00000  Uiso   1.00
C233   C     0.65251   0.01382   0.82183   0.00000  Uiso   1.00
C234   C     0.75467   0.98249   0.80348   0.00000  Uiso   1.00
C235   C     0.85676   0.92625   0.76483   0.00000  Uiso   1.00
C236   C     0.77562   0.11172   0.85230   0.00000  Uiso   1.00
C237   C     0.70424   0.14290   0.82406   0.00000  Uiso   1.00
C238   C     0.83006   0.17060   0.80673   0.00000  Uiso   1.00
C239   C     0.97578   0.22324   0.76999   0.00000  Uiso   1.00
C240   C     0.70636   0.07688   0.93472   0.00000  Uiso   1.00
C241   C     0.57675   0.07877   0.97579   0.00000  Uiso   1.00
C242   C     0.64427   0.07715   0.02786   0.00000  Uiso   1.00
C243   C     0.68244   0.07569   0.11909   0.00000  Uiso   1.00
C244   C     0.01349   0.07191   0.89436   0.00000  Uiso   1.00
C245   C     0.93781   0.03821   0.86164   0.00000  Uiso   1.00
C246   C     0.04014   0.00691   0.84333   0.00000  Uiso   1.00
C247   C     0.94531   0.97909   0.81405   0.00000  Uiso   1.00
C248   C     0.96591   0.10833   0.86285   0.00000  Uiso   1.00
C249   C     0.09187   0.13599   0.84556   0.00000  Uiso   1.00
C250   C     0.02071   0.16720   0.81730   0.00000  Uiso   1.00
C251   C     0.89666   0.07348   0.94527   0.00000  Uiso   1.00
C252   C     0.96439   0.07186   0.99728   0.00000  Uiso   1.00
C253   C     0.83491   0.07375   0.03843   0.00000  Uiso   1.00
H254   H     0.51498   0.08080   0.86672   0.00000  Uiso   1.00
H255   H     0.50524   0.01646   0.81367   0.00000  Uiso   1.00
H256   H     0.55697   0.14552   0.81591   0.00000  Uiso   1.00
H257   H     0.42950   0.08140   0.96761   0.00000  Uiso   1.00
H258   H     0.57839   0.94363   0.75950   0.00000  Uiso   1.00
H259   H     0.68744   0.21577   0.76423   0.00000  Uiso   1.00
H260   H     0.41866   0.08057   0.08412   0.00000  Uiso   1.00
H261   H     0.16165   0.06927   0.90258   0.00000  Uiso   1.00
H262   H     0.18740   0.00429   0.85150   0.00000  Uiso   1.00
H263   H     0.23912   0.13335   0.85373   0.00000  Uiso   1.00
H264   H     0.11166   0.06923   0.00544   0.00000  Uiso   1.00
H265   H     0.13206   0.93376   0.79020   0.00000  Uiso   1.00
H266   H     0.24111   0.20590   0.79493   0.00000  Uiso   1.00
H267   H     0.97232   0.07069   0.11482   0.00000  Uiso   1.00
O268   O     0.86051   0.89617   0.74059   0.00000  Uiso   1.00
O269   O     0.00357   0.25321   0.74680   0.00000  Uiso   1.00
O270   O     0.65093   0.07581   0.16649   0.00000  Uiso   1.00
N271   N     0.70516   0.95022   0.77374   0.00000  Uiso   1.00
N272   N     0.80711   0.20466   0.77816   0.00000  Uiso   1.00
N273   N     0.55582   0.07826   0.07723   0.00000  Uiso   1.00
N274   N     0.00308   0.94491   0.79026   0.00000  Uiso   1.00
N275   N     0.10504   0.19934   0.79468   0.00000  Uiso   1.00
N276   N     0.85375   0.07294   0.09375   0.00000  Uiso   1.00
C277   C     0.16313   0.92184   0.62507   0.00000  Uiso   1.00
C278   C     0.24751   0.95840   0.64891   0.00000  Uiso   1.00
C279   C     0.15251   0.98618   0.67817   0.00000  Uiso   1.00
C280   C     0.25467   0.01751   0.69652   0.00000  Uiso   1.00
C281   C     0.35676   0.07375   0.73517   0.00000  Uiso   1.00
C282   C     0.27562   0.88828   0.64770   0.00000  Uiso   1.00
C283   C     0.20424   0.85710   0.67594   0.00000  Uiso   1.00
C284   C     0.33006   0.82940   0.69327   0.00000  Uiso   1.00
C285   C     0.47578   0.77676   0.73001   0.00000  Uiso   1.00
C286   C     0.20636   0.92312   0.56528   0.00000  Uiso   1.00
C287   C     0.07675   0.92123   0.52421   0.00000  Uiso   1.00
C288   C     0.14427   0.92285   0.47214   0.00000  Uiso   1.00
C289   C     0.18244   0.92431   0.38091   0.00000  Uiso   1.00
C290   C     0.51349   0.92809   0.60564   0.00000  Uiso   1.00
C291   C     0.43781   0.96179   0.63836   0.00000  Uiso   1.00
C292   C     0.54014   0.99309   0.65667   0.00000  Uiso   1.00
C293   C     0.44531   0.02091   0.68595   0.00000  Uiso   1.00
C294   C     0.46591   0.89167   0.63715   0.00000  Uiso   1.00
C295   C     0.59187   0.86401   0.65444   0.00000  Uiso   1.00
C296   C     0.52071   0.83280   0.68270   0.00000  Uiso   1.00
C297   C     0.39666   0.92652   0.55473   0.00000  Uiso   1.00
C298   C     0.46439   0.92814   0.50272   0.00000  Uiso   1.00
C299   C     0.33491   0.92625   0.46157   0.00000  Uiso   1.00
H300   H     0.01498   0.91920   0.63328   0.00000  Uiso   1.00
H301   H     0.00524   0.98354   0.68633   0.00000  Uiso   1.00
H302   H     0.05697   0.85448   0.68409   0.00000  Uiso   1.00
H303   H     0.92950   0.91860   0.53239   0.00000  Uiso   1.00
H304   H     0.07839   0.05637   0.74050   0.00000  Uiso   1.00
H305   H     0.18744   0.78423   0.73577   0.00000  Uiso   1.00
H306   H     0.91866   0.91943   0.41588   0.00000  Uiso   1.00
H307   H     0.66165   0.93073   0.59742   0.00000  Uiso   1.00
H308   H     0.68740   0.99571   0.64850   0.00000  Uiso   1.00
H309   H     0.73912   0.86665   0.64627   0.00000  Uiso   1.00
H310   H     0.61166   0.93077   0.49456   0.00000  Uiso   1.00
H311   H     0.63206   0.06624   0.70980   0.00000  Uiso   1.00
H312   H     0.74111   0.79410   0.70507   0.00000  Uiso   1.00
H313   H     0.47232   0.92931   0.38518   0.00000  Uiso   1.00
O314   O     0.36051   0.10383   0.75941   0.00000  Uiso   1.00
O315   O     0.50357   0.74679   0.75320   0.00000  Uiso   1.00
O316   O     0.15093   0.92419   0.33351   0.00000  Uiso   1.00
N317   N     0.20516   0.04978   0.72626   0.00000  Uiso   1.00
N318   N     0.30711   0.79534   0.72184   0.00000  Uiso   1.00
N319   N     0.05582   0.92174   0.42277   0.00000  Uiso   1.00
N320   N     0.50308   0.05509   0.70974   0.00000  Uiso   1.00
N321   N     0.60504   0.80066   0.70532   0.00000  Uiso   1.00
N322   N     0.35375   0.92706   0.40625   0.00000  Uiso   1.00
C323   C     0.33687   0.57816   0.62507   0.00000  Uiso   1.00
C324   C     0.25249   0.54160   0.64891   0.00000  Uiso   1.00
C325   C     0.34749   0.51382   0.67817   0.00000  Uiso   1.00
C326   C     0.24533   0.48249   0.69652   0.00000  Uiso   1.00
C327   C     0.14324   0.42625   0.73517   0.00000  Uiso   1.00
C328   C     0.22438   0.61172   0.64770   0.00000  Uiso   1.00
C329   C     0.29576   0.64290   0.67594   0.00000  Uiso   1.00
C330   C     0.16994   0.67060   0.69327   0.00000  Uiso   1.00
C331   C     0.02422   0.72324   0.73001   0.00000  Uiso   1.00
C332   C     0.29364   0.57688   0.56528   0.00000  Uiso   1.00
C333   C     0.42325   0.57877   0.52421   0.00000  Uiso   1.00
C334   C     0.35573   0.57715   0.47214   0.00000  Uiso   1.00
C335   C     0.31756   0.57569   0.38091   0.00000  Uiso   1.00
C336   C     0.98651   0.57191   0.60564   0.00000  Uiso   1.00
C337   C     0.06219   0.53821   0.63836   0.00000  Uiso   1.00
C338   C     0.95986   0.50691   0.65667   0.00000  Uiso   1.00
C339   C     0.05469   0.47909   0.68595   0.00000  Uiso   1.00
C340   C     0.03409   0.60833   0.63715   0.00000  Uiso   1.00
C341   C     0.90813   0.63599   0.65444   0.00000  Uiso   1.00
C342   C     0.97929   0.66720   0.68270   0.00000  Uiso   1.00
C343   C     0.10334   0.57348   0.55473   0.00000  Uiso   1.00
C344   C     0.03561   0.57186   0.50272   0.00000  Uiso   1.00
C345   C     0.16509   0.57375   0.46157   0.00000  Uiso   1.00
H346   H     0.48502   0.58080   0.63328   0.00000  Uiso   1.00
H347   H     0.49476   0.51646   0.68633   0.00000  Uiso   1.00
H348   H     0.44303   0.64552   0.68409   0.00000  Uiso   1.00
H349   H     0.57050   0.58140   0.53239   0.00000  Uiso   1.00
H350   H     0.42161   0.44363   0.74050   0.00000  Uiso   1.00
H351   H     0.31256   0.71577   0.73577   0.00000  Uiso   1.00
H352   H     0.58134   0.58057   0.41588   0.00000  Uiso   1.00
H353   H     0.83835   0.56927   0.59742   0.00000  Uiso   1.00
H354   H     0.81260   0.50429   0.64850   0.00000  Uiso   1.00
H355   H     0.76088   0.63335   0.64627   0.00000  Uiso   1.00
H356   H     0.88834   0.56923   0.49456   0.00000  Uiso   1.00
H357   H     0.86794   0.43376   0.70980   0.00000  Uiso   1.00
H358   H     0.75889   0.70590   0.70507   0.00000  Uiso   1.00
H359   H     0.02768   0.57069   0.38518   0.00000  Uiso   1.00
O360   O     0.13949   0.39617   0.75941   0.00000  Uiso   1.00
O361   O     0.99643   0.75321   0.75320   0.00000  Uiso   1.00
O362   O     0.34907   0.57581   0.33351   0.00000  Uiso   1.00
N363   N     0.29484   0.45022   0.72626   0.00000  Uiso   1.00
N364   N     0.19289   0.70466   0.72184   0.00000  Uiso   1.00
N365   N     0.44418   0.57826   0.42277   0.00000  Uiso   1.00
N366   N     0.99692   0.44491   0.70974   0.00000  Uiso   1.00
N367   N     0.89496   0.69934   0.70532   0.00000  Uiso   1.00
N368   N     0.14625   0.57294   0.40625   0.00000  Uiso   1.00
