data_job_06714
_audit_creation_date              2018-12-19
_audit_creation_method            'Materials Studio'
_symmetry_space_group_name_H-M    'P1'
_symmetry_Int_Tables_number       1
_symmetry_cell_setting            triclinic
loop_
_symmetry_equiv_pos_as_xyz
  x,y,z
_cell_length_a                    18.9217
_cell_length_b                    19.8500
_cell_length_c                    22.4338
_cell_angle_alpha                 92.4800
_cell_angle_beta                  107.1966
_cell_angle_gamma                 68.3848
loop_
_atom_site_label
_atom_site_type_symbol
_atom_site_fract_x
_atom_site_fract_y
_atom_site_fract_z
_atom_site_U_iso_or_equiv
_atom_site_adp_type
_atom_site_occupancy
C1     C     0.33529   0.63364   0.27257   0.00000  Uiso   1.00
C2     C     0.35830   0.55160   0.27958   0.00000  Uiso   1.00
C3     C     0.42349   0.49950   0.26647   0.00000  Uiso   1.00
C4     C     0.43426   0.42728   0.27592   0.00000  Uiso   1.00
C5     C     0.47796   0.30284   0.28346   0.00000  Uiso   1.00
C6     C     0.24993   0.66392   0.22908   0.00000  Uiso   1.00
C7     C     0.22401   0.70626   0.17352   0.00000  Uiso   1.00
C8     C     0.14356   0.72859   0.14046   0.00000  Uiso   1.00
C9     C     0.01901   0.77857   0.06963   0.00000  Uiso   1.00
C10    C     0.33129   0.66099   0.33652   0.00000  Uiso   1.00
C11    C     0.37376   0.70088   0.37130   0.00000  Uiso   1.00
C12    C     0.36179   0.72075   0.42870   0.00000  Uiso   1.00
C13    C     0.36357   0.76617   0.52468   0.00000  Uiso   1.00
C14    C     0.23849   0.59802   0.31267   0.00000  Uiso   1.00
C15    C     0.30572   0.53226   0.30136   0.00000  Uiso   1.00
C16    C     0.31639   0.46009   0.31083   0.00000  Uiso   1.00
C17    C     0.38159   0.40789   0.29774   0.00000  Uiso   1.00
C18    C     0.19736   0.64457   0.25086   0.00000  Uiso   1.00
C19    C     0.11692   0.66685   0.21788   0.00000  Uiso   1.00
C20    C     0.09088   0.70921   0.16228   0.00000  Uiso   1.00
C21    C     0.27872   0.64163   0.35830   0.00000  Uiso   1.00
C22    C     0.26667   0.66145   0.41566   0.00000  Uiso   1.00
C23    C     0.30912   0.70136   0.45051   0.00000  Uiso   1.00
H24    H     0.37622   0.64871   0.25561   0.00000  Uiso   1.00
H25    H     0.46416   0.51450   0.24961   0.00000  Uiso   1.00
H26    H     0.26471   0.72124   0.15668   0.00000  Uiso   1.00
H27    H     0.41444   0.71584   0.35443   0.00000  Uiso   1.00
H28    H     0.53846   0.35717   0.25254   0.00000  Uiso   1.00
H29    H     0.11791   0.79310   0.05660   0.00000  Uiso   1.00
H30    H     0.43364   0.78174   0.47359   0.00000  Uiso   1.00
H31    H     0.19755   0.58295   0.32962   0.00000  Uiso   1.00
H32    H     0.27569   0.44513   0.32769   0.00000  Uiso   1.00
H33    H     0.07625   0.65186   0.23475   0.00000  Uiso   1.00
H34    H     0.22598   0.64647   0.43250   0.00000  Uiso   1.00
H35    H     0.38549   0.30087   0.31591   0.00000  Uiso   1.00
H36    H     0.96494   0.73680   0.11996   0.00000  Uiso   1.00
H37    H     0.28067   0.72543   0.53695   0.00000  Uiso   1.00
O38    O     0.51658   0.23955   0.28159   0.00000  Uiso   1.00
O39    O     0.96484   0.81148   0.02453   0.00000  Uiso   1.00
O40    O     0.37908   0.79656   0.57161   0.00000  Uiso   1.00
N41    N     0.49174   0.36284   0.26773   0.00000  Uiso   1.00
N42    N     0.09856   0.77039   0.08453   0.00000  Uiso   1.00
N43    N     0.39373   0.75978   0.47438   0.00000  Uiso   1.00
N44    N     0.40943   0.33254   0.30183   0.00000  Uiso   1.00
N45    N     0.01625   0.74010   0.11863   0.00000  Uiso   1.00
N46    N     0.31141   0.72949   0.50847   0.00000  Uiso   1.00
C47    C     0.19108   0.08054   0.20015   0.00000  Uiso   1.00
C48    C     0.19462   0.15606   0.20770   0.00000  Uiso   1.00
C49    C     0.13779   0.21653   0.22222   0.00000  Uiso   1.00
C50    C     0.15197   0.28068   0.22703   0.00000  Uiso   1.00
C51    C     0.14701   0.39742   0.24015   0.00000  Uiso   1.00
C52    C     0.19742   0.06105   0.13493   0.00000  Uiso   1.00
C53    C     0.14295   0.04163   0.08828   0.00000  Uiso   1.00
C54    C     0.15949   0.02579   0.03184   0.00000  Uiso   1.00
C55    C     0.15891   0.99498   0.93200   0.00000  Uiso   1.00
C56    C     0.26772   0.02888   0.24598   0.00000  Uiso   1.00
C57    C     0.27237   0.98241   0.29268   0.00000  Uiso   1.00
C58    C     0.34810   0.93947   0.32972   0.00000  Uiso   1.00
C59    C     0.45668   0.85872   0.40228   0.00000  Uiso   1.00
C60    C     0.31733   0.08691   0.18287   0.00000  Uiso   1.00
C61    C     0.26320   0.15952   0.19831   0.00000  Uiso   1.00
C62    C     0.27747   0.22359   0.20310   0.00000  Uiso   1.00
C63    C     0.22067   0.28415   0.21763   0.00000  Uiso   1.00
C64    C     0.26599   0.06451   0.12554   0.00000  Uiso   1.00
C65    C     0.28263   0.04869   0.06916   0.00000  Uiso   1.00
C66    C     0.22819   0.02926   0.02243   0.00000  Uiso   1.00
C67    C     0.33630   0.03235   0.23659   0.00000  Uiso   1.00
C68    C     0.41204   0.98947   0.27355   0.00000  Uiso   1.00
C69    C     0.41680   0.94294   0.32031   0.00000  Uiso   1.00
H70    H     0.13770   0.07784   0.20746   0.00000  Uiso   1.00
H71    H     0.08473   0.21383   0.22948   0.00000  Uiso   1.00
H72    H     0.08989   0.03895   0.09556   0.00000  Uiso   1.00
H73    H     0.21929   0.97974   0.29993   0.00000  Uiso   1.00
H74    H     0.05623   0.36614   0.24973   0.00000  Uiso   1.00
H75    H     0.06713   0.99737   0.96737   0.00000  Uiso   1.00
H76    H     0.33999   0.87251   0.39831   0.00000  Uiso   1.00
H77    H     0.37072   0.08961   0.17556   0.00000  Uiso   1.00
H78    H     0.33054   0.22625   0.19583   0.00000  Uiso   1.00
H79    H     0.33570   0.05137   0.06191   0.00000  Uiso   1.00
H80    H     0.46510   0.99216   0.26628   0.00000  Uiso   1.00
H81    H     0.25573   0.37622   0.22242   0.00000  Uiso   1.00
H82    H     0.26663   0.00744   0.94005   0.00000  Uiso   1.00
H83    H     0.53949   0.88259   0.37100   0.00000  Uiso   1.00
O84    O     0.12533   0.46086   0.24996   0.00000  Uiso   1.00
O85    O     0.13964   0.97703   0.87952   0.00000  Uiso   1.00
O86    O     0.49762   0.81323   0.44491   0.00000  Uiso   1.00
N87    N     0.10870   0.34975   0.24053   0.00000  Uiso   1.00
N88    N     0.11889   0.00499   0.97654   0.00000  Uiso   1.00
N89    N     0.37399   0.88824   0.37942   0.00000  Uiso   1.00
N90    N     0.21606   0.35518   0.22584   0.00000  Uiso   1.00
N91    N     0.22624   0.01041   0.96184   0.00000  Uiso   1.00
N92    N     0.48134   0.89367   0.36472   0.00000  Uiso   1.00
C93    C     0.95266   0.00102   0.23262   0.00000  Uiso   1.00
C94    C     0.87325   0.02121   0.24613   0.00000  Uiso   1.00
C95    C     0.84848   0.97398   0.27077   0.00000  Uiso   1.00
C96    C     0.77375   0.00301   0.27964   0.00000  Uiso   1.00
C97    C     0.65775   0.02316   0.30291   0.00000  Uiso   1.00
C98    C     0.93208   0.02350   0.16357   0.00000  Uiso   1.00
C99    C     0.95679   0.97819   0.11880   0.00000  Uiso   1.00
C100   C     0.93159   0.00915   0.05817   0.00000  Uiso   1.00
C101   C     0.90698   0.03286   0.95327   0.00000  Uiso   1.00
C102   C     0.99188   0.05124   0.26893   0.00000  Uiso   1.00
C103   C     0.06687   0.02926   0.31273   0.00000  Uiso   1.00
C104   C     0.09202   0.08358   0.34080   0.00000  Uiso   1.00
C105   C     0.16025   0.15036   0.39949   0.00000  Uiso   1.00
C106   C     0.86398   0.13658   0.20457   0.00000  Uiso   1.00
C107   C     0.82508   0.09484   0.23089   0.00000  Uiso   1.00
C108   C     0.75037   0.12396   0.23973   0.00000  Uiso   1.00
C109   C     0.72549   0.07677   0.26438   0.00000  Uiso   1.00
C110   C     0.88392   0.09712   0.14833   0.00000  Uiso   1.00
C111   C     0.85868   0.12817   0.08776   0.00000  Uiso   1.00
C112   C     0.88333   0.08291   0.04291   0.00000  Uiso   1.00
C113   C     0.94371   0.12487   0.25370   0.00000  Uiso   1.00
C114   C     0.96875   0.17924   0.28170   0.00000  Uiso   1.00
C115   C     0.04377   0.15734   0.32554   0.00000  Uiso   1.00
H116   H     0.99016   0.94370   0.24448   0.00000  Uiso   1.00
H117   H     0.88577   0.91700   0.28255   0.00000  Uiso   1.00
H118   H     0.99407   0.92122   0.13060   0.00000  Uiso   1.00
H119   H     0.10413   0.97228   0.32451   0.00000  Uiso   1.00
H120   H     0.74878   0.91987   0.31801   0.00000  Uiso   1.00
H121   H     0.97716   0.92876   0.99763   0.00000  Uiso   1.00
H122   H     0.20924   0.03643   0.40652   0.00000  Uiso   1.00
H123   H     0.82648   0.19390   0.19271   0.00000  Uiso   1.00
H124   H     0.71310   0.18094   0.22794   0.00000  Uiso   1.00
H125   H     0.82140   0.18515   0.07599   0.00000  Uiso   1.00
H126   H     0.93146   0.23621   0.26990   0.00000  Uiso   1.00
H127   H     0.60864   0.13408   0.27369   0.00000  Uiso   1.00
H128   H     0.83702   0.14297   0.95331   0.00000  Uiso   1.00
H129   H     0.06910   0.25065   0.36220   0.00000  Uiso   1.00
O130   O     0.60707   0.01393   0.31994   0.00000  Uiso   1.00
O131   O     0.90671   0.02559   0.89962   0.00000  Uiso   1.00
O132   O     0.21119   0.16686   0.43608   0.00000  Uiso   1.00
N133   N     0.73137   0.97207   0.30276   0.00000  Uiso   1.00
N134   N     0.94487   0.98037   0.00322   0.00000  Uiso   1.00
N135   N     0.16186   0.08104   0.38549   0.00000  Uiso   1.00
N136   N     0.65595   0.08734   0.27891   0.00000  Uiso   1.00
N137   N     0.86946   0.09564   0.97937   0.00000  Uiso   1.00
N138   N     0.08645   0.19631   0.36164   0.00000  Uiso   1.00
C139   C     0.93687   0.63483   0.69575   0.00000  Uiso   1.00
C140   C     0.85814   0.66958   0.71067   0.00000  Uiso   1.00
C141   C     0.82023   0.74308   0.71631   0.00000  Uiso   1.00
C142   C     0.74864   0.76404   0.73016   0.00000  Uiso   1.00
C143   C     0.63130   0.82572   0.75210   0.00000  Uiso   1.00
C144   C     0.91971   0.59372   0.63760   0.00000  Uiso   1.00
C145   C     0.93359   0.60345   0.58180   0.00000  Uiso   1.00
C146   C     0.91384   0.56054   0.53414   0.00000  Uiso   1.00
C147   C     0.89215   0.50442   0.44265   0.00000  Uiso   1.00
C148   C     0.99181   0.57711   0.74895   0.00000  Uiso   1.00
C149   C     0.06633   0.57286   0.78677   0.00000  Uiso   1.00
C150   C     0.10729   0.51595   0.83285   0.00000  Uiso   1.00
C151   C     0.19755   0.43404   0.91426   0.00000  Uiso   1.00
C152   C     0.87712   0.54133   0.71033   0.00000  Uiso   1.00
C153   C     0.82568   0.61879   0.71859   0.00000  Uiso   1.00
C154   C     0.75412   0.63963   0.73245   0.00000  Uiso   1.00
C155   C     0.71612   0.71316   0.73810   0.00000  Uiso   1.00
C156   C     0.88726   0.54294   0.64552   0.00000  Uiso   1.00
C157   C     0.86748   0.50000   0.59793   0.00000  Uiso   1.00
C158   C     0.88132   0.50966   0.54207   0.00000  Uiso   1.00
C159   C     0.95936   0.52633   0.75688   0.00000  Uiso   1.00
C160   C     0.00021   0.46941   0.80291   0.00000  Uiso   1.00
C161   C     0.07478   0.46507   0.84079   0.00000  Uiso   1.00
H162   H     0.96214   0.67437   0.68957   0.00000  Uiso   1.00
H163   H     0.84537   0.78237   0.71017   0.00000  Uiso   1.00
H164   H     0.95872   0.64275   0.57568   0.00000  Uiso   1.00
H165   H     0.09143   0.61217   0.78062   0.00000  Uiso   1.00
H166   H     0.70157   0.87972   0.73647   0.00000  Uiso   1.00
H167   H     0.94061   0.58530   0.45290   0.00000  Uiso   1.00
H168   H     0.22046   0.52081   0.88507   0.00000  Uiso   1.00
H169   H     0.85185   0.50179   0.71650   0.00000  Uiso   1.00
H170   H     0.72902   0.60032   0.73857   0.00000  Uiso   1.00
H171   H     0.84237   0.46070   0.60408   0.00000  Uiso   1.00
H172   H     0.97508   0.43012   0.80903   0.00000  Uiso   1.00
H173   H     0.60714   0.73196   0.75952   0.00000  Uiso   1.00
H174   H     0.84618   0.43754   0.47596   0.00000  Uiso   1.00
H175   H     0.12602   0.37305   0.90812   0.00000  Uiso   1.00
O176   O     0.57553   0.87377   0.76201   0.00000  Uiso   1.00
O177   O     0.88915   0.48751   0.38999   0.00000  Uiso   1.00
O178   O     0.25630   0.40290   0.95698   0.00000  Uiso   1.00
N179   N     0.69621   0.83142   0.73888   0.00000  Uiso   1.00
N180   N     0.91968   0.55617   0.47376   0.00000  Uiso   1.00
N181   N     0.18133   0.49586   0.87778   0.00000  Uiso   1.00
N182   N     0.64540   0.75191   0.75128   0.00000  Uiso   1.00
N183   N     0.86887   0.47666   0.48616   0.00000  Uiso   1.00
N184   N     0.13051   0.41635   0.89019   0.00000  Uiso   1.00
C185   C     0.45820   0.40802   0.75989   0.00000  Uiso   1.00
C186   C     0.53099   0.42062   0.75465   0.00000  Uiso   1.00
C187   C     0.60988   0.37566   0.78205   0.00000  Uiso   1.00
C188   C     0.66785   0.39667   0.77167   0.00000  Uiso   1.00
C189   C     0.78396   0.40653   0.76906   0.00000  Uiso   1.00
C190   C     0.40749   0.40782   0.69296   0.00000  Uiso   1.00
C191   C     0.38254   0.35210   0.66849   0.00000  Uiso   1.00
C192   C     0.33653   0.36235   0.60618   0.00000  Uiso   1.00
C193   C     0.26086   0.35236   0.50780   0.00000  Uiso   1.00
C194   C     0.41052   0.47597   0.78604   0.00000  Uiso   1.00
C195   C     0.38809   0.47756   0.83981   0.00000  Uiso   1.00
C196   C     0.34462   0.54518   0.85586   0.00000  Uiso   1.00
C197   C     0.27365   0.64101   0.90200   0.00000  Uiso   1.00
C198   C     0.42085   0.52527   0.69275   0.00000  Uiso   1.00
C199   C     0.51070   0.48430   0.71818   0.00000  Uiso   1.00
C200   C     0.56857   0.50539   0.70777   0.00000  Uiso   1.00
C201   C     0.64753   0.46048   0.73514   0.00000  Uiso   1.00
C202   C     0.38721   0.47150   0.65649   0.00000  Uiso   1.00
C203   C     0.34122   0.48184   0.59421   0.00000  Uiso   1.00
C204   C     0.31621   0.42615   0.56964   0.00000  Uiso   1.00
C205   C     0.39024   0.53966   0.74957   0.00000  Uiso   1.00
C206   C     0.34678   0.60729   0.76553   0.00000  Uiso   1.00
C207   C     0.32430   0.60899   0.81932   0.00000  Uiso   1.00
H208   H     0.47399   0.35843   0.78828   0.00000  Uiso   1.00
H209   H     0.62556   0.32637   0.81026   0.00000  Uiso   1.00
H210   H     0.39824   0.30283   0.69672   0.00000  Uiso   1.00
H211   H     0.40380   0.42826   0.86802   0.00000  Uiso   1.00
H212   H     0.78465   0.31891   0.81853   0.00000  Uiso   1.00
H213   H     0.30532   0.26927   0.57913   0.00000  Uiso   1.00
H214   H     0.31704   0.53377   0.94035   0.00000  Uiso   1.00
H215   H     0.40506   0.57486   0.66436   0.00000  Uiso   1.00
H216   H     0.55285   0.55468   0.67954   0.00000  Uiso   1.00
H217   H     0.32553   0.53113   0.56600   0.00000  Uiso   1.00
H218   H     0.33109   0.65657   0.73730   0.00000  Uiso   1.00
H219   H     0.72564   0.50421   0.71244   0.00000  Uiso   1.00
H220   H     0.24630   0.45457   0.47304   0.00000  Uiso   1.00
H221   H     0.25803   0.71907   0.83425   0.00000  Uiso   1.00
O222   O     0.85361   0.39437   0.77769   0.00000  Uiso   1.00
O223   O     0.22473   0.32925   0.46362   0.00000  Uiso   1.00
O224   O     0.24012   0.67627   0.93753   0.00000  Uiso   1.00
N225   N     0.75048   0.36530   0.79149   0.00000  Uiso   1.00
N226   N     0.30234   0.31888   0.56766   0.00000  Uiso   1.00
N227   N     0.31329   0.56617   0.90536   0.00000  Uiso   1.00
N228   N     0.71873   0.46501   0.73440   0.00000  Uiso   1.00
N229   N     0.27059   0.41859   0.51057   0.00000  Uiso   1.00
N230   N     0.28153   0.66587   0.84827   0.00000  Uiso   1.00
C231   C     0.19407   0.18136   0.75041   0.00000  Uiso   1.00
C232   C     0.22523   0.09855   0.75385   0.00000  Uiso   1.00
C233   C     0.19570   0.05527   0.77825   0.00000  Uiso   1.00
C234   C     0.23236   0.98062   0.77710   0.00000  Uiso   1.00
C235   C     0.27100   0.85664   0.78617   0.00000  Uiso   1.00
C236   C     0.17222   0.20597   0.68169   0.00000  Uiso   1.00
C237   C     0.09811   0.25301   0.64544   0.00000  Uiso   1.00
C238   C     0.09016   0.26879   0.58355   0.00000  Uiso   1.00
C239   C     0.04651   0.31161   0.48061   0.00000  Uiso   1.00
C240   C     0.26539   0.20145   0.78453   0.00000  Uiso   1.00
C241   C     0.26961   0.24471   0.83474   0.00000  Uiso   1.00
C242   C     0.34010   0.25670   0.85943   0.00000  Uiso   1.00
C243   C     0.44110   0.29252   0.91617   0.00000  Uiso   1.00
C244   C     0.31172   0.12576   0.70496   0.00000  Uiso   1.00
C245   C     0.28913   0.06836   0.72916   0.00000  Uiso   1.00
C246   C     0.32586   0.99375   0.72797   0.00000  Uiso   1.00
C247   C     0.29638   0.95036   0.75238   0.00000  Uiso   1.00
C248   C     0.23612   0.17577   0.65701   0.00000  Uiso   1.00
C249   C     0.22828   0.19149   0.59516   0.00000  Uiso   1.00
C250   C     0.15418   0.23853   0.55882   0.00000  Uiso   1.00
C251   C     0.32929   0.17125   0.75985   0.00000  Uiso   1.00
C252   C     0.39978   0.18319   0.78446   0.00000  Uiso   1.00
C253   C     0.40411   0.22645   0.83470   0.00000  Uiso   1.00
H254   H     0.14432   0.20487   0.76962   0.00000  Uiso   1.00
H255   H     0.14624   0.07866   0.79735   0.00000  Uiso   1.00
H256   H     0.04868   0.27637   0.66456   0.00000  Uiso   1.00
H257   H     0.22015   0.26807   0.85383   0.00000  Uiso   1.00
H258   H     0.17652   0.92541   0.81718   0.00000  Uiso   1.00
H259   H     0.97082   0.34232   0.53719   0.00000  Uiso   1.00
H260   H     0.33240   0.32482   0.93631   0.00000  Uiso   1.00
H261   H     0.36147   0.10225   0.68574   0.00000  Uiso   1.00
H262   H     0.37531   0.97040   0.70886   0.00000  Uiso   1.00
H263   H     0.27774   0.16811   0.57607   0.00000  Uiso   1.00
H264   H     0.44921   0.15981   0.76535   0.00000  Uiso   1.00
H265   H     0.36244   0.83754   0.74536   0.00000  Uiso   1.00
H266   H     0.15673   0.25445   0.46537   0.00000  Uiso   1.00
H267   H     0.51832   0.23695   0.86449   0.00000  Uiso   1.00
O268   O     0.27465   0.79659   0.79798   0.00000  Uiso   1.00
O269   O     0.00477   0.34357   0.43065   0.00000  Uiso   1.00
O270   O     0.47917   0.32061   0.95429   0.00000  Uiso   1.00
N271   N     0.21839   0.92282   0.79712   0.00000  Uiso   1.00
N272   N     0.02607   0.31260   0.53534   0.00000  Uiso   1.00
N273   N     0.36411   0.29625   0.90848   0.00000  Uiso   1.00
N274   N     0.31843   0.87554   0.75847   0.00000  Uiso   1.00
N275   N     0.12611   0.26532   0.49670   0.00000  Uiso   1.00
N276   N     0.46415   0.24897   0.86983   0.00000  Uiso   1.00
C277   C     0.75418   0.21017   0.61744   0.00000  Uiso   1.00
C278   C     0.70170   0.29002   0.59878   0.00000  Uiso   1.00
C279   C     0.61938   0.31985   0.58530   0.00000  Uiso   1.00
C280   C     0.58235   0.39407   0.56920   0.00000  Uiso   1.00
C281   C     0.49419   0.51154   0.54064   0.00000  Uiso   1.00
C282   C     0.81524   0.20852   0.68006   0.00000  Uiso   1.00
C283   C     0.82838   0.16982   0.73491   0.00000  Uiso   1.00
C284   C     0.88694   0.17542   0.78721   0.00000  Uiso   1.00
C285   C     0.97510   0.16633   0.88482   0.00000  Uiso   1.00
C286   C     0.80088   0.18595   0.57031   0.00000  Uiso   1.00
C287   C     0.80197   0.12826   0.53289   0.00000  Uiso   1.00
C288   C     0.84846   0.11485   0.49280   0.00000  Uiso   1.00
C289   C     0.91432   0.07072   0.42001   0.00000  Uiso   1.00
C290   C     0.83482   0.28893   0.61280   0.00000  Uiso   1.00
C291   C     0.74550   0.33279   0.59627   0.00000  Uiso   1.00
C292   C     0.70859   0.40698   0.58017   0.00000  Uiso   1.00
C293   C     0.62622   0.43692   0.56667   0.00000  Uiso   1.00
C294   C     0.85904   0.25129   0.67754   0.00000  Uiso   1.00
C295   C     0.91760   0.25695   0.72978   0.00000  Uiso   1.00
C296   C     0.93082   0.21827   0.78469   0.00000  Uiso   1.00
C297   C     0.84468   0.22873   0.56779   0.00000  Uiso   1.00
C298   C     0.89118   0.21540   0.52776   0.00000  Uiso   1.00
C299   C     0.89234   0.15770   0.49028   0.00000  Uiso   1.00
H300   H     0.72009   0.17687   0.61940   0.00000  Uiso   1.00
H301   H     0.58550   0.28673   0.58726   0.00000  Uiso   1.00
H302   H     0.79448   0.13672   0.73684   0.00000  Uiso   1.00
H303   H     0.76807   0.09517   0.53485   0.00000  Uiso   1.00
H304   H     0.45561   0.42740   0.55054   0.00000  Uiso   1.00
H305   H     0.89627   0.11107   0.86592   0.00000  Uiso   1.00
H306   H     0.84057   0.02346   0.43999   0.00000  Uiso   1.00
H307   H     0.86892   0.32223   0.61084   0.00000  Uiso   1.00
H308   H     0.74250   0.44007   0.57823   0.00000  Uiso   1.00
H309   H     0.95148   0.29005   0.72781   0.00000  Uiso   1.00
H310   H     0.92506   0.24851   0.52582   0.00000  Uiso   1.00
H311   H     0.58303   0.55186   0.54321   0.00000  Uiso   1.00
H312   H     0.02370   0.23552   0.85860   0.00000  Uiso   1.00
H313   H     0.96800   0.14792   0.43266   0.00000  Uiso   1.00
O314   O     0.43347   0.56453   0.52560   0.00000  Uiso   1.00
O315   O     0.01161   0.14950   0.93936   0.00000  Uiso   1.00
O316   O     0.93854   0.03457   0.38055   0.00000  Uiso   1.00
N317   N     0.50294   0.44052   0.55328   0.00000  Uiso   1.00
N318   N     0.91493   0.14477   0.84815   0.00000  Uiso   1.00
N319   N     0.86288   0.06286   0.44995   0.00000  Uiso   1.00
N320   N     0.57151   0.50748   0.54933   0.00000  Uiso   1.00
N321   N     0.98350   0.21174   0.84420   0.00000  Uiso   1.00
N322   N     0.93144   0.12983   0.44600   0.00000  Uiso   1.00
C323   C     0.63553   0.97465   0.59554   0.00000  Uiso   1.00
C324   C     0.61915   0.90466   0.59184   0.00000  Uiso   1.00
C325   C     0.66785   0.83778   0.57862   0.00000  Uiso   1.00
C326   C     0.64236   0.78036   0.57741   0.00000  Uiso   1.00
C327   C     0.62783   0.67027   0.56993   0.00000  Uiso   1.00
C328   C     0.63385   0.00043   0.66032   0.00000  Uiso   1.00
C329   C     0.69492   0.01409   0.70466   0.00000  Uiso   1.00
C330   C     0.68179   0.03729   0.76109   0.00000  Uiso   1.00
C331   C     0.69008   0.07594   0.85990   0.00000  Uiso   1.00
C332   C     0.56320   0.03047   0.54912   0.00000  Uiso   1.00
C333   C     0.56487   0.06941   0.49998   0.00000  Uiso   1.00
C334   C     0.49226   0.11793   0.46280   0.00000  Uiso   1.00
C335   C     0.39085   0.20322   0.38896   0.00000  Uiso   1.00
C336   C     0.50362   0.99159   0.61691   0.00000  Uiso   1.00
C337   C     0.54750   0.91386   0.60345   0.00000  Uiso   1.00
C338   C     0.52192   0.85653   0.60226   0.00000  Uiso   1.00
C339   C     0.57058   0.78958   0.58904   0.00000  Uiso   1.00
C340   C     0.56221   0.00963   0.67193   0.00000  Uiso   1.00
C341   C     0.54898   0.03283   0.72830   0.00000  Uiso   1.00
C342   C     0.61002   0.04651   0.77272   0.00000  Uiso   1.00
C343   C     0.49155   0.03968   0.56073   0.00000  Uiso   1.00
C344   C     0.41893   0.08815   0.52362   0.00000  Uiso   1.00
C345   C     0.42048   0.12714   0.47443   0.00000  Uiso   1.00
H346   H     0.69131   0.96749   0.58651   0.00000  Uiso   1.00
H347   H     0.72330   0.83068   0.56964   0.00000  Uiso   1.00
H348   H     0.75036   0.00697   0.69566   0.00000  Uiso   1.00
H349   H     0.62032   0.06228   0.49101   0.00000  Uiso   1.00
H350   H     0.72719   0.68306   0.55609   0.00000  Uiso   1.00
H351   H     0.78423   0.05479   0.82180   0.00000  Uiso   1.00
H352   H     0.51003   0.17142   0.39025   0.00000  Uiso   1.00
H353   H     0.44784   0.99876   0.62595   0.00000  Uiso   1.00
H354   H     0.46647   0.86366   0.61125   0.00000  Uiso   1.00
H355   H     0.49353   0.03995   0.73727   0.00000  Uiso   1.00
H356   H     0.36350   0.09525   0.53261   0.00000  Uiso   1.00
H357   H     0.51874   0.70983   0.58985   0.00000  Uiso   1.00
H358   H     0.57578   0.08156   0.85557   0.00000  Uiso   1.00
H359   H     0.30157   0.19818   0.42401   0.00000  Uiso   1.00
O360   O     0.63962   0.60700   0.56261   0.00000  Uiso   1.00
O361   O     0.71445   0.09471   0.91120   0.00000  Uiso   1.00
O362   O     0.35471   0.24772   0.34502   0.00000  Uiso   1.00
N363   N     0.67556   0.70790   0.56604   0.00000  Uiso   1.00
N364   N     0.72890   0.05543   0.81447   0.00000  Uiso   1.00
N365   N     0.47254   0.16449   0.41101   0.00000  Uiso   1.00
N366   N     0.56340   0.72230   0.58421   0.00000  Uiso   1.00
N367   N     0.61673   0.06984   0.83264   0.00000  Uiso   1.00
N368   N     0.36038   0.17889   0.42918   0.00000  Uiso   1.00
C369   C     0.97639   0.95866   0.64312   0.00000  Uiso   1.00
C370   C     0.05016   0.95277   0.62535   0.00000  Uiso   1.00
C371   C     0.06695   0.01065   0.60918   0.00000  Uiso   1.00
C372   C     0.13754   0.99391   0.59447   0.00000  Uiso   1.00
C373   C     0.24421   0.99573   0.56670   0.00000  Uiso   1.00
C374   C     0.00708   0.91861   0.70762   0.00000  Uiso   1.00
C375   C     0.98763   0.94778   0.76061   0.00000  Uiso   1.00
C376   C     0.02194   0.90229   0.81515   0.00000  Uiso   1.00
C377   C     0.06167   0.85107   0.91509   0.00000  Uiso   1.00
C378   C     0.93740   0.91368   0.59819   0.00000  Uiso   1.00
C379   C     0.85936   0.93869   0.55918   0.00000  Uiso   1.00
C380   C     0.83500   0.88903   0.52160   0.00000  Uiso   1.00
C381   C     0.76655   0.83015   0.45162   0.00000  Uiso   1.00
C382   C     0.07190   0.82600   0.64574   0.00000  Uiso   1.00
C383   C     0.10203   0.88071   0.62678   0.00000  Uiso   1.00
C384   C     0.17261   0.86388   0.61209   0.00000  Uiso   1.00
C385   C     0.18951   0.92173   0.59589   0.00000  Uiso   1.00
C386   C     0.05895   0.84656   0.70905   0.00000  Uiso   1.00
C387   C     0.09329   0.80102   0.76352   0.00000  Uiso   1.00
C388   C     0.07391   0.83011   0.81658   0.00000  Uiso   1.00
C389   C     0.98927   0.84162   0.59961   0.00000  Uiso   1.00
C390   C     0.96503   0.79192   0.56208   0.00000  Uiso   1.00
C391   C     0.88697   0.81685   0.52303   0.00000  Uiso   1.00
H392   H     0.93601   0.01475   0.64202   0.00000  Uiso   1.00
H393   H     0.02680   0.06640   0.60809   0.00000  Uiso   1.00
H394   H     0.94748   0.00354   0.75950   0.00000  Uiso   1.00
H395   H     0.81924   0.99445   0.55809   0.00000  Uiso   1.00
H396   H     0.15034   0.09190   0.57113   0.00000  Uiso   1.00
H397   H     0.98307   0.95935   0.89037   0.00000  Uiso   1.00
H398   H     0.71265   0.94017   0.46568   0.00000  Uiso   1.00
H399   H     0.11228   0.76990   0.64685   0.00000  Uiso   1.00
H400   H     0.21275   0.80812   0.61319   0.00000  Uiso   1.00
H401   H     0.13343   0.74526   0.76460   0.00000  Uiso   1.00
H402   H     0.00518   0.73616   0.56320   0.00000  Uiso   1.00
H403   H     0.30127   0.88226   0.57528   0.00000  Uiso   1.00
H404   H     0.13399   0.74971   0.89452   0.00000  Uiso   1.00
H405   H     0.86357   0.73053   0.46982   0.00000  Uiso   1.00
O406   O     0.28872   0.01664   0.55099   0.00000  Uiso   1.00
O407   O     0.06926   0.84273   0.96982   0.00000  Uiso   1.00
O408   O     0.71447   0.81758   0.41263   0.00000  Uiso   1.00
N409   N     0.17207   0.03731   0.57671   0.00000  Uiso   1.00
N410   N     0.01569   0.91339   0.87519   0.00000  Uiso   1.00
N411   N     0.76286   0.89546   0.47815   0.00000  Uiso   1.00
N412   N     0.25328   0.92451   0.57894   0.00000  Uiso   1.00
N413   N     0.09690   0.80059   0.87742   0.00000  Uiso   1.00
N414   N     0.84407   0.78265   0.48037   0.00000  Uiso   1.00
C415   C     0.91292   0.43841   0.07563   0.00000  Uiso   1.00
C416   C     0.99390   0.40332   0.06433   0.00000  Uiso   1.00
C417   C     0.03498   0.32929   0.06380   0.00000  Uiso   1.00
C418   C     0.10823   0.30809   0.05261   0.00000  Uiso   1.00
C419   C     0.22927   0.24584   0.03666   0.00000  Uiso   1.00
C420   C     0.92491   0.48499   0.13076   0.00000  Uiso   1.00
C421   C     0.90797   0.47964   0.18608   0.00000  Uiso   1.00
C422   C     0.92313   0.52720   0.23081   0.00000  Uiso   1.00
C423   C     0.93701   0.59177   0.31797   0.00000  Uiso   1.00
C424   C     0.85903   0.49133   0.01883   0.00000  Uiso   1.00
C425   C     0.78670   0.49133   0.98006   0.00000  Uiso   1.00
C426   C     0.74638   0.54424   0.93056   0.00000  Uiso   1.00
C427   C     0.65798   0.61867   0.84395   0.00000  Uiso   1.00
C428   C     0.96994   0.53240   0.05669   0.00000  Uiso   1.00
C429   C     0.02487   0.45437   0.05404   0.00000  Uiso   1.00
C430   C     0.09807   0.43328   0.04284   0.00000  Uiso   1.00
C431   C     0.13925   0.35924   0.04230   0.00000  Uiso   1.00
C432   C     0.95588   0.53604   0.12047   0.00000  Uiso   1.00
C433   C     0.97105   0.58362   0.16512   0.00000  Uiso   1.00
C434   C     0.95415   0.57834   0.22050   0.00000  Uiso   1.00
C435   C     0.89000   0.54238   0.00854   0.00000  Uiso   1.00
C436   C     0.84978   0.59531   0.95910   0.00000  Uiso   1.00
C437   C     0.77740   0.59539   0.92026   0.00000  Uiso   1.00
H438   H     0.88881   0.39867   0.08364   0.00000  Uiso   1.00
H439   H     0.01100   0.28980   0.07177   0.00000  Uiso   1.00
H440   H     0.88400   0.44013   0.19403   0.00000  Uiso   1.00
H441   H     0.76275   0.45182   0.98804   0.00000  Uiso   1.00
H442   H     0.16014   0.19162   0.05410   0.00000  Uiso   1.00
H443   H     0.89234   0.50861   0.31187   0.00000  Uiso   1.00
H444   H     0.63664   0.53325   0.87750   0.00000  Uiso   1.00
H445   H     0.99405   0.57215   0.04868   0.00000  Uiso   1.00
H446   H     0.12201   0.47280   0.03488   0.00000  Uiso   1.00
H447   H     0.99502   0.62312   0.15714   0.00000  Uiso   1.00
H448   H     0.87376   0.63481   0.95115   0.00000  Uiso   1.00
H449   H     0.25025   0.34014   0.02416   0.00000  Uiso   1.00
H450   H     0.98243   0.65713   0.28194   0.00000  Uiso   1.00
H451   H     0.72675   0.68178   0.84756   0.00000  Uiso   1.00
O452   O     0.28749   0.19740   0.03071   0.00000  Uiso   1.00
O453   O     0.93612   0.61328   0.36889   0.00000  Uiso   1.00
O454   O     0.60067   0.64561   0.79901   0.00000  Uiso   1.00
N455   N     0.16378   0.24021   0.04893   0.00000  Uiso   1.00
N456   N     0.91341   0.53656   0.28994   0.00000  Uiso   1.00
N457   N     0.67435   0.55962   0.88385   0.00000  Uiso   1.00
N458   N     0.21226   0.32013   0.03282   0.00000  Uiso   1.00
N459   N     0.96189   0.61649   0.27383   0.00000  Uiso   1.00
N460   N     0.72283   0.63954   0.86774   0.00000  Uiso   1.00
C461   C     0.59338   0.45633   0.11923   0.00000  Uiso   1.00
C462   C     0.50652   0.46667   0.10870   0.00000  Uiso   1.00
C463   C     0.44163   0.53177   0.09027   0.00000  Uiso   1.00
C464   C     0.36698   0.52990   0.08321   0.00000  Uiso   1.00
C465   C     0.23353   0.55580   0.06522   0.00000  Uiso   1.00
C466   C     0.63791   0.42291   0.18606   0.00000  Uiso   1.00
C467   C     0.68349   0.45122   0.23267   0.00000  Uiso   1.00
C468   C     0.71945   0.41251   0.29074   0.00000  Uiso   1.00
C469   C     0.79003   0.37044   0.39285   0.00000  Uiso   1.00
C470   C     0.62395   0.39780   0.07680   0.00000  Uiso   1.00
C471   C     0.65782   0.40499   0.03155   0.00000  Uiso   1.00
C472   C     0.68205   0.34513   0.99763   0.00000  Uiso   1.00
C473   C     0.73095   0.26408   0.93009   0.00000  Uiso   1.00
C474   C     0.57621   0.33723   0.13947   0.00000  Uiso   1.00
C475   C     0.49720   0.40197   0.11969   0.00000  Uiso   1.00
C476   C     0.42262   0.40000   0.11266   0.00000  Uiso   1.00
C477   C     0.35763   0.46509   0.09422   0.00000  Uiso   1.00
C478   C     0.62858   0.35822   0.19706   0.00000  Uiso   1.00
C479   C     0.66449   0.31945   0.25507   0.00000  Uiso   1.00
C480   C     0.71011   0.34769   0.30175   0.00000  Uiso   1.00
C481   C     0.61462   0.33311   0.08779   0.00000  Uiso   1.00
C482   C     0.63881   0.27322   0.05394   0.00000  Uiso   1.00
C483   C     0.67270   0.28032   0.00864   0.00000  Uiso   1.00
H484   H     0.60065   0.50670   0.11067   0.00000  Uiso   1.00
H485   H     0.44887   0.58183   0.08177   0.00000  Uiso   1.00
H486   H     0.69070   0.50128   0.22415   0.00000  Uiso   1.00
H487   H     0.66503   0.45506   0.02306   0.00000  Uiso   1.00
H488   H     0.27649   0.63660   0.05460   0.00000  Uiso   1.00
H489   H     0.78642   0.46676   0.35481   0.00000  Uiso   1.00
H490   H     0.73229   0.36929   0.93076   0.00000  Uiso   1.00
H491   H     0.56895   0.28686   0.14803   0.00000  Uiso   1.00
H492   H     0.41542   0.34993   0.12117   0.00000  Uiso   1.00
H493   H     0.65726   0.26938   0.26355   0.00000  Uiso   1.00
H494   H     0.63158   0.22316   0.06246   0.00000  Uiso   1.00
H495   H     0.24934   0.44838   0.08658   0.00000  Uiso   1.00
H496   H     0.75928   0.27853   0.38679   0.00000  Uiso   1.00
H497   H     0.70514   0.18107   0.96274   0.00000  Uiso   1.00
O498   O     0.16249   0.58795   0.05227   0.00000  Uiso   1.00
O499   O     0.83153   0.36511   0.44613   0.00000  Uiso   1.00
O500   O     0.76049   0.23724   0.88979   0.00000  Uiso   1.00
N501   N     0.29116   0.58365   0.06580   0.00000  Uiso   1.00
N502   N     0.76792   0.42486   0.34648   0.00000  Uiso   1.00
N503   N     0.71732   0.33373   0.95004   0.00000  Uiso   1.00
N504   N     0.27656   0.48237   0.08300   0.00000  Uiso   1.00
N505   N     0.75331   0.32358   0.36369   0.00000  Uiso   1.00
N506   N     0.70271   0.23245   0.96725   0.00000  Uiso   1.00
C507   C     0.66831   0.77634   0.15585   0.00000  Uiso   1.00
C508   C     0.62884   0.85897   0.14687   0.00000  Uiso   1.00
C509   C     0.66403   0.90591   0.13685   0.00000  Uiso   1.00
C510   C     0.61798   0.97969   0.12977   0.00000  Uiso   1.00
C511   C     0.56863   0.10405   0.11542   0.00000  Uiso   1.00
C512   C     0.66286   0.75513   0.21839   0.00000  Uiso   1.00
C513   C     0.72666   0.71474   0.26849   0.00000  Uiso   1.00
C514   C     0.70924   0.70110   0.32161   0.00000  Uiso   1.00
C515   C     0.71270   0.66421   0.41829   0.00000  Uiso   1.00
C516   C     0.61431   0.74754   0.10588   0.00000  Uiso   1.00
C517   C     0.63730   0.70076   0.06139   0.00000  Uiso   1.00
C518   C     0.57902   0.68072   0.01980   0.00000  Uiso   1.00
C519   C     0.50710   0.63205   0.94178   0.00000  Uiso   1.00
C520   C     0.52394   0.82391   0.16108   0.00000  Uiso   1.00
C521   C     0.55042   0.88480   0.14971   0.00000  Uiso   1.00
C522   C     0.50430   0.95854   0.14264   0.00000  Uiso   1.00
C523   C     0.53942   0.00557   0.13261   0.00000  Uiso   1.00
C524   C     0.58444   0.78096   0.22123   0.00000  Uiso   1.00
C525   C     0.56693   0.76737   0.27428   0.00000  Uiso   1.00
C526   C     0.63068   0.72699   0.32446   0.00000  Uiso   1.00
C527   C     0.53590   0.77338   0.10872   0.00000  Uiso   1.00
C528   C     0.47757   0.75340   0.06718   0.00000  Uiso   1.00
C529   C     0.50046   0.70661   0.02265   0.00000  Uiso   1.00
H530   H     0.72937   0.75623   0.15364   0.00000  Uiso   1.00
H531   H     0.72472   0.88589   0.13466   0.00000  Uiso   1.00
H532   H     0.78733   0.69475   0.26628   0.00000  Uiso   1.00
H533   H     0.69799   0.68078   0.05921   0.00000  Uiso   1.00
H534   H     0.68500   0.04104   0.11489   0.00000  Uiso   1.00
H535   H     0.81702   0.63799   0.39241   0.00000  Uiso   1.00
H536   H     0.62862   0.60853   0.95577   0.00000  Uiso   1.00
H537   H     0.46289   0.84403   0.16329   0.00000  Uiso   1.00
H538   H     0.44362   0.97851   0.14484   0.00000  Uiso   1.00
H539   H     0.50623   0.78737   0.27647   0.00000  Uiso   1.00
H540   H     0.41689   0.77340   0.06940   0.00000  Uiso   1.00
H541   H     0.45685   0.11622   0.12316   0.00000  Uiso   1.00
H542   H     0.58887   0.71317   0.40069   0.00000  Uiso   1.00
H543   H     0.40047   0.68371   0.96404   0.00000  Uiso   1.00
O544   O     0.56307   0.16551   0.10674   0.00000  Uiso   1.00
O545   O     0.73627   0.63672   0.47083   0.00000  Uiso   1.00
O546   O     0.48910   0.59807   0.89796   0.00000  Uiso   1.00
N547   N     0.63395   0.04028   0.11936   0.00000  Uiso   1.00
N548   N     0.75738   0.66346   0.37883   0.00000  Uiso   1.00
N549   N     0.58125   0.63590   0.97061   0.00000  Uiso   1.00
N550   N     0.51118   0.08073   0.12381   0.00000  Uiso   1.00
N551   N     0.63461   0.70391   0.38328   0.00000  Uiso   1.00
N552   N     0.45848   0.67635   0.97506   0.00000  Uiso   1.00
