data_job_04148
_audit_creation_date              2018-12-19
_audit_creation_method            'Materials Studio'
_symmetry_space_group_name_H-M    'P1'
_symmetry_Int_Tables_number       1
_symmetry_cell_setting            triclinic
loop_
_symmetry_equiv_pos_as_xyz
  x,y,z
_cell_length_a                    19.6717
_cell_length_b                    25.8348
_cell_length_c                    11.4519
_cell_angle_alpha                 90.0000
_cell_angle_beta                  90.0000
_cell_angle_gamma                 90.0000
loop_
_atom_site_label
_atom_site_type_symbol
_atom_site_fract_x
_atom_site_fract_y
_atom_site_fract_z
_atom_site_U_iso_or_equiv
_atom_site_adp_type
_atom_site_occupancy
C1     C     0.57594   0.87653   0.42666   0.00000  Uiso   1.00
C2     C     0.59393   0.82343   0.47597   0.00000  Uiso   1.00
C3     C     0.55198   0.78025   0.47561   0.00000  Uiso   1.00
C4     C     0.57782   0.73528   0.52498   0.00000  Uiso   1.00
C5     C     0.59578   0.65310   0.59429   0.00000  Uiso   1.00
C6     C     0.58531   0.91477   0.52681   0.00000  Uiso   1.00
C7     C     0.53611   0.94838   0.56918   0.00000  Uiso   1.00
C8     C     0.55470   0.98030   0.66134   0.00000  Uiso   1.00
C9     C     0.55929   0.03995   0.80954   0.00000  Uiso   1.00
C10    C     0.63115   0.88928   0.33774   0.00000  Uiso   1.00
C11    C     0.62049   0.90147   0.22114   0.00000  Uiso   1.00
C12    C     0.67768   0.91195   0.15412   0.00000  Uiso   1.00
C13    C     0.75345   0.93202   0.00874   0.00000  Uiso   1.00
C14    C     0.69643   0.87346   0.51497   0.00000  Uiso   1.00
C15    C     0.65938   0.82177   0.52394   0.00000  Uiso   1.00
C16    C     0.68529   0.77686   0.57331   0.00000  Uiso   1.00
C17    C     0.64338   0.73361   0.57302   0.00000  Uiso   1.00
C18    C     0.65075   0.91311   0.57478   0.00000  Uiso   1.00
C19    C     0.66942   0.94499   0.66689   0.00000  Uiso   1.00
C20    C     0.62026   0.97863   0.70940   0.00000  Uiso   1.00
C21    C     0.69660   0.88762   0.38570   0.00000  Uiso   1.00
C22    C     0.75381   0.89808   0.31885   0.00000  Uiso   1.00
C23    C     0.74325   0.91029   0.20217   0.00000  Uiso   1.00
H24    H     0.52498   0.87782   0.38932   0.00000  Uiso   1.00
H25    H     0.50132   0.78155   0.43849   0.00000  Uiso   1.00
H26    H     0.48546   0.94966   0.53204   0.00000  Uiso   1.00
H27    H     0.56984   0.90276   0.18405   0.00000  Uiso   1.00
H28    H     0.50395   0.67409   0.51419   0.00000  Uiso   1.00
H29    H     0.47051   0.02856   0.71142   0.00000  Uiso   1.00
H30    H     0.64844   0.92967   0.97762   0.00000  Uiso   1.00
H31    H     0.74739   0.87217   0.55232   0.00000  Uiso   1.00
H32    H     0.73594   0.77558   0.61043   0.00000  Uiso   1.00
H33    H     0.72007   0.94369   0.70398   0.00000  Uiso   1.00
H34    H     0.80445   0.89679   0.35599   0.00000  Uiso   1.00
H35    H     0.69437   0.66924   0.65375   0.00000  Uiso   1.00
H36    H     0.66093   0.02372   0.85098   0.00000  Uiso   1.00
H37    H     0.83885   0.92482   0.11718   0.00000  Uiso   1.00
O38    O     0.58761   0.60824   0.61929   0.00000  Uiso   1.00
O39    O     0.54374   0.07330   0.87803   0.00000  Uiso   1.00
O40    O     0.77717   0.94355   0.91530   0.00000  Uiso   1.00
N41    N     0.55034   0.68620   0.53904   0.00000  Uiso   1.00
N42    N     0.51908   0.01761   0.72345   0.00000  Uiso   1.00
N43    N     0.68542   0.92516   0.03742   0.00000  Uiso   1.00
N44    N     0.65281   0.68359   0.61413   0.00000  Uiso   1.00
N45    N     0.62154   0.01500   0.79855   0.00000  Uiso   1.00
N46    N     0.78788   0.92255   0.11251   0.00000  Uiso   1.00
C47    C     0.92406   0.12347   0.42666   0.00000  Uiso   1.00
C48    C     0.90607   0.17657   0.47597   0.00000  Uiso   1.00
C49    C     0.94802   0.21975   0.47561   0.00000  Uiso   1.00
C50    C     0.92218   0.26472   0.52498   0.00000  Uiso   1.00
C51    C     0.90422   0.34690   0.59429   0.00000  Uiso   1.00
C52    C     0.91469   0.08523   0.52681   0.00000  Uiso   1.00
C53    C     0.96389   0.05162   0.56918   0.00000  Uiso   1.00
C54    C     0.94530   0.01970   0.66134   0.00000  Uiso   1.00
C55    C     0.94071   0.96005   0.80954   0.00000  Uiso   1.00
C56    C     0.86885   0.11072   0.33774   0.00000  Uiso   1.00
C57    C     0.87951   0.09853   0.22114   0.00000  Uiso   1.00
C58    C     0.82232   0.08805   0.15412   0.00000  Uiso   1.00
C59    C     0.74655   0.06798   0.00874   0.00000  Uiso   1.00
C60    C     0.80357   0.12654   0.51497   0.00000  Uiso   1.00
C61    C     0.84062   0.17823   0.52394   0.00000  Uiso   1.00
C62    C     0.81471   0.22314   0.57331   0.00000  Uiso   1.00
C63    C     0.85662   0.26639   0.57302   0.00000  Uiso   1.00
C64    C     0.84925   0.08689   0.57478   0.00000  Uiso   1.00
C65    C     0.83058   0.05501   0.66689   0.00000  Uiso   1.00
C66    C     0.87974   0.02137   0.70940   0.00000  Uiso   1.00
C67    C     0.80340   0.11238   0.38570   0.00000  Uiso   1.00
C68    C     0.74619   0.10192   0.31885   0.00000  Uiso   1.00
C69    C     0.75675   0.08971   0.20217   0.00000  Uiso   1.00
H70    H     0.97502   0.12218   0.38932   0.00000  Uiso   1.00
H71    H     0.99868   0.21845   0.43849   0.00000  Uiso   1.00
H72    H     0.01454   0.05034   0.53204   0.00000  Uiso   1.00
H73    H     0.93016   0.09724   0.18405   0.00000  Uiso   1.00
H74    H     0.99605   0.32591   0.51419   0.00000  Uiso   1.00
H75    H     0.02949   0.97144   0.71142   0.00000  Uiso   1.00
H76    H     0.85156   0.07033   0.97762   0.00000  Uiso   1.00
H77    H     0.75261   0.12783   0.55232   0.00000  Uiso   1.00
H78    H     0.76406   0.22442   0.61043   0.00000  Uiso   1.00
H79    H     0.77993   0.05631   0.70398   0.00000  Uiso   1.00
H80    H     0.69555   0.10321   0.35599   0.00000  Uiso   1.00
H81    H     0.80563   0.33076   0.65375   0.00000  Uiso   1.00
H82    H     0.83907   0.97628   0.85098   0.00000  Uiso   1.00
H83    H     0.66115   0.07518   0.11718   0.00000  Uiso   1.00
O84    O     0.91239   0.39176   0.61929   0.00000  Uiso   1.00
O85    O     0.95626   0.92670   0.87803   0.00000  Uiso   1.00
O86    O     0.72283   0.05645   0.91530   0.00000  Uiso   1.00
N87    N     0.94966   0.31380   0.53904   0.00000  Uiso   1.00
N88    N     0.98092   0.98239   0.72345   0.00000  Uiso   1.00
N89    N     0.81458   0.07484   0.03742   0.00000  Uiso   1.00
N90    N     0.84719   0.31641   0.61413   0.00000  Uiso   1.00
N91    N     0.87846   0.98500   0.79855   0.00000  Uiso   1.00
N92    N     0.71212   0.07745   0.11251   0.00000  Uiso   1.00
C93    C     0.92406   0.37653   0.07334   0.00000  Uiso   1.00
C94    C     0.90607   0.32343   0.02403   0.00000  Uiso   1.00
C95    C     0.94802   0.28025   0.02439   0.00000  Uiso   1.00
C96    C     0.92218   0.23528   0.97502   0.00000  Uiso   1.00
C97    C     0.90422   0.15310   0.90571   0.00000  Uiso   1.00
C98    C     0.91469   0.41477   0.97319   0.00000  Uiso   1.00
C99    C     0.96389   0.44838   0.93082   0.00000  Uiso   1.00
C100   C     0.94530   0.48030   0.83866   0.00000  Uiso   1.00
C101   C     0.94071   0.53995   0.69046   0.00000  Uiso   1.00
C102   C     0.86885   0.38928   0.16226   0.00000  Uiso   1.00
C103   C     0.87951   0.40147   0.27886   0.00000  Uiso   1.00
C104   C     0.82232   0.41195   0.34588   0.00000  Uiso   1.00
C105   C     0.74655   0.43202   0.49126   0.00000  Uiso   1.00
C106   C     0.80357   0.37346   0.98503   0.00000  Uiso   1.00
C107   C     0.84062   0.32177   0.97606   0.00000  Uiso   1.00
C108   C     0.81471   0.27686   0.92669   0.00000  Uiso   1.00
C109   C     0.85662   0.23361   0.92698   0.00000  Uiso   1.00
C110   C     0.84925   0.41311   0.92522   0.00000  Uiso   1.00
C111   C     0.83058   0.44499   0.83311   0.00000  Uiso   1.00
C112   C     0.87974   0.47863   0.79060   0.00000  Uiso   1.00
C113   C     0.80340   0.38762   0.11430   0.00000  Uiso   1.00
C114   C     0.74619   0.39808   0.18115   0.00000  Uiso   1.00
C115   C     0.75675   0.41029   0.29783   0.00000  Uiso   1.00
H116   H     0.97502   0.37782   0.11068   0.00000  Uiso   1.00
H117   H     0.99868   0.28155   0.06151   0.00000  Uiso   1.00
H118   H     0.01454   0.44966   0.96796   0.00000  Uiso   1.00
H119   H     0.93016   0.40276   0.31595   0.00000  Uiso   1.00
H120   H     0.99605   0.17409   0.98581   0.00000  Uiso   1.00
H121   H     0.02949   0.52856   0.78858   0.00000  Uiso   1.00
H122   H     0.85156   0.42967   0.52238   0.00000  Uiso   1.00
H123   H     0.75261   0.37217   0.94768   0.00000  Uiso   1.00
H124   H     0.76406   0.27558   0.88957   0.00000  Uiso   1.00
H125   H     0.77993   0.44369   0.79602   0.00000  Uiso   1.00
H126   H     0.69555   0.39679   0.14401   0.00000  Uiso   1.00
H127   H     0.80563   0.16924   0.84625   0.00000  Uiso   1.00
H128   H     0.83907   0.52372   0.64902   0.00000  Uiso   1.00
H129   H     0.66115   0.42482   0.38282   0.00000  Uiso   1.00
O130   O     0.91239   0.10824   0.88071   0.00000  Uiso   1.00
O131   O     0.95626   0.57330   0.62197   0.00000  Uiso   1.00
O132   O     0.72283   0.44355   0.58470   0.00000  Uiso   1.00
N133   N     0.94966   0.18620   0.96096   0.00000  Uiso   1.00
N134   N     0.98092   0.51761   0.77655   0.00000  Uiso   1.00
N135   N     0.81458   0.42516   0.46258   0.00000  Uiso   1.00
N136   N     0.84719   0.18359   0.88587   0.00000  Uiso   1.00
N137   N     0.87846   0.51500   0.70145   0.00000  Uiso   1.00
N138   N     0.71212   0.42255   0.38749   0.00000  Uiso   1.00
C139   C     0.57594   0.62347   0.07334   0.00000  Uiso   1.00
C140   C     0.59393   0.67657   0.02403   0.00000  Uiso   1.00
C141   C     0.55198   0.71975   0.02439   0.00000  Uiso   1.00
C142   C     0.57782   0.76472   0.97502   0.00000  Uiso   1.00
C143   C     0.59578   0.84690   0.90571   0.00000  Uiso   1.00
C144   C     0.58531   0.58523   0.97319   0.00000  Uiso   1.00
C145   C     0.53611   0.55162   0.93082   0.00000  Uiso   1.00
C146   C     0.55470   0.51970   0.83866   0.00000  Uiso   1.00
C147   C     0.55929   0.46005   0.69046   0.00000  Uiso   1.00
C148   C     0.63115   0.61072   0.16226   0.00000  Uiso   1.00
C149   C     0.62049   0.59853   0.27886   0.00000  Uiso   1.00
C150   C     0.67768   0.58805   0.34588   0.00000  Uiso   1.00
C151   C     0.75345   0.56798   0.49126   0.00000  Uiso   1.00
C152   C     0.69643   0.62654   0.98503   0.00000  Uiso   1.00
C153   C     0.65938   0.67823   0.97606   0.00000  Uiso   1.00
C154   C     0.68529   0.72314   0.92669   0.00000  Uiso   1.00
C155   C     0.64338   0.76639   0.92698   0.00000  Uiso   1.00
C156   C     0.65075   0.58689   0.92522   0.00000  Uiso   1.00
C157   C     0.66942   0.55501   0.83311   0.00000  Uiso   1.00
C158   C     0.62026   0.52137   0.79060   0.00000  Uiso   1.00
C159   C     0.69660   0.61238   0.11430   0.00000  Uiso   1.00
C160   C     0.75381   0.60192   0.18115   0.00000  Uiso   1.00
C161   C     0.74325   0.58971   0.29783   0.00000  Uiso   1.00
H162   H     0.52498   0.62218   0.11068   0.00000  Uiso   1.00
H163   H     0.50132   0.71845   0.06151   0.00000  Uiso   1.00
H164   H     0.48546   0.55034   0.96796   0.00000  Uiso   1.00
H165   H     0.56984   0.59724   0.31595   0.00000  Uiso   1.00
H166   H     0.50395   0.82591   0.98581   0.00000  Uiso   1.00
H167   H     0.47051   0.47144   0.78858   0.00000  Uiso   1.00
H168   H     0.64844   0.57033   0.52238   0.00000  Uiso   1.00
H169   H     0.74739   0.62783   0.94768   0.00000  Uiso   1.00
H170   H     0.73594   0.72442   0.88957   0.00000  Uiso   1.00
H171   H     0.72007   0.55631   0.79602   0.00000  Uiso   1.00
H172   H     0.80445   0.60321   0.14401   0.00000  Uiso   1.00
H173   H     0.69437   0.83076   0.84625   0.00000  Uiso   1.00
H174   H     0.66093   0.47628   0.64902   0.00000  Uiso   1.00
H175   H     0.83885   0.57518   0.38282   0.00000  Uiso   1.00
O176   O     0.58761   0.89176   0.88071   0.00000  Uiso   1.00
O177   O     0.54374   0.42670   0.62197   0.00000  Uiso   1.00
O178   O     0.77717   0.55645   0.58470   0.00000  Uiso   1.00
N179   N     0.55034   0.81380   0.96096   0.00000  Uiso   1.00
N180   N     0.51908   0.48239   0.77655   0.00000  Uiso   1.00
N181   N     0.68542   0.57484   0.46258   0.00000  Uiso   1.00
N182   N     0.65281   0.81641   0.88587   0.00000  Uiso   1.00
N183   N     0.62154   0.48500   0.70145   0.00000  Uiso   1.00
N184   N     0.78788   0.57745   0.38749   0.00000  Uiso   1.00
C185   C     0.42406   0.12347   0.57334   0.00000  Uiso   1.00
C186   C     0.40607   0.17657   0.52403   0.00000  Uiso   1.00
C187   C     0.44802   0.21975   0.52439   0.00000  Uiso   1.00
C188   C     0.42218   0.26472   0.47502   0.00000  Uiso   1.00
C189   C     0.40422   0.34690   0.40571   0.00000  Uiso   1.00
C190   C     0.41469   0.08523   0.47319   0.00000  Uiso   1.00
C191   C     0.46389   0.05162   0.43082   0.00000  Uiso   1.00
C192   C     0.44530   0.01970   0.33866   0.00000  Uiso   1.00
C193   C     0.44071   0.96005   0.19046   0.00000  Uiso   1.00
C194   C     0.36885   0.11072   0.66226   0.00000  Uiso   1.00
C195   C     0.37951   0.09853   0.77886   0.00000  Uiso   1.00
C196   C     0.32232   0.08805   0.84588   0.00000  Uiso   1.00
C197   C     0.24655   0.06798   0.99126   0.00000  Uiso   1.00
C198   C     0.30357   0.12654   0.48503   0.00000  Uiso   1.00
C199   C     0.34062   0.17823   0.47606   0.00000  Uiso   1.00
C200   C     0.31471   0.22314   0.42669   0.00000  Uiso   1.00
C201   C     0.35662   0.26639   0.42698   0.00000  Uiso   1.00
C202   C     0.34925   0.08689   0.42522   0.00000  Uiso   1.00
C203   C     0.33058   0.05501   0.33311   0.00000  Uiso   1.00
C204   C     0.37974   0.02137   0.29060   0.00000  Uiso   1.00
C205   C     0.30340   0.11238   0.61430   0.00000  Uiso   1.00
C206   C     0.24619   0.10192   0.68115   0.00000  Uiso   1.00
C207   C     0.25675   0.08971   0.79783   0.00000  Uiso   1.00
H208   H     0.47502   0.12218   0.61068   0.00000  Uiso   1.00
H209   H     0.49868   0.21845   0.56151   0.00000  Uiso   1.00
H210   H     0.51454   0.05034   0.46796   0.00000  Uiso   1.00
H211   H     0.43016   0.09724   0.81595   0.00000  Uiso   1.00
H212   H     0.49605   0.32591   0.48581   0.00000  Uiso   1.00
H213   H     0.52949   0.97144   0.28858   0.00000  Uiso   1.00
H214   H     0.35156   0.07033   0.02238   0.00000  Uiso   1.00
H215   H     0.25261   0.12783   0.44768   0.00000  Uiso   1.00
H216   H     0.26406   0.22442   0.38957   0.00000  Uiso   1.00
H217   H     0.27993   0.05631   0.29602   0.00000  Uiso   1.00
H218   H     0.19555   0.10321   0.64401   0.00000  Uiso   1.00
H219   H     0.30563   0.33076   0.34625   0.00000  Uiso   1.00
H220   H     0.33907   0.97628   0.14902   0.00000  Uiso   1.00
H221   H     0.16115   0.07518   0.88282   0.00000  Uiso   1.00
O222   O     0.41239   0.39176   0.38071   0.00000  Uiso   1.00
O223   O     0.45626   0.92670   0.12197   0.00000  Uiso   1.00
O224   O     0.22283   0.05645   0.08470   0.00000  Uiso   1.00
N225   N     0.44966   0.31380   0.46096   0.00000  Uiso   1.00
N226   N     0.48092   0.98239   0.27655   0.00000  Uiso   1.00
N227   N     0.31458   0.07484   0.96258   0.00000  Uiso   1.00
N228   N     0.34719   0.31641   0.38587   0.00000  Uiso   1.00
N229   N     0.37846   0.98500   0.20145   0.00000  Uiso   1.00
N230   N     0.21212   0.07745   0.88749   0.00000  Uiso   1.00
C231   C     0.07594   0.87653   0.57334   0.00000  Uiso   1.00
C232   C     0.09393   0.82343   0.52403   0.00000  Uiso   1.00
C233   C     0.05198   0.78025   0.52439   0.00000  Uiso   1.00
C234   C     0.07782   0.73528   0.47502   0.00000  Uiso   1.00
C235   C     0.09578   0.65310   0.40571   0.00000  Uiso   1.00
C236   C     0.08531   0.91477   0.47319   0.00000  Uiso   1.00
C237   C     0.03611   0.94838   0.43082   0.00000  Uiso   1.00
C238   C     0.05470   0.98030   0.33866   0.00000  Uiso   1.00
C239   C     0.05929   0.03995   0.19046   0.00000  Uiso   1.00
C240   C     0.13115   0.88928   0.66226   0.00000  Uiso   1.00
C241   C     0.12049   0.90147   0.77886   0.00000  Uiso   1.00
C242   C     0.17768   0.91195   0.84588   0.00000  Uiso   1.00
C243   C     0.25345   0.93202   0.99126   0.00000  Uiso   1.00
C244   C     0.19643   0.87346   0.48503   0.00000  Uiso   1.00
C245   C     0.15938   0.82177   0.47606   0.00000  Uiso   1.00
C246   C     0.18529   0.77686   0.42669   0.00000  Uiso   1.00
C247   C     0.14338   0.73361   0.42698   0.00000  Uiso   1.00
C248   C     0.15075   0.91311   0.42522   0.00000  Uiso   1.00
C249   C     0.16942   0.94499   0.33311   0.00000  Uiso   1.00
C250   C     0.12026   0.97863   0.29060   0.00000  Uiso   1.00
C251   C     0.19660   0.88762   0.61430   0.00000  Uiso   1.00
C252   C     0.25381   0.89808   0.68115   0.00000  Uiso   1.00
C253   C     0.24325   0.91029   0.79783   0.00000  Uiso   1.00
H254   H     0.02498   0.87782   0.61068   0.00000  Uiso   1.00
H255   H     0.00132   0.78155   0.56151   0.00000  Uiso   1.00
H256   H     0.98546   0.94966   0.46796   0.00000  Uiso   1.00
H257   H     0.06984   0.90276   0.81595   0.00000  Uiso   1.00
H258   H     0.00395   0.67409   0.48581   0.00000  Uiso   1.00
H259   H     0.97051   0.02856   0.28858   0.00000  Uiso   1.00
H260   H     0.14844   0.92967   0.02238   0.00000  Uiso   1.00
H261   H     0.24739   0.87217   0.44768   0.00000  Uiso   1.00
H262   H     0.23594   0.77558   0.38957   0.00000  Uiso   1.00
H263   H     0.22007   0.94369   0.29602   0.00000  Uiso   1.00
H264   H     0.30445   0.89679   0.64401   0.00000  Uiso   1.00
H265   H     0.19437   0.66924   0.34625   0.00000  Uiso   1.00
H266   H     0.16093   0.02372   0.14902   0.00000  Uiso   1.00
H267   H     0.33885   0.92482   0.88282   0.00000  Uiso   1.00
O268   O     0.08761   0.60824   0.38071   0.00000  Uiso   1.00
O269   O     0.04374   0.07330   0.12197   0.00000  Uiso   1.00
O270   O     0.27717   0.94355   0.08470   0.00000  Uiso   1.00
N271   N     0.05034   0.68620   0.46096   0.00000  Uiso   1.00
N272   N     0.01908   0.01761   0.27655   0.00000  Uiso   1.00
N273   N     0.18542   0.92516   0.96258   0.00000  Uiso   1.00
N274   N     0.15281   0.68359   0.38587   0.00000  Uiso   1.00
N275   N     0.12154   0.01500   0.20145   0.00000  Uiso   1.00
N276   N     0.28788   0.92255   0.88749   0.00000  Uiso   1.00
C277   C     0.07594   0.62347   0.92666   0.00000  Uiso   1.00
C278   C     0.09393   0.67657   0.97597   0.00000  Uiso   1.00
C279   C     0.05198   0.71975   0.97561   0.00000  Uiso   1.00
C280   C     0.07782   0.76472   0.02498   0.00000  Uiso   1.00
C281   C     0.09578   0.84690   0.09429   0.00000  Uiso   1.00
C282   C     0.08531   0.58523   0.02681   0.00000  Uiso   1.00
C283   C     0.03611   0.55162   0.06918   0.00000  Uiso   1.00
C284   C     0.05470   0.51970   0.16134   0.00000  Uiso   1.00
C285   C     0.05929   0.46005   0.30954   0.00000  Uiso   1.00
C286   C     0.13115   0.61072   0.83774   0.00000  Uiso   1.00
C287   C     0.12049   0.59853   0.72114   0.00000  Uiso   1.00
C288   C     0.17768   0.58805   0.65412   0.00000  Uiso   1.00
C289   C     0.25345   0.56798   0.50874   0.00000  Uiso   1.00
C290   C     0.19643   0.62654   0.01497   0.00000  Uiso   1.00
C291   C     0.15938   0.67823   0.02394   0.00000  Uiso   1.00
C292   C     0.18529   0.72314   0.07331   0.00000  Uiso   1.00
C293   C     0.14338   0.76639   0.07302   0.00000  Uiso   1.00
C294   C     0.15075   0.58689   0.07478   0.00000  Uiso   1.00
C295   C     0.16942   0.55501   0.16689   0.00000  Uiso   1.00
C296   C     0.12026   0.52137   0.20940   0.00000  Uiso   1.00
C297   C     0.19660   0.61238   0.88570   0.00000  Uiso   1.00
C298   C     0.25381   0.60192   0.81885   0.00000  Uiso   1.00
C299   C     0.24325   0.58971   0.70217   0.00000  Uiso   1.00
H300   H     0.02498   0.62218   0.88932   0.00000  Uiso   1.00
H301   H     0.00132   0.71845   0.93849   0.00000  Uiso   1.00
H302   H     0.98546   0.55034   0.03204   0.00000  Uiso   1.00
H303   H     0.06984   0.59724   0.68405   0.00000  Uiso   1.00
H304   H     0.00395   0.82591   0.01419   0.00000  Uiso   1.00
H305   H     0.97051   0.47144   0.21142   0.00000  Uiso   1.00
H306   H     0.14844   0.57033   0.47762   0.00000  Uiso   1.00
H307   H     0.24739   0.62783   0.05232   0.00000  Uiso   1.00
H308   H     0.23594   0.72442   0.11043   0.00000  Uiso   1.00
H309   H     0.22007   0.55631   0.20398   0.00000  Uiso   1.00
H310   H     0.30445   0.60321   0.85599   0.00000  Uiso   1.00
H311   H     0.19437   0.83076   0.15375   0.00000  Uiso   1.00
H312   H     0.16093   0.47628   0.35098   0.00000  Uiso   1.00
H313   H     0.33885   0.57518   0.61718   0.00000  Uiso   1.00
O314   O     0.08761   0.89176   0.11929   0.00000  Uiso   1.00
O315   O     0.04374   0.42670   0.37803   0.00000  Uiso   1.00
O316   O     0.27717   0.55645   0.41530   0.00000  Uiso   1.00
N317   N     0.05034   0.81380   0.03904   0.00000  Uiso   1.00
N318   N     0.01908   0.48239   0.22345   0.00000  Uiso   1.00
N319   N     0.18542   0.57484   0.53742   0.00000  Uiso   1.00
N320   N     0.15281   0.81641   0.11413   0.00000  Uiso   1.00
N321   N     0.12154   0.48500   0.29855   0.00000  Uiso   1.00
N322   N     0.28788   0.57745   0.61251   0.00000  Uiso   1.00
C323   C     0.42406   0.37653   0.92666   0.00000  Uiso   1.00
C324   C     0.40607   0.32343   0.97597   0.00000  Uiso   1.00
C325   C     0.44802   0.28025   0.97561   0.00000  Uiso   1.00
C326   C     0.42218   0.23528   0.02498   0.00000  Uiso   1.00
C327   C     0.40422   0.15310   0.09429   0.00000  Uiso   1.00
C328   C     0.41469   0.41477   0.02681   0.00000  Uiso   1.00
C329   C     0.46389   0.44838   0.06918   0.00000  Uiso   1.00
C330   C     0.44530   0.48030   0.16134   0.00000  Uiso   1.00
C331   C     0.44071   0.53995   0.30954   0.00000  Uiso   1.00
C332   C     0.36885   0.38928   0.83774   0.00000  Uiso   1.00
C333   C     0.37951   0.40147   0.72114   0.00000  Uiso   1.00
C334   C     0.32232   0.41195   0.65412   0.00000  Uiso   1.00
C335   C     0.24655   0.43202   0.50874   0.00000  Uiso   1.00
C336   C     0.30357   0.37346   0.01497   0.00000  Uiso   1.00
C337   C     0.34062   0.32177   0.02394   0.00000  Uiso   1.00
C338   C     0.31471   0.27686   0.07331   0.00000  Uiso   1.00
C339   C     0.35662   0.23361   0.07302   0.00000  Uiso   1.00
C340   C     0.34925   0.41311   0.07478   0.00000  Uiso   1.00
C341   C     0.33058   0.44499   0.16689   0.00000  Uiso   1.00
C342   C     0.37974   0.47863   0.20940   0.00000  Uiso   1.00
C343   C     0.30340   0.38762   0.88570   0.00000  Uiso   1.00
C344   C     0.24619   0.39808   0.81885   0.00000  Uiso   1.00
C345   C     0.25675   0.41029   0.70217   0.00000  Uiso   1.00
H346   H     0.47502   0.37782   0.88932   0.00000  Uiso   1.00
H347   H     0.49868   0.28155   0.93849   0.00000  Uiso   1.00
H348   H     0.51454   0.44966   0.03204   0.00000  Uiso   1.00
H349   H     0.43016   0.40276   0.68405   0.00000  Uiso   1.00
H350   H     0.49605   0.17409   0.01419   0.00000  Uiso   1.00
H351   H     0.52949   0.52856   0.21142   0.00000  Uiso   1.00
H352   H     0.35156   0.42967   0.47762   0.00000  Uiso   1.00
H353   H     0.25261   0.37217   0.05232   0.00000  Uiso   1.00
H354   H     0.26406   0.27558   0.11043   0.00000  Uiso   1.00
H355   H     0.27993   0.44369   0.20398   0.00000  Uiso   1.00
H356   H     0.19555   0.39679   0.85599   0.00000  Uiso   1.00
H357   H     0.30563   0.16924   0.15375   0.00000  Uiso   1.00
H358   H     0.33907   0.52372   0.35098   0.00000  Uiso   1.00
H359   H     0.16115   0.42482   0.61718   0.00000  Uiso   1.00
O360   O     0.41239   0.10824   0.11929   0.00000  Uiso   1.00
O361   O     0.45626   0.57330   0.37803   0.00000  Uiso   1.00
O362   O     0.22283   0.44355   0.41530   0.00000  Uiso   1.00
N363   N     0.44966   0.18620   0.03904   0.00000  Uiso   1.00
N364   N     0.48092   0.51761   0.22345   0.00000  Uiso   1.00
N365   N     0.31458   0.42516   0.53742   0.00000  Uiso   1.00
N366   N     0.34719   0.18359   0.11413   0.00000  Uiso   1.00
N367   N     0.37846   0.51500   0.29855   0.00000  Uiso   1.00
N368   N     0.21212   0.42255   0.61251   0.00000  Uiso   1.00
