data_job_06324
_audit_creation_date              2018-12-19
_audit_creation_method            'Materials Studio'
_symmetry_space_group_name_H-M    'P1'
_symmetry_Int_Tables_number       1
_symmetry_cell_setting            triclinic
loop_
_symmetry_equiv_pos_as_xyz
  x,y,z
_cell_length_a                    17.7016
_cell_length_b                    17.6806
_cell_length_c                    17.5841
_cell_angle_alpha                 63.3984
_cell_angle_beta                  63.4215
_cell_angle_gamma                 63.3310
loop_
_atom_site_label
_atom_site_type_symbol
_atom_site_fract_x
_atom_site_fract_y
_atom_site_fract_z
_atom_site_U_iso_or_equiv
_atom_site_adp_type
_atom_site_occupancy
C1     C     0.58148   0.32081   0.83501   0.00000  Uiso   1.00
C2     C     0.68218   0.29667   0.80778   0.00000  Uiso   1.00
C3     C     0.73437   0.34429   0.73220   0.00000  Uiso   1.00
C4     C     0.82524   0.31122   0.71914   0.00000  Uiso   1.00
C5     C     0.97595   0.28556   0.66764   0.00000  Uiso   1.00
C6     C     0.56359   0.23986   0.84436   0.00000  Uiso   1.00
C7     C     0.51606   0.23972   0.79954   0.00000  Uiso   1.00
C8     C     0.50709   0.15882   0.81729   0.00000  Uiso   1.00
C9     C     0.47363   0.04497   0.82264   0.00000  Uiso   1.00
C10    C     0.54567   0.32763   0.92910   0.00000  Uiso   1.00
C11    C     0.48304   0.40129   0.95554   0.00000  Uiso   1.00
C12    C     0.45896   0.39429   0.04464   0.00000  Uiso   1.00
C13    C     0.39766   0.41672   0.18156   0.00000  Uiso   1.00
C14    C     0.65007   0.17741   0.94622   0.00000  Uiso   1.00
C15    C     0.71944   0.21878   0.86818   0.00000  Uiso   1.00
C16    C     0.81026   0.18563   0.85524   0.00000  Uiso   1.00
C17    C     0.86257   0.23320   0.77965   0.00000  Uiso   1.00
C18    C     0.60085   0.16197   0.90476   0.00000  Uiso   1.00
C19    C     0.59194   0.08106   0.92259   0.00000  Uiso   1.00
C20    C     0.54441   0.08079   0.87781   0.00000  Uiso   1.00
C21    C     0.58292   0.24975   0.98951   0.00000  Uiso   1.00
C22    C     0.55893   0.24263   0.07858   0.00000  Uiso   1.00
C23    C     0.49628   0.31626   0.10516   0.00000  Uiso   1.00
H24    H     0.55247   0.38145   0.78798   0.00000  Uiso   1.00
H25    H     0.70551   0.40456   0.68546   0.00000  Uiso   1.00
H26    H     0.48723   0.30000   0.75281   0.00000  Uiso   1.00
H27    H     0.45422   0.46155   0.90878   0.00000  Uiso   1.00
H28    H     0.89162   0.39581   0.59842   0.00000  Uiso   1.00
H29    H     0.43133   0.17536   0.74045   0.00000  Uiso   1.00
H30    H     0.36172   0.51601   0.06934   0.00000  Uiso   1.00
H31    H     0.67907   0.11677   0.99325   0.00000  Uiso   1.00
H32    H     0.83907   0.12536   0.90200   0.00000  Uiso   1.00
H33    H     0.62078   0.02080   0.96934   0.00000  Uiso   1.00
H34    H     0.58777   0.18235   0.12531   0.00000  Uiso   1.00
H35    H     0.00002   0.16920   0.77417   0.00000  Uiso   1.00
H36    H     0.53972   0.94875   0.91620   0.00000  Uiso   1.00
H37    H     0.47011   0.28940   0.24509   0.00000  Uiso   1.00
O38    O     0.04879   0.29291   0.62254   0.00000  Uiso   1.00
O39    O     0.44489   0.00369   0.80889   0.00000  Uiso   1.00
O40    O     0.35356   0.45062   0.24039   0.00000  Uiso   1.00
N41    N     0.89517   0.34131   0.65232   0.00000  Uiso   1.00
N42    N     0.46484   0.13520   0.78509   0.00000  Uiso   1.00
N43    N     0.39974   0.45367   0.09258   0.00000  Uiso   1.00
N44    N     0.95350   0.21937   0.74688   0.00000  Uiso   1.00
N45    N     0.52317   0.01326   0.87966   0.00000  Uiso   1.00
N46    N     0.45807   0.33173   0.18716   0.00000  Uiso   1.00
C47    C     0.83369   0.58117   0.32172   0.00000  Uiso   1.00
C48    C     0.80635   0.68202   0.29763   0.00000  Uiso   1.00
C49    C     0.73102   0.73429   0.34546   0.00000  Uiso   1.00
C50    C     0.71781   0.82529   0.31242   0.00000  Uiso   1.00
C51    C     0.66621   0.97621   0.28687   0.00000  Uiso   1.00
C52    C     0.84332   0.56322   0.24019   0.00000  Uiso   1.00
C53    C     0.79908   0.51559   0.23972   0.00000  Uiso   1.00
C54    C     0.81700   0.50658   0.15832   0.00000  Uiso   1.00
C55    C     0.82283   0.47301   0.04360   0.00000  Uiso   1.00
C56    C     0.92711   0.54532   0.32882   0.00000  Uiso   1.00
C57    C     0.95334   0.48263   0.40287   0.00000  Uiso   1.00
C58    C     0.04182   0.45854   0.39607   0.00000  Uiso   1.00
C59    C     0.17776   0.39718   0.41897   0.00000  Uiso   1.00
C60    C     0.94418   0.64983   0.17797   0.00000  Uiso   1.00
C61    C     0.86637   0.71931   0.21955   0.00000  Uiso   1.00
C62    C     0.85327   0.81025   0.18642   0.00000  Uiso   1.00
C63    C     0.77793   0.86265   0.23420   0.00000  Uiso   1.00
C64    C     0.90333   0.60051   0.16211   0.00000  Uiso   1.00
C65    C     0.92132   0.59156   0.08068   0.00000  Uiso   1.00
C66    C     0.87712   0.54394   0.08010   0.00000  Uiso   1.00
C67    C     0.98713   0.58262   0.25074   0.00000  Uiso   1.00
C68    C     0.07559   0.55861   0.24383   0.00000  Uiso   1.00
C69    C     0.10194   0.49590   0.31785   0.00000  Uiso   1.00
H70    H     0.78697   0.55213   0.38250   0.00000  Uiso   1.00
H71    H     0.68459   0.70540   0.40588   0.00000  Uiso   1.00
H72    H     0.75264   0.48673   0.30016   0.00000  Uiso   1.00
H73    H     0.90688   0.45379   0.46327   0.00000  Uiso   1.00
H74    H     0.59754   0.89178   0.39735   0.00000  Uiso   1.00
H75    H     0.74105   0.43068   0.17444   0.00000  Uiso   1.00
H76    H     0.06629   0.36120   0.51840   0.00000  Uiso   1.00
H77    H     0.99091   0.67886   0.11718   0.00000  Uiso   1.00
H78    H     0.89972   0.83909   0.12600   0.00000  Uiso   1.00
H79    H     0.96777   0.62042   0.02028   0.00000  Uiso   1.00
H80    H     0.12201   0.58748   0.18340   0.00000  Uiso   1.00
H81    H     0.77215   0.00029   0.17019   0.00000  Uiso   1.00
H82    H     0.91566   0.53918   0.94727   0.00000  Uiso   1.00
H83    H     0.24090   0.46971   0.29124   0.00000  Uiso   1.00
O84    O     0.62116   0.04916   0.29434   0.00000  Uiso   1.00
O85    O     0.80946   0.44420   0.00189   0.00000  Uiso   1.00
O86    O     0.23616   0.35305   0.45317   0.00000  Uiso   1.00
N87    N     0.65116   0.89533   0.34269   0.00000  Uiso   1.00
N88    N     0.78532   0.46424   0.13427   0.00000  Uiso   1.00
N89    N     0.08940   0.39927   0.45584   0.00000  Uiso   1.00
N90    N     0.74511   0.95372   0.22045   0.00000  Uiso   1.00
N91    N     0.87928   0.52263   0.01204   0.00000  Uiso   1.00
N92    N     0.18335   0.45765   0.33361   0.00000  Uiso   1.00
C93    C     0.32072   0.83410   0.58041   0.00000  Uiso   1.00
C94    C     0.29660   0.80675   0.68177   0.00000  Uiso   1.00
C95    C     0.34416   0.73134   0.73434   0.00000  Uiso   1.00
C96    C     0.31113   0.71814   0.82579   0.00000  Uiso   1.00
C97    C     0.28550   0.66652   0.97749   0.00000  Uiso   1.00
C98    C     0.23989   0.84371   0.56207   0.00000  Uiso   1.00
C99    C     0.23979   0.79937   0.51397   0.00000  Uiso   1.00
C100   C     0.15902   0.81729   0.50466   0.00000  Uiso   1.00
C101   C     0.04536   0.82310   0.47045   0.00000  Uiso   1.00
C102   C     0.32749   0.92765   0.54465   0.00000  Uiso   1.00
C103   C     0.40103   0.95392   0.48189   0.00000  Uiso   1.00
C104   C     0.39401   0.04252   0.45789   0.00000  Uiso   1.00
C105   C     0.41636   0.17866   0.39664   0.00000  Uiso   1.00
C106   C     0.17748   0.94476   0.64937   0.00000  Uiso   1.00
C107   C     0.21880   0.86686   0.71922   0.00000  Uiso   1.00
C108   C     0.18569   0.85378   0.81063   0.00000  Uiso   1.00
C109   C     0.23320   0.77836   0.86332   0.00000  Uiso   1.00
C110   C     0.16210   0.90381   0.59952   0.00000  Uiso   1.00
C111   C     0.08131   0.92181   0.59026   0.00000  Uiso   1.00
C112   C     0.08108   0.87751   0.54218   0.00000  Uiso   1.00
C113   C     0.24970   0.98777   0.58210   0.00000  Uiso   1.00
C114   C     0.24256   0.07635   0.55819   0.00000  Uiso   1.00
C115   C     0.31607   0.10274   0.49541   0.00000  Uiso   1.00
H116   H     0.38129   0.78730   0.55125   0.00000  Uiso   1.00
H117   H     0.40437   0.68484   0.70533   0.00000  Uiso   1.00
H118   H     0.30001   0.75287   0.48499   0.00000  Uiso   1.00
H119   H     0.46122   0.90738   0.45292   0.00000  Uiso   1.00
H120   H     0.39563   0.59773   0.89267   0.00000  Uiso   1.00
H121   H     0.17558   0.74120   0.42806   0.00000  Uiso   1.00
H122   H     0.51555   0.06702   0.36042   0.00000  Uiso   1.00
H123   H     0.11691   0.99156   0.67852   0.00000  Uiso   1.00
H124   H     0.12548   0.90031   0.83959   0.00000  Uiso   1.00
H125   H     0.02112   0.96833   0.61925   0.00000  Uiso   1.00
H126   H     0.18234   0.12285   0.58718   0.00000  Uiso   1.00
H127   H     0.16927   0.77261   0.00164   0.00000  Uiso   1.00
H128   H     0.94923   0.91608   0.53702   0.00000  Uiso   1.00
H129   H     0.28919   0.24190   0.46939   0.00000  Uiso   1.00
O130   O     0.29284   0.62144   0.05082   0.00000  Uiso   1.00
O131   O     0.00416   0.80968   0.44124   0.00000  Uiso   1.00
O132   O     0.45018   0.23715   0.35252   0.00000  Uiso   1.00
N133   N     0.34119   0.65142   0.89621   0.00000  Uiso   1.00
N134   N     0.13546   0.78554   0.46184   0.00000  Uiso   1.00
N135   N     0.45328   0.09017   0.39858   0.00000  Uiso   1.00
N136   N     0.21939   0.74552   0.95485   0.00000  Uiso   1.00
N137   N     0.01366   0.87965   0.52047   0.00000  Uiso   1.00
N138   N     0.33149   0.18427   0.45722   0.00000  Uiso   1.00
C139   C     0.41852   0.67919   0.16499   0.00000  Uiso   1.00
C140   C     0.31782   0.70333   0.19222   0.00000  Uiso   1.00
C141   C     0.26563   0.65571   0.26780   0.00000  Uiso   1.00
C142   C     0.17476   0.68878   0.28086   0.00000  Uiso   1.00
C143   C     0.02405   0.71444   0.33236   0.00000  Uiso   1.00
C144   C     0.43641   0.76014   0.15564   0.00000  Uiso   1.00
C145   C     0.48394   0.76028   0.20046   0.00000  Uiso   1.00
C146   C     0.49291   0.84118   0.18271   0.00000  Uiso   1.00
C147   C     0.52637   0.95503   0.17736   0.00000  Uiso   1.00
C148   C     0.45433   0.67237   0.07090   0.00000  Uiso   1.00
C149   C     0.51696   0.59872   0.04446   0.00000  Uiso   1.00
C150   C     0.54104   0.60571   0.95536   0.00000  Uiso   1.00
C151   C     0.60234   0.58328   0.81844   0.00000  Uiso   1.00
C152   C     0.34993   0.82259   0.05378   0.00000  Uiso   1.00
C153   C     0.28056   0.78122   0.13182   0.00000  Uiso   1.00
C154   C     0.18974   0.81437   0.14476   0.00000  Uiso   1.00
C155   C     0.13743   0.76680   0.22035   0.00000  Uiso   1.00
C156   C     0.39915   0.83803   0.09524   0.00000  Uiso   1.00
C157   C     0.40806   0.91894   0.07741   0.00000  Uiso   1.00
C158   C     0.45559   0.91921   0.12219   0.00000  Uiso   1.00
C159   C     0.41708   0.75025   0.01049   0.00000  Uiso   1.00
C160   C     0.44107   0.75737   0.92142   0.00000  Uiso   1.00
C161   C     0.50372   0.68374   0.89484   0.00000  Uiso   1.00
H162   H     0.44753   0.61855   0.21202   0.00000  Uiso   1.00
H163   H     0.29449   0.59544   0.31454   0.00000  Uiso   1.00
H164   H     0.51277   0.70000   0.24719   0.00000  Uiso   1.00
H165   H     0.54578   0.53845   0.09122   0.00000  Uiso   1.00
H166   H     0.10838   0.60419   0.40158   0.00000  Uiso   1.00
H167   H     0.56867   0.82464   0.25955   0.00000  Uiso   1.00
H168   H     0.63828   0.48399   0.93066   0.00000  Uiso   1.00
H169   H     0.32093   0.88323   0.00675   0.00000  Uiso   1.00
H170   H     0.16093   0.87464   0.09800   0.00000  Uiso   1.00
H171   H     0.37922   0.97920   0.03066   0.00000  Uiso   1.00
H172   H     0.41223   0.81765   0.87469   0.00000  Uiso   1.00
H173   H     0.99998   0.83080   0.22583   0.00000  Uiso   1.00
H174   H     0.46028   0.05125   0.08380   0.00000  Uiso   1.00
H175   H     0.52989   0.71060   0.75491   0.00000  Uiso   1.00
O176   O     0.95121   0.70709   0.37746   0.00000  Uiso   1.00
O177   O     0.55512   0.99631   0.19111   0.00000  Uiso   1.00
O178   O     0.64644   0.54938   0.75961   0.00000  Uiso   1.00
N179   N     0.10483   0.65869   0.34768   0.00000  Uiso   1.00
N180   N     0.53516   0.86480   0.21491   0.00000  Uiso   1.00
N181   N     0.60026   0.54633   0.90742   0.00000  Uiso   1.00
N182   N     0.04650   0.78063   0.25312   0.00000  Uiso   1.00
N183   N     0.47683   0.98674   0.12034   0.00000  Uiso   1.00
N184   N     0.54193   0.66827   0.81285   0.00000  Uiso   1.00
C185   C     0.16631   0.41883   0.67828   0.00000  Uiso   1.00
C186   C     0.19365   0.31798   0.70237   0.00000  Uiso   1.00
C187   C     0.26898   0.26571   0.65454   0.00000  Uiso   1.00
C188   C     0.28219   0.17471   0.68758   0.00000  Uiso   1.00
C189   C     0.33379   0.02379   0.71313   0.00000  Uiso   1.00
C190   C     0.15668   0.43678   0.75982   0.00000  Uiso   1.00
C191   C     0.20092   0.48441   0.76028   0.00000  Uiso   1.00
C192   C     0.18300   0.49342   0.84168   0.00000  Uiso   1.00
C193   C     0.17717   0.52699   0.95640   0.00000  Uiso   1.00
C194   C     0.07289   0.45468   0.67118   0.00000  Uiso   1.00
C195   C     0.04666   0.51737   0.59713   0.00000  Uiso   1.00
C196   C     0.95818   0.54146   0.60393   0.00000  Uiso   1.00
C197   C     0.82224   0.60282   0.58103   0.00000  Uiso   1.00
C198   C     0.05582   0.35017   0.82203   0.00000  Uiso   1.00
C199   C     0.13363   0.28069   0.78045   0.00000  Uiso   1.00
C200   C     0.14673   0.18975   0.81358   0.00000  Uiso   1.00
C201   C     0.22207   0.13735   0.76580   0.00000  Uiso   1.00
C202   C     0.09667   0.39949   0.83789   0.00000  Uiso   1.00
C203   C     0.07868   0.40844   0.91932   0.00000  Uiso   1.00
C204   C     0.12288   0.45606   0.91990   0.00000  Uiso   1.00
C205   C     0.01287   0.41738   0.74926   0.00000  Uiso   1.00
C206   C     0.92441   0.44139   0.75617   0.00000  Uiso   1.00
C207   C     0.89806   0.50410   0.68215   0.00000  Uiso   1.00
H208   H     0.21303   0.44787   0.61750   0.00000  Uiso   1.00
H209   H     0.31541   0.29460   0.59412   0.00000  Uiso   1.00
H210   H     0.24736   0.51327   0.69984   0.00000  Uiso   1.00
H211   H     0.09312   0.54621   0.53673   0.00000  Uiso   1.00
H212   H     0.40246   0.10822   0.60265   0.00000  Uiso   1.00
H213   H     0.25895   0.56932   0.82556   0.00000  Uiso   1.00
H214   H     0.93371   0.63880   0.48160   0.00000  Uiso   1.00
H215   H     0.00909   0.32114   0.88282   0.00000  Uiso   1.00
H216   H     0.10028   0.16091   0.87400   0.00000  Uiso   1.00
H217   H     0.03223   0.37958   0.97972   0.00000  Uiso   1.00
H218   H     0.87799   0.41252   0.81660   0.00000  Uiso   1.00
H219   H     0.22785   0.99971   0.82981   0.00000  Uiso   1.00
H220   H     0.08434   0.46082   0.05273   0.00000  Uiso   1.00
H221   H     0.75910   0.53029   0.70876   0.00000  Uiso   1.00
O222   O     0.37884   0.95084   0.70566   0.00000  Uiso   1.00
O223   O     0.19054   0.55580   0.99811   0.00000  Uiso   1.00
O224   O     0.76384   0.64695   0.54683   0.00000  Uiso   1.00
N225   N     0.34884   0.10467   0.65731   0.00000  Uiso   1.00
N226   N     0.21468   0.53576   0.86573   0.00000  Uiso   1.00
N227   N     0.91060   0.60073   0.54416   0.00000  Uiso   1.00
N228   N     0.25489   0.04628   0.77955   0.00000  Uiso   1.00
N229   N     0.12072   0.47737   0.98796   0.00000  Uiso   1.00
N230   N     0.81665   0.54235   0.66639   0.00000  Uiso   1.00
C231   C     0.67928   0.16590   0.41959   0.00000  Uiso   1.00
C232   C     0.70340   0.19325   0.31823   0.00000  Uiso   1.00
C233   C     0.65584   0.26866   0.26566   0.00000  Uiso   1.00
C234   C     0.68887   0.28186   0.17421   0.00000  Uiso   1.00
C235   C     0.71450   0.33348   0.02251   0.00000  Uiso   1.00
C236   C     0.76011   0.15629   0.43793   0.00000  Uiso   1.00
C237   C     0.76021   0.20063   0.48603   0.00000  Uiso   1.00
C238   C     0.84098   0.18271   0.49534   0.00000  Uiso   1.00
C239   C     0.95464   0.17690   0.52955   0.00000  Uiso   1.00
C240   C     0.67251   0.07235   0.45535   0.00000  Uiso   1.00
C241   C     0.59897   0.04608   0.51811   0.00000  Uiso   1.00
C242   C     0.60599   0.95748   0.54211   0.00000  Uiso   1.00
C243   C     0.58364   0.82134   0.60336   0.00000  Uiso   1.00
C244   C     0.82252   0.05524   0.35063   0.00000  Uiso   1.00
C245   C     0.78120   0.13314   0.28078   0.00000  Uiso   1.00
C246   C     0.81431   0.14622   0.18937   0.00000  Uiso   1.00
C247   C     0.76680   0.22164   0.13668   0.00000  Uiso   1.00
C248   C     0.83790   0.09619   0.40048   0.00000  Uiso   1.00
C249   C     0.91869   0.07819   0.40974   0.00000  Uiso   1.00
C250   C     0.91892   0.12249   0.45782   0.00000  Uiso   1.00
C251   C     0.75031   0.01223   0.41790   0.00000  Uiso   1.00
C252   C     0.75745   0.92365   0.44181   0.00000  Uiso   1.00
C253   C     0.68393   0.89726   0.50459   0.00000  Uiso   1.00
H254   H     0.61871   0.21270   0.44875   0.00000  Uiso   1.00
H255   H     0.59563   0.31516   0.29467   0.00000  Uiso   1.00
H256   H     0.69999   0.24713   0.51501   0.00000  Uiso   1.00
H257   H     0.53878   0.09262   0.54708   0.00000  Uiso   1.00
H258   H     0.60437   0.40227   0.10733   0.00000  Uiso   1.00
H259   H     0.82442   0.25880   0.57194   0.00000  Uiso   1.00
H260   H     0.48445   0.93298   0.63958   0.00000  Uiso   1.00
H261   H     0.88309   0.00844   0.32148   0.00000  Uiso   1.00
H262   H     0.87452   0.09969   0.16041   0.00000  Uiso   1.00
H263   H     0.97888   0.03167   0.38075   0.00000  Uiso   1.00
H264   H     0.81766   0.87715   0.41282   0.00000  Uiso   1.00
H265   H     0.83073   0.22739   0.99836   0.00000  Uiso   1.00
H266   H     0.05077   0.08392   0.46298   0.00000  Uiso   1.00
H267   H     0.71081   0.75810   0.53061   0.00000  Uiso   1.00
O268   O     0.70716   0.37856   0.94918   0.00000  Uiso   1.00
O269   O     0.99584   0.19032   0.55876   0.00000  Uiso   1.00
O270   O     0.54982   0.76285   0.64748   0.00000  Uiso   1.00
N271   N     0.65881   0.34858   0.10379   0.00000  Uiso   1.00
N272   N     0.86454   0.21446   0.53816   0.00000  Uiso   1.00
N273   N     0.54672   0.90983   0.60142   0.00000  Uiso   1.00
N274   N     0.78061   0.25448   0.04515   0.00000  Uiso   1.00
N275   N     0.98634   0.12035   0.47953   0.00000  Uiso   1.00
N276   N     0.66851   0.81573   0.54278   0.00000  Uiso   1.00
