data_job_05445
_audit_creation_date              2018-12-19
_audit_creation_method            'Materials Studio'
_symmetry_space_group_name_H-M    'P1'
_symmetry_Int_Tables_number       1
_symmetry_cell_setting            triclinic
loop_
_symmetry_equiv_pos_as_xyz
  x,y,z
_cell_length_a                    20.0146
_cell_length_b                    20.0146
_cell_length_c                    12.5466
_cell_angle_alpha                 90.0000
_cell_angle_beta                  90.0000
_cell_angle_gamma                 90.0000
loop_
_atom_site_label
_atom_site_type_symbol
_atom_site_fract_x
_atom_site_fract_y
_atom_site_fract_z
_atom_site_U_iso_or_equiv
_atom_site_adp_type
_atom_site_occupancy
C1     C     0.78049   0.69638   0.83351   0.00000  Uiso   1.00
C2     C     0.79282   0.66980   0.72131   0.00000  Uiso   1.00
C3     C     0.74470   0.64324   0.65389   0.00000  Uiso   1.00
C4     C     0.76604   0.62164   0.55440   0.00000  Uiso   1.00
C5     C     0.77499   0.57961   0.38490   0.00000  Uiso   1.00
C6     C     0.82720   0.65727   0.90651   0.00000  Uiso   1.00
C7     C     0.80798   0.62018   0.99481   0.00000  Uiso   1.00
C8     C     0.85827   0.58805   0.05122   0.00000  Uiso   1.00
C9     C     0.92059   0.52660   0.16930   0.00000  Uiso   1.00
C10    C     0.80608   0.76814   0.83379   0.00000  Uiso   1.00
C11    C     0.76912   0.82428   0.86096   0.00000  Uiso   1.00
C12    C     0.80163   0.88548   0.85617   0.00000  Uiso   1.00
C13    C     0.83117   0.99618   0.86133   0.00000  Uiso   1.00
C14    C     0.90398   0.70525   0.77672   0.00000  Uiso   1.00
C15    C     0.85989   0.67462   0.69047   0.00000  Uiso   1.00
C16    C     0.88132   0.65306   0.59105   0.00000  Uiso   1.00
C17    C     0.83324   0.62647   0.52349   0.00000  Uiso   1.00
C18    C     0.89427   0.66209   0.87567   0.00000  Uiso   1.00
C19    C     0.94460   0.63000   0.93197   0.00000  Uiso   1.00
C20    C     0.92546   0.59288   0.02032   0.00000  Uiso   1.00
C21    C     0.87316   0.77296   0.80294   0.00000  Uiso   1.00
C22    C     0.90574   0.83409   0.79812   0.00000  Uiso   1.00
C23    C     0.86882   0.89031   0.82527   0.00000  Uiso   1.00
H24    H     0.72828   0.69262   0.85754   0.00000  Uiso   1.00
H25    H     0.69280   0.63951   0.67780   0.00000  Uiso   1.00
H26    H     0.75607   0.61647   0.01867   0.00000  Uiso   1.00
H27    H     0.71721   0.82053   0.88483   0.00000  Uiso   1.00
H28    H     0.68305   0.58273   0.46494   0.00000  Uiso   1.00
H29    H     0.81646   0.53416   0.18370   0.00000  Uiso   1.00
H30    H     0.73452   0.96446   0.90149   0.00000  Uiso   1.00
H31    H     0.95620   0.70901   0.75270   0.00000  Uiso   1.00
H32    H     0.93323   0.65679   0.56720   0.00000  Uiso   1.00
H33    H     0.99650   0.63375   0.90808   0.00000  Uiso   1.00
H34    H     0.95764   0.83781   0.77424   0.00000  Uiso   1.00
H35    H     0.87819   0.59675   0.37517   0.00000  Uiso   1.00
H36    H     0.01160   0.54819   0.09394   0.00000  Uiso   1.00
H37    H     0.92966   0.97848   0.81173   0.00000  Uiso   1.00
O38    O     0.76140   0.55508   0.29993   0.00000  Uiso   1.00
O39    O     0.93643   0.49137   0.24294   0.00000  Uiso   1.00
O40    O     0.82893   0.05591   0.87268   0.00000  Uiso   1.00
N41    N     0.73212   0.59321   0.46926   0.00000  Uiso   1.00
N42    N     0.85686   0.54779   0.14125   0.00000  Uiso   1.00
N43    N     0.78026   0.95008   0.87744   0.00000  Uiso   1.00
N44    N     0.83713   0.60076   0.42096   0.00000  Uiso   1.00
N45    N     0.96186   0.55534   0.09295   0.00000  Uiso   1.00
N46    N     0.88526   0.95763   0.82914   0.00000  Uiso   1.00
C47    C     0.21951   0.30362   0.33351   0.00000  Uiso   1.00
C48    C     0.20718   0.33020   0.22131   0.00000  Uiso   1.00
C49    C     0.25530   0.35676   0.15389   0.00000  Uiso   1.00
C50    C     0.23396   0.37836   0.05440   0.00000  Uiso   1.00
C51    C     0.22501   0.42039   0.88490   0.00000  Uiso   1.00
C52    C     0.17280   0.34273   0.40651   0.00000  Uiso   1.00
C53    C     0.19202   0.37982   0.49481   0.00000  Uiso   1.00
C54    C     0.14173   0.41195   0.55122   0.00000  Uiso   1.00
C55    C     0.07941   0.47340   0.66930   0.00000  Uiso   1.00
C56    C     0.19392   0.23186   0.33379   0.00000  Uiso   1.00
C57    C     0.23088   0.17572   0.36096   0.00000  Uiso   1.00
C58    C     0.19837   0.11452   0.35617   0.00000  Uiso   1.00
C59    C     0.16883   0.00382   0.36133   0.00000  Uiso   1.00
C60    C     0.09602   0.29475   0.27672   0.00000  Uiso   1.00
C61    C     0.14011   0.32538   0.19047   0.00000  Uiso   1.00
C62    C     0.11868   0.34694   0.09105   0.00000  Uiso   1.00
C63    C     0.16676   0.37353   0.02349   0.00000  Uiso   1.00
C64    C     0.10573   0.33791   0.37567   0.00000  Uiso   1.00
C65    C     0.05540   0.37000   0.43197   0.00000  Uiso   1.00
C66    C     0.07454   0.40712   0.52032   0.00000  Uiso   1.00
C67    C     0.12684   0.22704   0.30294   0.00000  Uiso   1.00
C68    C     0.09426   0.16591   0.29812   0.00000  Uiso   1.00
C69    C     0.13118   0.10969   0.32527   0.00000  Uiso   1.00
H70    H     0.27172   0.30738   0.35754   0.00000  Uiso   1.00
H71    H     0.30720   0.36049   0.17780   0.00000  Uiso   1.00
H72    H     0.24393   0.38353   0.51867   0.00000  Uiso   1.00
H73    H     0.28279   0.17947   0.38483   0.00000  Uiso   1.00
H74    H     0.31695   0.41727   0.96494   0.00000  Uiso   1.00
H75    H     0.18354   0.46584   0.68370   0.00000  Uiso   1.00
H76    H     0.26548   0.03554   0.40149   0.00000  Uiso   1.00
H77    H     0.04380   0.29099   0.25270   0.00000  Uiso   1.00
H78    H     0.06677   0.34321   0.06720   0.00000  Uiso   1.00
H79    H     0.00350   0.36625   0.40808   0.00000  Uiso   1.00
H80    H     0.04236   0.16219   0.27424   0.00000  Uiso   1.00
H81    H     0.12181   0.40325   0.87517   0.00000  Uiso   1.00
H82    H     0.98840   0.45181   0.59394   0.00000  Uiso   1.00
H83    H     0.07034   0.02152   0.31173   0.00000  Uiso   1.00
O84    O     0.23860   0.44492   0.79993   0.00000  Uiso   1.00
O85    O     0.06357   0.50863   0.74294   0.00000  Uiso   1.00
O86    O     0.17107   0.94409   0.37268   0.00000  Uiso   1.00
N87    N     0.26788   0.40679   0.96926   0.00000  Uiso   1.00
N88    N     0.14314   0.45221   0.64125   0.00000  Uiso   1.00
N89    N     0.21974   0.04992   0.37744   0.00000  Uiso   1.00
N90    N     0.16287   0.39924   0.92096   0.00000  Uiso   1.00
N91    N     0.03814   0.44466   0.59295   0.00000  Uiso   1.00
N92    N     0.11474   0.04237   0.32914   0.00000  Uiso   1.00
C93    C     0.80362   0.28049   0.58351   0.00000  Uiso   1.00
C94    C     0.83020   0.29282   0.47131   0.00000  Uiso   1.00
C95    C     0.85676   0.24470   0.40389   0.00000  Uiso   1.00
C96    C     0.87836   0.26604   0.30440   0.00000  Uiso   1.00
C97    C     0.92039   0.27499   0.13490   0.00000  Uiso   1.00
C98    C     0.84273   0.32720   0.65651   0.00000  Uiso   1.00
C99    C     0.87982   0.30798   0.74481   0.00000  Uiso   1.00
C100   C     0.91195   0.35827   0.80122   0.00000  Uiso   1.00
C101   C     0.97340   0.42059   0.91930   0.00000  Uiso   1.00
C102   C     0.73186   0.30608   0.58379   0.00000  Uiso   1.00
C103   C     0.67572   0.26912   0.61096   0.00000  Uiso   1.00
C104   C     0.61452   0.30163   0.60617   0.00000  Uiso   1.00
C105   C     0.50382   0.33117   0.61133   0.00000  Uiso   1.00
C106   C     0.79475   0.40398   0.52672   0.00000  Uiso   1.00
C107   C     0.82538   0.35989   0.44047   0.00000  Uiso   1.00
C108   C     0.84694   0.38132   0.34105   0.00000  Uiso   1.00
C109   C     0.87353   0.33324   0.27349   0.00000  Uiso   1.00
C110   C     0.83791   0.39427   0.62567   0.00000  Uiso   1.00
C111   C     0.87000   0.44460   0.68197   0.00000  Uiso   1.00
C112   C     0.90712   0.42546   0.77032   0.00000  Uiso   1.00
C113   C     0.72704   0.37316   0.55294   0.00000  Uiso   1.00
C114   C     0.66591   0.40574   0.54812   0.00000  Uiso   1.00
C115   C     0.60969   0.36882   0.57527   0.00000  Uiso   1.00
H116   H     0.80738   0.22828   0.60754   0.00000  Uiso   1.00
H117   H     0.86049   0.19280   0.42780   0.00000  Uiso   1.00
H118   H     0.88353   0.25607   0.76867   0.00000  Uiso   1.00
H119   H     0.67947   0.21721   0.63483   0.00000  Uiso   1.00
H120   H     0.91727   0.18305   0.21494   0.00000  Uiso   1.00
H121   H     0.96584   0.31646   0.93370   0.00000  Uiso   1.00
H122   H     0.53554   0.23452   0.65149   0.00000  Uiso   1.00
H123   H     0.79099   0.45620   0.50270   0.00000  Uiso   1.00
H124   H     0.84321   0.43323   0.31720   0.00000  Uiso   1.00
H125   H     0.86625   0.49650   0.65808   0.00000  Uiso   1.00
H126   H     0.66219   0.45764   0.52424   0.00000  Uiso   1.00
H127   H     0.90325   0.37819   0.12517   0.00000  Uiso   1.00
H128   H     0.95181   0.51160   0.84394   0.00000  Uiso   1.00
H129   H     0.52152   0.42966   0.56173   0.00000  Uiso   1.00
O130   O     0.94492   0.26140   0.04993   0.00000  Uiso   1.00
O131   O     0.00863   0.43643   0.99294   0.00000  Uiso   1.00
O132   O     0.44409   0.32893   0.62268   0.00000  Uiso   1.00
N133   N     0.90679   0.23212   0.21926   0.00000  Uiso   1.00
N134   N     0.95221   0.35686   0.89125   0.00000  Uiso   1.00
N135   N     0.54992   0.28026   0.62744   0.00000  Uiso   1.00
N136   N     0.89924   0.33713   0.17096   0.00000  Uiso   1.00
N137   N     0.94466   0.46186   0.84295   0.00000  Uiso   1.00
N138   N     0.54237   0.38526   0.57914   0.00000  Uiso   1.00
C139   C     0.19638   0.71951   0.08351   0.00000  Uiso   1.00
C140   C     0.16980   0.70718   0.97131   0.00000  Uiso   1.00
C141   C     0.14324   0.75530   0.90389   0.00000  Uiso   1.00
C142   C     0.12164   0.73396   0.80440   0.00000  Uiso   1.00
C143   C     0.07961   0.72501   0.63490   0.00000  Uiso   1.00
C144   C     0.15727   0.67280   0.15651   0.00000  Uiso   1.00
C145   C     0.12018   0.69202   0.24481   0.00000  Uiso   1.00
C146   C     0.08805   0.64173   0.30122   0.00000  Uiso   1.00
C147   C     0.02660   0.57941   0.41930   0.00000  Uiso   1.00
C148   C     0.26814   0.69392   0.08379   0.00000  Uiso   1.00
C149   C     0.32428   0.73088   0.11096   0.00000  Uiso   1.00
C150   C     0.38548   0.69837   0.10617   0.00000  Uiso   1.00
C151   C     0.49618   0.66883   0.11133   0.00000  Uiso   1.00
C152   C     0.20525   0.59602   0.02672   0.00000  Uiso   1.00
C153   C     0.17462   0.64011   0.94047   0.00000  Uiso   1.00
C154   C     0.15306   0.61868   0.84105   0.00000  Uiso   1.00
C155   C     0.12647   0.66676   0.77349   0.00000  Uiso   1.00
C156   C     0.16209   0.60573   0.12567   0.00000  Uiso   1.00
C157   C     0.13000   0.55540   0.18197   0.00000  Uiso   1.00
C158   C     0.09288   0.57454   0.27032   0.00000  Uiso   1.00
C159   C     0.27296   0.62684   0.05294   0.00000  Uiso   1.00
C160   C     0.33409   0.59426   0.04812   0.00000  Uiso   1.00
C161   C     0.39031   0.63118   0.07527   0.00000  Uiso   1.00
H162   H     0.19262   0.77172   0.10754   0.00000  Uiso   1.00
H163   H     0.13951   0.80720   0.92780   0.00000  Uiso   1.00
H164   H     0.11647   0.74393   0.26867   0.00000  Uiso   1.00
H165   H     0.32053   0.78279   0.13483   0.00000  Uiso   1.00
H166   H     0.08273   0.81695   0.71494   0.00000  Uiso   1.00
H167   H     0.03416   0.68354   0.43370   0.00000  Uiso   1.00
H168   H     0.46446   0.76548   0.15149   0.00000  Uiso   1.00
H169   H     0.20901   0.54380   0.00270   0.00000  Uiso   1.00
H170   H     0.15679   0.56677   0.81720   0.00000  Uiso   1.00
H171   H     0.13375   0.50350   0.15808   0.00000  Uiso   1.00
H172   H     0.33781   0.54236   0.02424   0.00000  Uiso   1.00
H173   H     0.09675   0.62181   0.62517   0.00000  Uiso   1.00
H174   H     0.04819   0.48840   0.34394   0.00000  Uiso   1.00
H175   H     0.47848   0.57034   0.06173   0.00000  Uiso   1.00
O176   O     0.05508   0.73860   0.54993   0.00000  Uiso   1.00
O177   O     0.99137   0.56357   0.49294   0.00000  Uiso   1.00
O178   O     0.55591   0.67107   0.12268   0.00000  Uiso   1.00
N179   N     0.09321   0.76788   0.71926   0.00000  Uiso   1.00
N180   N     0.04779   0.64314   0.39125   0.00000  Uiso   1.00
N181   N     0.45008   0.71974   0.12744   0.00000  Uiso   1.00
N182   N     0.10076   0.66287   0.67096   0.00000  Uiso   1.00
N183   N     0.05534   0.53814   0.34295   0.00000  Uiso   1.00
N184   N     0.45763   0.61474   0.07914   0.00000  Uiso   1.00
C185   C     0.71951   0.19638   0.91649   0.00000  Uiso   1.00
C186   C     0.70718   0.16980   0.02869   0.00000  Uiso   1.00
C187   C     0.75530   0.14324   0.09611   0.00000  Uiso   1.00
C188   C     0.73396   0.12164   0.19560   0.00000  Uiso   1.00
C189   C     0.72501   0.07961   0.36510   0.00000  Uiso   1.00
C190   C     0.67280   0.15727   0.84349   0.00000  Uiso   1.00
C191   C     0.69202   0.12018   0.75519   0.00000  Uiso   1.00
C192   C     0.64173   0.08805   0.69878   0.00000  Uiso   1.00
C193   C     0.57941   0.02660   0.58070   0.00000  Uiso   1.00
C194   C     0.69392   0.26814   0.91621   0.00000  Uiso   1.00
C195   C     0.73088   0.32428   0.88904   0.00000  Uiso   1.00
C196   C     0.69837   0.38548   0.89383   0.00000  Uiso   1.00
C197   C     0.66883   0.49618   0.88867   0.00000  Uiso   1.00
C198   C     0.59602   0.20525   0.97328   0.00000  Uiso   1.00
C199   C     0.64011   0.17462   0.05953   0.00000  Uiso   1.00
C200   C     0.61868   0.15306   0.15895   0.00000  Uiso   1.00
C201   C     0.66676   0.12647   0.22651   0.00000  Uiso   1.00
C202   C     0.60573   0.16209   0.87433   0.00000  Uiso   1.00
C203   C     0.55540   0.13000   0.81803   0.00000  Uiso   1.00
C204   C     0.57454   0.09288   0.72968   0.00000  Uiso   1.00
C205   C     0.62684   0.27296   0.94706   0.00000  Uiso   1.00
C206   C     0.59426   0.33409   0.95188   0.00000  Uiso   1.00
C207   C     0.63118   0.39031   0.92473   0.00000  Uiso   1.00
H208   H     0.77172   0.19262   0.89246   0.00000  Uiso   1.00
H209   H     0.80720   0.13951   0.07220   0.00000  Uiso   1.00
H210   H     0.74393   0.11647   0.73133   0.00000  Uiso   1.00
H211   H     0.78279   0.32053   0.86517   0.00000  Uiso   1.00
H212   H     0.81695   0.08273   0.28506   0.00000  Uiso   1.00
H213   H     0.68354   0.03416   0.56630   0.00000  Uiso   1.00
H214   H     0.76548   0.46446   0.84851   0.00000  Uiso   1.00
H215   H     0.54380   0.20901   0.99730   0.00000  Uiso   1.00
H216   H     0.56677   0.15679   0.18280   0.00000  Uiso   1.00
H217   H     0.50350   0.13375   0.84192   0.00000  Uiso   1.00
H218   H     0.54236   0.33781   0.97576   0.00000  Uiso   1.00
H219   H     0.62181   0.09675   0.37483   0.00000  Uiso   1.00
H220   H     0.48840   0.04819   0.65606   0.00000  Uiso   1.00
H221   H     0.57034   0.47848   0.93827   0.00000  Uiso   1.00
O222   O     0.73860   0.05508   0.45007   0.00000  Uiso   1.00
O223   O     0.56357   0.99137   0.50706   0.00000  Uiso   1.00
O224   O     0.67107   0.55591   0.87732   0.00000  Uiso   1.00
N225   N     0.76788   0.09321   0.28074   0.00000  Uiso   1.00
N226   N     0.64314   0.04779   0.60875   0.00000  Uiso   1.00
N227   N     0.71974   0.45008   0.87256   0.00000  Uiso   1.00
N228   N     0.66287   0.10076   0.32904   0.00000  Uiso   1.00
N229   N     0.53814   0.05534   0.65705   0.00000  Uiso   1.00
N230   N     0.61474   0.45763   0.92086   0.00000  Uiso   1.00
C231   C     0.28049   0.80362   0.41649   0.00000  Uiso   1.00
C232   C     0.29282   0.83020   0.52869   0.00000  Uiso   1.00
C233   C     0.24470   0.85676   0.59611   0.00000  Uiso   1.00
C234   C     0.26604   0.87836   0.69560   0.00000  Uiso   1.00
C235   C     0.27499   0.92039   0.86510   0.00000  Uiso   1.00
C236   C     0.32720   0.84273   0.34349   0.00000  Uiso   1.00
C237   C     0.30798   0.87982   0.25519   0.00000  Uiso   1.00
C238   C     0.35827   0.91195   0.19878   0.00000  Uiso   1.00
C239   C     0.42059   0.97340   0.08070   0.00000  Uiso   1.00
C240   C     0.30608   0.73186   0.41621   0.00000  Uiso   1.00
C241   C     0.26912   0.67572   0.38904   0.00000  Uiso   1.00
C242   C     0.30163   0.61452   0.39383   0.00000  Uiso   1.00
C243   C     0.33117   0.50382   0.38867   0.00000  Uiso   1.00
C244   C     0.40398   0.79475   0.47328   0.00000  Uiso   1.00
C245   C     0.35989   0.82538   0.55953   0.00000  Uiso   1.00
C246   C     0.38132   0.84694   0.65895   0.00000  Uiso   1.00
C247   C     0.33324   0.87353   0.72651   0.00000  Uiso   1.00
C248   C     0.39427   0.83791   0.37433   0.00000  Uiso   1.00
C249   C     0.44460   0.87000   0.31803   0.00000  Uiso   1.00
C250   C     0.42546   0.90712   0.22968   0.00000  Uiso   1.00
C251   C     0.37316   0.72704   0.44706   0.00000  Uiso   1.00
C252   C     0.40574   0.66591   0.45188   0.00000  Uiso   1.00
C253   C     0.36882   0.60969   0.42473   0.00000  Uiso   1.00
H254   H     0.22828   0.80738   0.39246   0.00000  Uiso   1.00
H255   H     0.19280   0.86049   0.57220   0.00000  Uiso   1.00
H256   H     0.25607   0.88353   0.23133   0.00000  Uiso   1.00
H257   H     0.21721   0.67947   0.36517   0.00000  Uiso   1.00
H258   H     0.18305   0.91727   0.78506   0.00000  Uiso   1.00
H259   H     0.31646   0.96584   0.06630   0.00000  Uiso   1.00
H260   H     0.23452   0.53554   0.34851   0.00000  Uiso   1.00
H261   H     0.45620   0.79099   0.49730   0.00000  Uiso   1.00
H262   H     0.43323   0.84321   0.68280   0.00000  Uiso   1.00
H263   H     0.49650   0.86625   0.34192   0.00000  Uiso   1.00
H264   H     0.45764   0.66219   0.47576   0.00000  Uiso   1.00
H265   H     0.37819   0.90325   0.87483   0.00000  Uiso   1.00
H266   H     0.51160   0.95181   0.15606   0.00000  Uiso   1.00
H267   H     0.42966   0.52152   0.43827   0.00000  Uiso   1.00
O268   O     0.26140   0.94492   0.95007   0.00000  Uiso   1.00
O269   O     0.43643   0.00863   0.00706   0.00000  Uiso   1.00
O270   O     0.32893   0.44409   0.37732   0.00000  Uiso   1.00
N271   N     0.23212   0.90679   0.78074   0.00000  Uiso   1.00
N272   N     0.35686   0.95221   0.10875   0.00000  Uiso   1.00
N273   N     0.28026   0.54992   0.37256   0.00000  Uiso   1.00
N274   N     0.33713   0.89924   0.82904   0.00000  Uiso   1.00
N275   N     0.46186   0.94466   0.15705   0.00000  Uiso   1.00
N276   N     0.38526   0.54237   0.42086   0.00000  Uiso   1.00
C277   C     0.69638   0.78049   0.16649   0.00000  Uiso   1.00
C278   C     0.66980   0.79282   0.27869   0.00000  Uiso   1.00
C279   C     0.64324   0.74470   0.34611   0.00000  Uiso   1.00
C280   C     0.62164   0.76604   0.44560   0.00000  Uiso   1.00
C281   C     0.57961   0.77499   0.61510   0.00000  Uiso   1.00
C282   C     0.65727   0.82720   0.09349   0.00000  Uiso   1.00
C283   C     0.62018   0.80798   0.00519   0.00000  Uiso   1.00
C284   C     0.58805   0.85827   0.94878   0.00000  Uiso   1.00
C285   C     0.52660   0.92059   0.83070   0.00000  Uiso   1.00
C286   C     0.76814   0.80608   0.16621   0.00000  Uiso   1.00
C287   C     0.82428   0.76912   0.13904   0.00000  Uiso   1.00
C288   C     0.88548   0.80163   0.14383   0.00000  Uiso   1.00
C289   C     0.99618   0.83117   0.13867   0.00000  Uiso   1.00
C290   C     0.70525   0.90398   0.22328   0.00000  Uiso   1.00
C291   C     0.67462   0.85989   0.30953   0.00000  Uiso   1.00
C292   C     0.65306   0.88132   0.40895   0.00000  Uiso   1.00
C293   C     0.62647   0.83324   0.47651   0.00000  Uiso   1.00
C294   C     0.66209   0.89427   0.12433   0.00000  Uiso   1.00
C295   C     0.63000   0.94460   0.06803   0.00000  Uiso   1.00
C296   C     0.59288   0.92546   0.97968   0.00000  Uiso   1.00
C297   C     0.77296   0.87316   0.19706   0.00000  Uiso   1.00
C298   C     0.83409   0.90574   0.20188   0.00000  Uiso   1.00
C299   C     0.89031   0.86882   0.17473   0.00000  Uiso   1.00
H300   H     0.69262   0.72828   0.14246   0.00000  Uiso   1.00
H301   H     0.63951   0.69280   0.32220   0.00000  Uiso   1.00
H302   H     0.61647   0.75607   0.98133   0.00000  Uiso   1.00
H303   H     0.82053   0.71721   0.11517   0.00000  Uiso   1.00
H304   H     0.58273   0.68305   0.53506   0.00000  Uiso   1.00
H305   H     0.53416   0.81646   0.81630   0.00000  Uiso   1.00
H306   H     0.96446   0.73452   0.09851   0.00000  Uiso   1.00
H307   H     0.70901   0.95620   0.24730   0.00000  Uiso   1.00
H308   H     0.65679   0.93323   0.43280   0.00000  Uiso   1.00
H309   H     0.63375   0.99650   0.09192   0.00000  Uiso   1.00
H310   H     0.83781   0.95764   0.22576   0.00000  Uiso   1.00
H311   H     0.59675   0.87819   0.62483   0.00000  Uiso   1.00
H312   H     0.54819   0.01160   0.90606   0.00000  Uiso   1.00
H313   H     0.97848   0.92966   0.18827   0.00000  Uiso   1.00
O314   O     0.55508   0.76140   0.70007   0.00000  Uiso   1.00
O315   O     0.49137   0.93643   0.75706   0.00000  Uiso   1.00
O316   O     0.05591   0.82893   0.12732   0.00000  Uiso   1.00
N317   N     0.59321   0.73212   0.53074   0.00000  Uiso   1.00
N318   N     0.54779   0.85686   0.85875   0.00000  Uiso   1.00
N319   N     0.95008   0.78026   0.12256   0.00000  Uiso   1.00
N320   N     0.60076   0.83713   0.57904   0.00000  Uiso   1.00
N321   N     0.55534   0.96186   0.90705   0.00000  Uiso   1.00
N322   N     0.95763   0.88526   0.17086   0.00000  Uiso   1.00
C323   C     0.30362   0.21951   0.66649   0.00000  Uiso   1.00
C324   C     0.33020   0.20718   0.77869   0.00000  Uiso   1.00
C325   C     0.35676   0.25530   0.84611   0.00000  Uiso   1.00
C326   C     0.37836   0.23396   0.94560   0.00000  Uiso   1.00
C327   C     0.42039   0.22501   0.11510   0.00000  Uiso   1.00
C328   C     0.34273   0.17280   0.59349   0.00000  Uiso   1.00
C329   C     0.37982   0.19202   0.50519   0.00000  Uiso   1.00
C330   C     0.41195   0.14173   0.44878   0.00000  Uiso   1.00
C331   C     0.47340   0.07941   0.33070   0.00000  Uiso   1.00
C332   C     0.23186   0.19392   0.66621   0.00000  Uiso   1.00
C333   C     0.17572   0.23088   0.63904   0.00000  Uiso   1.00
C334   C     0.11452   0.19837   0.64383   0.00000  Uiso   1.00
C335   C     0.00382   0.16883   0.63867   0.00000  Uiso   1.00
C336   C     0.29475   0.09602   0.72328   0.00000  Uiso   1.00
C337   C     0.32538   0.14011   0.80953   0.00000  Uiso   1.00
C338   C     0.34694   0.11868   0.90895   0.00000  Uiso   1.00
C339   C     0.37353   0.16676   0.97651   0.00000  Uiso   1.00
C340   C     0.33791   0.10573   0.62433   0.00000  Uiso   1.00
C341   C     0.37000   0.05540   0.56803   0.00000  Uiso   1.00
C342   C     0.40712   0.07454   0.47968   0.00000  Uiso   1.00
C343   C     0.22704   0.12684   0.69706   0.00000  Uiso   1.00
C344   C     0.16591   0.09426   0.70188   0.00000  Uiso   1.00
C345   C     0.10969   0.13118   0.67473   0.00000  Uiso   1.00
H346   H     0.30738   0.27172   0.64246   0.00000  Uiso   1.00
H347   H     0.36049   0.30720   0.82220   0.00000  Uiso   1.00
H348   H     0.38353   0.24393   0.48133   0.00000  Uiso   1.00
H349   H     0.17947   0.28279   0.61517   0.00000  Uiso   1.00
H350   H     0.41727   0.31695   0.03506   0.00000  Uiso   1.00
H351   H     0.46584   0.18354   0.31630   0.00000  Uiso   1.00
H352   H     0.03554   0.26548   0.59851   0.00000  Uiso   1.00
H353   H     0.29099   0.04380   0.74730   0.00000  Uiso   1.00
H354   H     0.34321   0.06677   0.93280   0.00000  Uiso   1.00
H355   H     0.36625   0.00350   0.59192   0.00000  Uiso   1.00
H356   H     0.16219   0.04236   0.72576   0.00000  Uiso   1.00
H357   H     0.40325   0.12181   0.12483   0.00000  Uiso   1.00
H358   H     0.45181   0.98840   0.40606   0.00000  Uiso   1.00
H359   H     0.02152   0.07034   0.68827   0.00000  Uiso   1.00
O360   O     0.44492   0.23860   0.20007   0.00000  Uiso   1.00
O361   O     0.50863   0.06357   0.25706   0.00000  Uiso   1.00
O362   O     0.94409   0.17107   0.62732   0.00000  Uiso   1.00
N363   N     0.40679   0.26788   0.03074   0.00000  Uiso   1.00
N364   N     0.45221   0.14314   0.35875   0.00000  Uiso   1.00
N365   N     0.04992   0.21974   0.62256   0.00000  Uiso   1.00
N366   N     0.39924   0.16287   0.07904   0.00000  Uiso   1.00
N367   N     0.44466   0.03814   0.40705   0.00000  Uiso   1.00
N368   N     0.04237   0.11474   0.67086   0.00000  Uiso   1.00
