data_job_07003
_audit_creation_date              2018-12-19
_audit_creation_method            'Materials Studio'
_symmetry_space_group_name_H-M    'P1'
_symmetry_Int_Tables_number       1
_symmetry_cell_setting            triclinic
loop_
_symmetry_equiv_pos_as_xyz
  x,y,z
_cell_length_a                    19.7091
_cell_length_b                    20.1178
_cell_length_c                    23.3374
_cell_angle_alpha                 88.4712
_cell_angle_beta                  71.0157
_cell_angle_gamma                 83.0878
loop_
_atom_site_label
_atom_site_type_symbol
_atom_site_fract_x
_atom_site_fract_y
_atom_site_fract_z
_atom_site_U_iso_or_equiv
_atom_site_adp_type
_atom_site_occupancy
C1     C     0.03950   0.26695   0.93725   0.00000  Uiso   1.00
C2     C     0.05517   0.33678   0.91360   0.00000  Uiso   1.00
C3     C     0.12272   0.35520   0.88153   0.00000  Uiso   1.00
C4     C     0.12572   0.42154   0.86391   0.00000  Uiso   1.00
C5     C     0.15955   0.52294   0.82508   0.00000  Uiso   1.00
C6     C     0.00093   0.27538   0.00528   0.00000  Uiso   1.00
C7     C     0.02288   0.24217   0.05030   0.00000  Uiso   1.00
C8     C     0.98022   0.25682   0.10986   0.00000  Uiso   1.00
C9     C     0.92981   0.26285   0.21338   0.00000  Uiso   1.00
C10    C     0.98372   0.24700   0.91051   0.00000  Uiso   1.00
C11    C     0.99119   0.18991   0.87586   0.00000  Uiso   1.00
C12    C     0.93402   0.18065   0.85564   0.00000  Uiso   1.00
C13    C     0.85689   0.14262   0.81200   0.00000  Uiso   1.00
C14    C     0.92469   0.35201   0.96298   0.00000  Uiso   1.00
C15    C     0.99281   0.38298   0.92757   0.00000  Uiso   1.00
C16    C     0.99570   0.44931   0.90999   0.00000  Uiso   1.00
C17    C     0.06325   0.46782   0.87791   0.00000  Uiso   1.00
C18    C     0.93857   0.32158   0.01926   0.00000  Uiso   1.00
C19    C     0.89586   0.33627   0.07876   0.00000  Uiso   1.00
C20    C     0.91774   0.30310   0.12386   0.00000  Uiso   1.00
C21    C     0.92136   0.29320   0.92448   0.00000  Uiso   1.00
C22    C     0.86417   0.28402   0.90432   0.00000  Uiso   1.00
C23    C     0.87155   0.22694   0.86964   0.00000  Uiso   1.00
H24    H     0.08804   0.23099   0.92637   0.00000  Uiso   1.00
H25    H     0.17097   0.31943   0.87073   0.00000  Uiso   1.00
H26    H     0.07114   0.20641   0.03947   0.00000  Uiso   1.00
H27    H     0.03945   0.15417   0.86505   0.00000  Uiso   1.00
H28    H     0.23541   0.43787   0.81522   0.00000  Uiso   1.00
H29    H     0.02490   0.19955   0.17102   0.00000  Uiso   1.00
H30    H     0.95808   0.08938   0.80322   0.00000  Uiso   1.00
H31    H     0.87614   0.38798   0.97386   0.00000  Uiso   1.00
H32    H     0.94744   0.48505   0.92081   0.00000  Uiso   1.00
H33    H     0.84761   0.37203   0.08956   0.00000  Uiso   1.00
H34    H     0.81592   0.31978   0.91514   0.00000  Uiso   1.00
H35    H     0.05399   0.57229   0.85587   0.00000  Uiso   1.00
H36    H     0.84347   0.33397   0.21168   0.00000  Uiso   1.00
H37    H     0.77665   0.22380   0.84388   0.00000  Uiso   1.00
O38    O     0.19543   0.56611   0.79981   0.00000  Uiso   1.00
O39    O     0.91924   0.25343   0.26661   0.00000  Uiso   1.00
O40    O     0.83157   0.10889   0.78406   0.00000  Uiso   1.00
N41    N     0.18293   0.45618   0.83205   0.00000  Uiso   1.00
N42    N     0.98612   0.23337   0.16471   0.00000  Uiso   1.00
N43    N     0.92364   0.13036   0.82086   0.00000  Uiso   1.00
N44    N     0.08530   0.52851   0.85393   0.00000  Uiso   1.00
N45    N     0.88849   0.30570   0.18659   0.00000  Uiso   1.00
N46    N     0.82601   0.20269   0.84274   0.00000  Uiso   1.00
C47    C     0.91288   0.07731   0.33209   0.00000  Uiso   1.00
C48    C     0.88082   0.06627   0.40003   0.00000  Uiso   1.00
C49    C     0.83540   0.11306   0.44209   0.00000  Uiso   1.00
C50    C     0.81188   0.09326   0.50211   0.00000  Uiso   1.00
C51    C     0.75891   0.08592   0.60498   0.00000  Uiso   1.00
C52    C     0.99456   0.06232   0.31682   0.00000  Uiso   1.00
C53    C     0.04477   0.10578   0.28892   0.00000  Uiso   1.00
C54    C     0.11700   0.08264   0.27889   0.00000  Uiso   1.00
C55    C     0.24062   0.06913   0.25254   0.00000  Uiso   1.00
C56    C     0.88999   0.02223   0.30121   0.00000  Uiso   1.00
C57    C     0.85230   0.03198   0.26016   0.00000  Uiso   1.00
C58    C     0.83651   0.97510   0.23697   0.00000  Uiso   1.00
C59    C     0.79776   0.89935   0.18637   0.00000  Uiso   1.00
C60    C     0.95189   0.95895   0.36387   0.00000  Uiso   1.00
C61    C     0.90202   0.00198   0.41729   0.00000  Uiso   1.00
C62    C     0.87856   0.98211   0.47726   0.00000  Uiso   1.00
C63    C     0.83311   0.02886   0.51941   0.00000  Uiso   1.00
C64    C     0.01576   0.99803   0.33409   0.00000  Uiso   1.00
C65    C     0.08793   0.97482   0.32409   0.00000  Uiso   1.00
C66    C     0.13823   0.01824   0.29619   0.00000  Uiso   1.00
C67    C     0.91118   0.95794   0.31847   0.00000  Uiso   1.00
C68    C     0.89546   0.90103   0.29533   0.00000  Uiso   1.00
C69    C     0.85774   0.91069   0.25426   0.00000  Uiso   1.00
H70    H     0.89639   0.12736   0.31865   0.00000  Uiso   1.00
H71    H     0.81902   0.16281   0.42872   0.00000  Uiso   1.00
H72    H     0.02835   0.15552   0.27556   0.00000  Uiso   1.00
H73    H     0.83591   0.08174   0.24681   0.00000  Uiso   1.00
H74    H     0.74260   0.17377   0.55836   0.00000  Uiso   1.00
H75    H     0.18401   0.15839   0.23542   0.00000  Uiso   1.00
H76    H     0.77819   0.00281   0.17478   0.00000  Uiso   1.00
H77    H     0.96839   0.90889   0.37732   0.00000  Uiso   1.00
H78    H     0.89497   0.93235   0.49061   0.00000  Uiso   1.00
H79    H     0.10431   0.92507   0.33745   0.00000  Uiso   1.00
H80    H     0.91186   0.85129   0.30870   0.00000  Uiso   1.00
H81    H     0.80425   0.98672   0.60860   0.00000  Uiso   1.00
H82    H     0.24566   0.97135   0.28564   0.00000  Uiso   1.00
H83    H     0.83984   0.81576   0.22501   0.00000  Uiso   1.00
O84    O     0.72385   0.09963   0.65695   0.00000  Uiso   1.00
O85    O     0.30295   0.07945   0.23324   0.00000  Uiso   1.00
O86    O     0.77053   0.87533   0.15370   0.00000  Uiso   1.00
N87    N     0.76718   0.12652   0.55464   0.00000  Uiso   1.00
N88    N     0.17986   0.11215   0.25271   0.00000  Uiso   1.00
N89    N     0.80048   0.96669   0.19601   0.00000  Uiso   1.00
N90    N     0.80035   0.02587   0.58167   0.00000  Uiso   1.00
N91    N     0.21303   0.01150   0.27974   0.00000  Uiso   1.00
N92    N     0.83365   0.86605   0.22304   0.00000  Uiso   1.00
C93    C     0.32211   0.86685   0.97655   0.00000  Uiso   1.00
C94    C     0.40238   0.86062   0.96924   0.00000  Uiso   1.00
C95    C     0.43882   0.81227   0.99555   0.00000  Uiso   1.00
C96    C     0.51221   0.81512   0.98332   0.00000  Uiso   1.00
C97    C     0.63143   0.79795   0.97765   0.00000  Uiso   1.00
C98    C     0.29116   0.93754   0.00087   0.00000  Uiso   1.00
C99    C     0.23410   0.95385   0.05376   0.00000  Uiso   1.00
C100   C     0.21387   0.02145   0.06815   0.00000  Uiso   1.00
C101   C     0.16039   0.12369   0.11157   0.00000  Uiso   1.00
C102   C     0.31769   0.86478   0.91260   0.00000  Uiso   1.00
C103   C     0.28291   0.81993   0.89129   0.00000  Uiso   1.00
C104   C     0.28499   0.82628   0.83136   0.00000  Uiso   1.00
C105   C     0.27270   0.81555   0.73773   0.00000  Uiso   1.00
C106   C     0.38764   0.95788   0.90804   0.00000  Uiso   1.00
C107   C     0.43797   0.91007   0.93203   0.00000  Uiso   1.00
C108   C     0.51133   0.91299   0.91975   0.00000  Uiso   1.00
C109   C     0.54788   0.86465   0.94604   0.00000  Uiso   1.00
C110   C     0.32676   0.98698   0.96366   0.00000  Uiso   1.00
C111   C     0.30660   0.05457   0.97797   0.00000  Uiso   1.00
C112   C     0.24953   0.07099   0.03088   0.00000  Uiso   1.00
C113   C     0.35329   0.91422   0.87539   0.00000  Uiso   1.00
C114   C     0.35542   0.92064   0.81549   0.00000  Uiso   1.00
C115   C     0.32065   0.87581   0.79409   0.00000  Uiso   1.00
H116   H     0.29439   0.82836   0.00552   0.00000  Uiso   1.00
H117   H     0.41125   0.77402   0.02434   0.00000  Uiso   1.00
H118   H     0.20656   0.91558   0.08255   0.00000  Uiso   1.00
H119   H     0.25537   0.78167   0.92009   0.00000  Uiso   1.00
H120   H     0.55651   0.73560   0.02882   0.00000  Uiso   1.00
H121   H     0.12488   0.03408   0.15154   0.00000  Uiso   1.00
H122   H     0.22780   0.75172   0.80897   0.00000  Uiso   1.00
H123   H     0.41535   0.99638   0.87907   0.00000  Uiso   1.00
H124   H     0.53886   0.95126   0.89096   0.00000  Uiso   1.00
H125   H     0.33416   0.09282   0.94916   0.00000  Uiso   1.00
H126   H     0.38297   0.95891   0.78671   0.00000  Uiso   1.00
H127   H     0.66008   0.87945   0.92056   0.00000  Uiso   1.00
H128   H     0.22845   0.17794   0.04328   0.00000  Uiso   1.00
H129   H     0.33137   0.89557   0.70071   0.00000  Uiso   1.00
O130   O     0.68735   0.77483   0.98481   0.00000  Uiso   1.00
O131   O     0.12106   0.16643   0.14580   0.00000  Uiso   1.00
O132   O     0.25609   0.79597   0.69636   0.00000  Uiso   1.00
N133   N     0.56394   0.77564   0.00170   0.00000  Uiso   1.00
N134   N     0.16040   0.05470   0.11644   0.00000  Uiso   1.00
N135   N     0.25660   0.79073   0.79617   0.00000  Uiso   1.00
N136   N     0.61967   0.85304   0.94345   0.00000  Uiso   1.00
N137   N     0.21613   0.13211   0.05819   0.00000  Uiso   1.00
N138   N     0.31233   0.86813   0.73792   0.00000  Uiso   1.00
C139   C     0.62767   0.35333   0.82877   0.00000  Uiso   1.00
C140   C     0.61175   0.35443   0.89723   0.00000  Uiso   1.00
C141   C     0.66289   0.34480   0.92675   0.00000  Uiso   1.00
C142   C     0.63739   0.34772   0.98964   0.00000  Uiso   1.00
C143   C     0.62393   0.34761   0.09105   0.00000  Uiso   1.00
C144   C     0.59310   0.42040   0.81340   0.00000  Uiso   1.00
C145   C     0.62856   0.46624   0.77244   0.00000  Uiso   1.00
C146   C     0.58736   0.52469   0.76476   0.00000  Uiso   1.00
C147   C     0.54493   0.62699   0.73600   0.00000  Uiso   1.00
C148   C     0.58480   0.30044   0.81623   0.00000  Uiso   1.00
C149   C     0.61328   0.24542   0.77764   0.00000  Uiso   1.00
C150   C     0.56509   0.20287   0.77233   0.00000  Uiso   1.00
C151   C     0.50979   0.11891   0.74796   0.00000  Uiso   1.00
C152   C     0.49144   0.37561   0.88795   0.00000  Uiso   1.00
C153   C     0.53775   0.36653   0.92937   0.00000  Uiso   1.00
C154   C     0.51217   0.36946   0.99223   0.00000  Uiso   1.00
C155   C     0.56327   0.35984   0.02184   0.00000  Uiso   1.00
C156   C     0.51911   0.43251   0.84555   0.00000  Uiso   1.00
C157   C     0.47784   0.49090   0.83792   0.00000  Uiso   1.00
C158   C     0.51323   0.53682   0.79697   0.00000  Uiso   1.00
C159   C     0.51081   0.31254   0.84838   0.00000  Uiso   1.00
C160   C     0.46257   0.27007   0.84313   0.00000  Uiso   1.00
C161   C     0.49097   0.21500   0.80454   0.00000  Uiso   1.00
H162   H     0.68527   0.34391   0.80374   0.00000  Uiso   1.00
H163   H     0.72014   0.33544   0.90186   0.00000  Uiso   1.00
H164   H     0.68581   0.45686   0.74757   0.00000  Uiso   1.00
H165   H     0.67054   0.23607   0.75277   0.00000  Uiso   1.00
H166   H     0.72618   0.33142   0.02481   0.00000  Uiso   1.00
H167   H     0.65379   0.58742   0.69948   0.00000  Uiso   1.00
H168   H     0.62159   0.12184   0.71044   0.00000  Uiso   1.00
H169   H     0.43384   0.38504   0.91298   0.00000  Uiso   1.00
H170   H     0.45491   0.37882   0.01710   0.00000  Uiso   1.00
H171   H     0.42059   0.50025   0.86281   0.00000  Uiso   1.00
H172   H     0.40531   0.27946   0.86801   0.00000  Uiso   1.00
H173   H     0.51091   0.36663   0.11835   0.00000  Uiso   1.00
H174   H     0.43852   0.62264   0.79300   0.00000  Uiso   1.00
H175   H     0.40632   0.15706   0.80397   0.00000  Uiso   1.00
O176   O     0.63694   0.34422   0.13810   0.00000  Uiso   1.00
O177   O     0.54197   0.68008   0.71126   0.00000  Uiso   1.00
O178   O     0.49973   0.06925   0.72565   0.00000  Uiso   1.00
N179   N     0.67262   0.34054   0.03254   0.00000  Uiso   1.00
N180   N     0.60495   0.57990   0.72837   0.00000  Uiso   1.00
N181   N     0.57484   0.14463   0.73861   0.00000  Uiso   1.00
N182   N     0.55678   0.35949   0.08287   0.00000  Uiso   1.00
N183   N     0.48911   0.59885   0.77870   0.00000  Uiso   1.00
N184   N     0.45900   0.16358   0.78894   0.00000  Uiso   1.00
C185   C     0.37219   0.80496   0.55513   0.00000  Uiso   1.00
C186   C     0.35643   0.87884   0.54202   0.00000  Uiso   1.00
C187   C     0.30442   0.92468   0.58052   0.00000  Uiso   1.00
C188   C     0.29842   0.98993   0.56021   0.00000  Uiso   1.00
C189   C     0.26720   0.10181   0.54852   0.00000  Uiso   1.00
C190   C     0.45225   0.79349   0.54871   0.00000  Uiso   1.00
C191   C     0.48080   0.76757   0.59282   0.00000  Uiso   1.00
C192   C     0.55546   0.76097   0.57813   0.00000  Uiso   1.00
C193   C     0.67301   0.74031   0.57680   0.00000  Uiso   1.00
C194   C     0.36399   0.76609   0.50302   0.00000  Uiso   1.00
C195   C     0.31835   0.71712   0.50872   0.00000  Uiso   1.00
C196   C     0.31872   0.68744   0.45557   0.00000  Uiso   1.00
C197   C     0.29923   0.62423   0.38330   0.00000  Uiso   1.00
C198   C     0.45402   0.83932   0.45060   0.00000  Uiso   1.00
C199   C     0.40087   0.89750   0.48525   0.00000  Uiso   1.00
C200   C     0.39495   0.96269   0.46488   0.00000  Uiso   1.00
C201   C     0.34294   0.00863   0.50334   0.00000  Uiso   1.00
C202   C     0.49669   0.81215   0.49194   0.00000  Uiso   1.00
C203   C     0.57133   0.80559   0.47718   0.00000  Uiso   1.00
C204   C     0.59999   0.77967   0.52126   0.00000  Uiso   1.00
C205   C     0.40843   0.78475   0.44625   0.00000  Uiso   1.00
C206   C     0.40888   0.75514   0.39308   0.00000  Uiso   1.00
C207   C     0.36324   0.70613   0.39869   0.00000  Uiso   1.00
H208   H     0.33760   0.79043   0.59933   0.00000  Uiso   1.00
H209   H     0.27004   0.91022   0.62445   0.00000  Uiso   1.00
H210   H     0.44639   0.75313   0.63675   0.00000  Uiso   1.00
H211   H     0.28396   0.70269   0.55266   0.00000  Uiso   1.00
H212   H     0.21476   0.05127   0.62729   0.00000  Uiso   1.00
H213   H     0.58661   0.72001   0.65320   0.00000  Uiso   1.00
H214   H     0.24410   0.61365   0.47589   0.00000  Uiso   1.00
H215   H     0.48863   0.85384   0.40640   0.00000  Uiso   1.00
H216   H     0.42935   0.97712   0.42094   0.00000  Uiso   1.00
H217   H     0.60571   0.82003   0.43324   0.00000  Uiso   1.00
H218   H     0.44328   0.76959   0.34915   0.00000  Uiso   1.00
H219   H     0.34407   0.10557   0.46211   0.00000  Uiso   1.00
H220   H     0.71591   0.77431   0.48803   0.00000  Uiso   1.00
H221   H     0.37340   0.66795   0.31071   0.00000  Uiso   1.00
O222   O     0.23771   0.15837   0.55775   0.00000  Uiso   1.00
O223   O     0.72556   0.72376   0.59175   0.00000  Uiso   1.00
O224   O     0.27619   0.58422   0.35912   0.00000  Uiso   1.00
N225   N     0.25332   0.04712   0.58641   0.00000  Uiso   1.00
N226   N     0.60097   0.73743   0.61064   0.00000  Uiso   1.00
N227   N     0.28077   0.63798   0.44487   0.00000  Uiso   1.00
N228   N     0.32289   0.07634   0.49753   0.00000  Uiso   1.00
N229   N     0.67055   0.76665   0.52176   0.00000  Uiso   1.00
N230   N     0.35034   0.66719   0.35599   0.00000  Uiso   1.00
C231   C     0.83620   0.56072   0.38331   0.00000  Uiso   1.00
C232   C     0.91529   0.55378   0.34347   0.00000  Uiso   1.00
C233   C     0.94920   0.60214   0.30477   0.00000  Uiso   1.00
C234   C     0.02190   0.58614   0.27222   0.00000  Uiso   1.00
C235   C     0.13903   0.58482   0.20948   0.00000  Uiso   1.00
C236   C     0.83646   0.54785   0.44793   0.00000  Uiso   1.00
C237   C     0.80408   0.59123   0.49705   0.00000  Uiso   1.00
C238   C     0.81042   0.57023   0.55243   0.00000  Uiso   1.00
C239   C     0.80513   0.55970   0.65187   0.00000  Uiso   1.00
C240   C     0.80400   0.50213   0.36608   0.00000  Uiso   1.00
C241   C     0.74431   0.50705   0.34639   0.00000  Uiso   1.00
C242   C     0.72330   0.44756   0.33287   0.00000  Uiso   1.00
C243   C     0.66760   0.36603   0.30522   0.00000  Uiso   1.00
C244   C     0.90501   0.44631   0.39433   0.00000  Uiso   1.00
C245   C     0.95267   0.49163   0.34946   0.00000  Uiso   1.00
C246   C     0.02533   0.47555   0.31696   0.00000  Uiso   1.00
C247   C     0.05934   0.52388   0.27821   0.00000  Uiso   1.00
C248   C     0.87384   0.48571   0.45392   0.00000  Uiso   1.00
C249   C     0.88022   0.46464   0.50924   0.00000  Uiso   1.00
C250   C     0.84786   0.50797   0.55843   0.00000  Uiso   1.00
C251   C     0.84138   0.43998   0.37206   0.00000  Uiso   1.00
C252   C     0.82045   0.38047   0.35858   0.00000  Uiso   1.00
C253   C     0.76074   0.38530   0.33887   0.00000  Uiso   1.00
H254   H     0.80709   0.60910   0.37865   0.00000  Uiso   1.00
H255   H     0.92025   0.65023   0.30015   0.00000  Uiso   1.00
H256   H     0.77516   0.63931   0.49240   0.00000  Uiso   1.00
H257   H     0.71540   0.55515   0.34176   0.00000  Uiso   1.00
H258   H     0.06220   0.66842   0.21578   0.00000  Uiso   1.00
H259   H     0.75623   0.64540   0.62115   0.00000  Uiso   1.00
H260   H     0.63022   0.46793   0.30350   0.00000  Uiso   1.00
H261   H     0.93411   0.39792   0.39899   0.00000  Uiso   1.00
H262   H     0.05425   0.42746   0.32160   0.00000  Uiso   1.00
H263   H     0.90915   0.41655   0.51386   0.00000  Uiso   1.00
H264   H     0.84939   0.33239   0.36322   0.00000  Uiso   1.00
H265   H     0.17096   0.48762   0.23319   0.00000  Uiso   1.00
H266   H     0.86498   0.46459   0.63857   0.00000  Uiso   1.00
H267   H     0.73897   0.28713   0.32091   0.00000  Uiso   1.00
O268   O     0.19332   0.60127   0.17323   0.00000  Uiso   1.00
O269   O     0.79189   0.57106   0.70506   0.00000  Uiso   1.00
O270   O     0.62656   0.33823   0.28831   0.00000  Uiso   1.00
N271   N     0.07131   0.62181   0.23049   0.00000  Uiso   1.00
N272   N     0.78525   0.60029   0.60949   0.00000  Uiso   1.00
N273   N     0.66743   0.43438   0.31253   0.00000  Uiso   1.00
N274   N     0.12983   0.52452   0.23986   0.00000  Uiso   1.00
N275   N     0.84377   0.50300   0.61886   0.00000  Uiso   1.00
N276   N     0.72595   0.33709   0.32189   0.00000  Uiso   1.00
C277   C     0.96050   0.73305   0.06275   0.00000  Uiso   1.00
C278   C     0.94483   0.66322   0.08640   0.00000  Uiso   1.00
C279   C     0.87728   0.64480   0.11847   0.00000  Uiso   1.00
C280   C     0.87428   0.57846   0.13609   0.00000  Uiso   1.00
C281   C     0.84045   0.47706   0.17492   0.00000  Uiso   1.00
C282   C     0.99907   0.72462   0.99472   0.00000  Uiso   1.00
C283   C     0.97712   0.75783   0.94970   0.00000  Uiso   1.00
C284   C     0.01978   0.74318   0.89014   0.00000  Uiso   1.00
C285   C     0.07019   0.73715   0.78662   0.00000  Uiso   1.00
C286   C     0.01628   0.75300   0.08949   0.00000  Uiso   1.00
C287   C     0.00881   0.81009   0.12414   0.00000  Uiso   1.00
C288   C     0.06598   0.81935   0.14436   0.00000  Uiso   1.00
C289   C     0.14311   0.85738   0.18800   0.00000  Uiso   1.00
C290   C     0.07531   0.64799   0.03702   0.00000  Uiso   1.00
C291   C     0.00719   0.61702   0.07243   0.00000  Uiso   1.00
C292   C     0.00430   0.55069   0.09001   0.00000  Uiso   1.00
C293   C     0.93675   0.53218   0.12209   0.00000  Uiso   1.00
C294   C     0.06143   0.67842   0.98074   0.00000  Uiso   1.00
C295   C     0.10414   0.66373   0.92124   0.00000  Uiso   1.00
C296   C     0.08226   0.69690   0.87614   0.00000  Uiso   1.00
C297   C     0.07864   0.70680   0.07552   0.00000  Uiso   1.00
C298   C     0.13583   0.71598   0.09568   0.00000  Uiso   1.00
C299   C     0.12845   0.77306   0.13036   0.00000  Uiso   1.00
H300   H     0.91196   0.76901   0.07363   0.00000  Uiso   1.00
H301   H     0.82903   0.68057   0.12927   0.00000  Uiso   1.00
H302   H     0.92886   0.79359   0.96053   0.00000  Uiso   1.00
H303   H     0.96055   0.84583   0.13495   0.00000  Uiso   1.00
H304   H     0.76459   0.56213   0.18478   0.00000  Uiso   1.00
H305   H     0.97510   0.80045   0.82898   0.00000  Uiso   1.00
H306   H     0.04192   0.91062   0.19678   0.00000  Uiso   1.00
H307   H     0.12386   0.61202   0.02614   0.00000  Uiso   1.00
H308   H     0.05256   0.51495   0.07919   0.00000  Uiso   1.00
H309   H     0.15239   0.62797   0.91044   0.00000  Uiso   1.00
H310   H     0.18408   0.68022   0.08486   0.00000  Uiso   1.00
H311   H     0.94601   0.42771   0.14413   0.00000  Uiso   1.00
H312   H     0.15653   0.66603   0.78832   0.00000  Uiso   1.00
H313   H     0.22335   0.77620   0.15612   0.00000  Uiso   1.00
O314   O     0.80457   0.43389   0.20019   0.00000  Uiso   1.00
O315   O     0.08076   0.74657   0.73339   0.00000  Uiso   1.00
O316   O     0.16843   0.89111   0.21594   0.00000  Uiso   1.00
N317   N     0.81707   0.54382   0.16795   0.00000  Uiso   1.00
N318   N     0.01388   0.76663   0.83529   0.00000  Uiso   1.00
N319   N     0.07636   0.86964   0.17914   0.00000  Uiso   1.00
N320   N     0.91470   0.47149   0.14607   0.00000  Uiso   1.00
N321   N     0.11151   0.69430   0.81341   0.00000  Uiso   1.00
N322   N     0.17399   0.79731   0.15726   0.00000  Uiso   1.00
C323   C     0.08712   0.92269   0.66791   0.00000  Uiso   1.00
C324   C     0.11918   0.93373   0.59997   0.00000  Uiso   1.00
C325   C     0.16460   0.88694   0.55791   0.00000  Uiso   1.00
C326   C     0.18812   0.90674   0.49789   0.00000  Uiso   1.00
C327   C     0.24109   0.91408   0.39502   0.00000  Uiso   1.00
C328   C     0.00544   0.93768   0.68318   0.00000  Uiso   1.00
C329   C     0.95523   0.89422   0.71108   0.00000  Uiso   1.00
C330   C     0.88300   0.91736   0.72111   0.00000  Uiso   1.00
C331   C     0.75938   0.93087   0.74746   0.00000  Uiso   1.00
C332   C     0.11001   0.97777   0.69879   0.00000  Uiso   1.00
C333   C     0.14770   0.96802   0.73984   0.00000  Uiso   1.00
C334   C     0.16349   0.02490   0.76303   0.00000  Uiso   1.00
C335   C     0.20224   0.10065   0.81363   0.00000  Uiso   1.00
C336   C     0.04811   0.04105   0.63613   0.00000  Uiso   1.00
C337   C     0.09798   0.99802   0.58271   0.00000  Uiso   1.00
C338   C     0.12144   0.01789   0.52274   0.00000  Uiso   1.00
C339   C     0.16689   0.97114   0.48059   0.00000  Uiso   1.00
C340   C     0.98424   0.00197   0.66591   0.00000  Uiso   1.00
C341   C     0.91207   0.02518   0.67591   0.00000  Uiso   1.00
C342   C     0.86177   0.98176   0.70381   0.00000  Uiso   1.00
C343   C     0.08882   0.04206   0.68153   0.00000  Uiso   1.00
C344   C     0.10454   0.09897   0.70467   0.00000  Uiso   1.00
C345   C     0.14226   0.08931   0.74574   0.00000  Uiso   1.00
H346   H     0.10361   0.87264   0.68135   0.00000  Uiso   1.00
H347   H     0.18098   0.83719   0.57128   0.00000  Uiso   1.00
H348   H     0.97165   0.84448   0.72444   0.00000  Uiso   1.00
H349   H     0.16409   0.91826   0.75319   0.00000  Uiso   1.00
H350   H     0.25740   0.82623   0.44164   0.00000  Uiso   1.00
H351   H     0.81599   0.84161   0.76458   0.00000  Uiso   1.00
H352   H     0.22181   0.99719   0.82522   0.00000  Uiso   1.00
H353   H     0.03161   0.09111   0.62268   0.00000  Uiso   1.00
H354   H     0.10503   0.06765   0.50939   0.00000  Uiso   1.00
H355   H     0.89569   0.07493   0.66255   0.00000  Uiso   1.00
H356   H     0.08814   0.14871   0.69130   0.00000  Uiso   1.00
H357   H     0.19575   0.01328   0.39140   0.00000  Uiso   1.00
H358   H     0.75434   0.02865   0.71436   0.00000  Uiso   1.00
H359   H     0.16016   0.18424   0.77499   0.00000  Uiso   1.00
O360   O     0.27615   0.90037   0.34305   0.00000  Uiso   1.00
O361   O     0.69705   0.92055   0.76676   0.00000  Uiso   1.00
O362   O     0.22947   0.12467   0.84630   0.00000  Uiso   1.00
N363   N     0.23282   0.87348   0.44536   0.00000  Uiso   1.00
N364   N     0.82014   0.88785   0.74729   0.00000  Uiso   1.00
N365   N     0.19952   0.03331   0.80399   0.00000  Uiso   1.00
N366   N     0.19965   0.97413   0.41833   0.00000  Uiso   1.00
N367   N     0.78697   0.98850   0.72026   0.00000  Uiso   1.00
N368   N     0.16635   0.13395   0.77696   0.00000  Uiso   1.00
C369   C     0.67789   0.13315   0.02345   0.00000  Uiso   1.00
C370   C     0.59762   0.13938   0.03076   0.00000  Uiso   1.00
C371   C     0.56118   0.18773   0.00445   0.00000  Uiso   1.00
C372   C     0.48779   0.18488   0.01668   0.00000  Uiso   1.00
C373   C     0.36857   0.20205   0.02235   0.00000  Uiso   1.00
C374   C     0.70884   0.06246   0.99913   0.00000  Uiso   1.00
C375   C     0.76590   0.04615   0.94624   0.00000  Uiso   1.00
C376   C     0.78613   0.97855   0.93185   0.00000  Uiso   1.00
C377   C     0.83961   0.87631   0.88843   0.00000  Uiso   1.00
C378   C     0.68231   0.13522   0.08740   0.00000  Uiso   1.00
C379   C     0.71709   0.18007   0.10871   0.00000  Uiso   1.00
C380   C     0.71501   0.17372   0.16864   0.00000  Uiso   1.00
C381   C     0.72730   0.18445   0.26227   0.00000  Uiso   1.00
C382   C     0.61236   0.04212   0.09196   0.00000  Uiso   1.00
C383   C     0.56203   0.08993   0.06797   0.00000  Uiso   1.00
C384   C     0.48867   0.08701   0.08025   0.00000  Uiso   1.00
C385   C     0.45212   0.13535   0.05396   0.00000  Uiso   1.00
C386   C     0.67324   0.01302   0.03634   0.00000  Uiso   1.00
C387   C     0.69340   0.94543   0.02203   0.00000  Uiso   1.00
C388   C     0.75047   0.92901   0.96912   0.00000  Uiso   1.00
C389   C     0.64671   0.08578   0.12461   0.00000  Uiso   1.00
C390   C     0.64458   0.07936   0.18451   0.00000  Uiso   1.00
C391   C     0.67935   0.12419   0.20591   0.00000  Uiso   1.00
H392   H     0.70561   0.17164   0.99448   0.00000  Uiso   1.00
H393   H     0.58875   0.22598   0.97566   0.00000  Uiso   1.00
H394   H     0.79344   0.08442   0.91745   0.00000  Uiso   1.00
H395   H     0.74463   0.21833   0.07991   0.00000  Uiso   1.00
H396   H     0.44349   0.26440   0.97118   0.00000  Uiso   1.00
H397   H     0.87512   0.96592   0.84846   0.00000  Uiso   1.00
H398   H     0.77220   0.24828   0.19103   0.00000  Uiso   1.00
H399   H     0.58465   0.00362   0.12093   0.00000  Uiso   1.00
H400   H     0.46114   0.04874   0.10904   0.00000  Uiso   1.00
H401   H     0.66584   0.90718   0.05084   0.00000  Uiso   1.00
H402   H     0.61703   0.04109   0.21329   0.00000  Uiso   1.00
H403   H     0.33992   0.12055   0.07944   0.00000  Uiso   1.00
H404   H     0.77155   0.82206   0.95672   0.00000  Uiso   1.00
H405   H     0.66863   0.10443   0.29929   0.00000  Uiso   1.00
O406   O     0.31265   0.22517   0.01519   0.00000  Uiso   1.00
O407   O     0.87894   0.83357   0.85420   0.00000  Uiso   1.00
O408   O     0.74391   0.20403   0.30364   0.00000  Uiso   1.00
N409   N     0.43606   0.22436   0.99830   0.00000  Uiso   1.00
N410   N     0.83960   0.94530   0.88356   0.00000  Uiso   1.00
N411   N     0.74340   0.20927   0.20383   0.00000  Uiso   1.00
N412   N     0.38033   0.14696   0.05655   0.00000  Uiso   1.00
N413   N     0.78387   0.86789   0.94181   0.00000  Uiso   1.00
N414   N     0.68767   0.13187   0.26208   0.00000  Uiso   1.00
C415   C     0.37233   0.64667   0.17123   0.00000  Uiso   1.00
C416   C     0.38825   0.64557   0.10277   0.00000  Uiso   1.00
C417   C     0.33711   0.65520   0.07325   0.00000  Uiso   1.00
C418   C     0.36261   0.65228   0.01036   0.00000  Uiso   1.00
C419   C     0.37607   0.65239   0.90895   0.00000  Uiso   1.00
C420   C     0.40690   0.57960   0.18660   0.00000  Uiso   1.00
C421   C     0.37144   0.53376   0.22756   0.00000  Uiso   1.00
C422   C     0.41264   0.47531   0.23524   0.00000  Uiso   1.00
C423   C     0.45507   0.37301   0.26400   0.00000  Uiso   1.00
C424   C     0.41520   0.69956   0.18377   0.00000  Uiso   1.00
C425   C     0.38672   0.75458   0.22236   0.00000  Uiso   1.00
C426   C     0.43491   0.79713   0.22767   0.00000  Uiso   1.00
C427   C     0.49021   0.88109   0.25204   0.00000  Uiso   1.00
C428   C     0.50856   0.62439   0.11205   0.00000  Uiso   1.00
C429   C     0.46225   0.63347   0.07063   0.00000  Uiso   1.00
C430   C     0.48783   0.63054   0.00777   0.00000  Uiso   1.00
C431   C     0.43673   0.64016   0.97816   0.00000  Uiso   1.00
C432   C     0.48089   0.56749   0.15445   0.00000  Uiso   1.00
C433   C     0.52216   0.50910   0.16208   0.00000  Uiso   1.00
C434   C     0.48677   0.46318   0.20303   0.00000  Uiso   1.00
C435   C     0.48919   0.68746   0.15162   0.00000  Uiso   1.00
C436   C     0.53743   0.72993   0.15687   0.00000  Uiso   1.00
C437   C     0.50903   0.78500   0.19546   0.00000  Uiso   1.00
H438   H     0.31473   0.65609   0.19626   0.00000  Uiso   1.00
H439   H     0.27986   0.66456   0.09814   0.00000  Uiso   1.00
H440   H     0.31419   0.54314   0.25243   0.00000  Uiso   1.00
H441   H     0.32946   0.76393   0.24723   0.00000  Uiso   1.00
H442   H     0.27382   0.66858   0.97519   0.00000  Uiso   1.00
H443   H     0.34621   0.41258   0.30052   0.00000  Uiso   1.00
H444   H     0.37841   0.87816   0.28956   0.00000  Uiso   1.00
H445   H     0.56616   0.61496   0.08702   0.00000  Uiso   1.00
H446   H     0.54509   0.62118   0.98290   0.00000  Uiso   1.00
H447   H     0.57941   0.49975   0.13719   0.00000  Uiso   1.00
H448   H     0.59469   0.72054   0.13199   0.00000  Uiso   1.00
H449   H     0.48909   0.63337   0.88165   0.00000  Uiso   1.00
H450   H     0.56148   0.37736   0.20700   0.00000  Uiso   1.00
H451   H     0.59368   0.84294   0.19603   0.00000  Uiso   1.00
O452   O     0.36306   0.65578   0.86190   0.00000  Uiso   1.00
O453   O     0.45803   0.31992   0.28874   0.00000  Uiso   1.00
O454   O     0.50027   0.93075   0.27435   0.00000  Uiso   1.00
N455   N     0.32738   0.65946   0.96746   0.00000  Uiso   1.00
N456   N     0.39505   0.42010   0.27163   0.00000  Uiso   1.00
N457   N     0.42516   0.85537   0.26139   0.00000  Uiso   1.00
N458   N     0.44322   0.64051   0.91713   0.00000  Uiso   1.00
N459   N     0.51089   0.40115   0.22130   0.00000  Uiso   1.00
N460   N     0.54100   0.83642   0.21106   0.00000  Uiso   1.00
C461   C     0.62781   0.19504   0.44487   0.00000  Uiso   1.00
C462   C     0.64357   0.12116   0.45798   0.00000  Uiso   1.00
C463   C     0.69558   0.07532   0.41948   0.00000  Uiso   1.00
C464   C     0.70158   0.01007   0.43979   0.00000  Uiso   1.00
C465   C     0.73280   0.89819   0.45148   0.00000  Uiso   1.00
C466   C     0.54775   0.20651   0.45129   0.00000  Uiso   1.00
C467   C     0.51920   0.23243   0.40718   0.00000  Uiso   1.00
C468   C     0.44454   0.23903   0.42187   0.00000  Uiso   1.00
C469   C     0.32699   0.25969   0.42320   0.00000  Uiso   1.00
C470   C     0.63601   0.23391   0.49698   0.00000  Uiso   1.00
C471   C     0.68165   0.28288   0.49128   0.00000  Uiso   1.00
C472   C     0.68128   0.31256   0.54443   0.00000  Uiso   1.00
C473   C     0.70077   0.37577   0.61670   0.00000  Uiso   1.00
C474   C     0.54598   0.16068   0.54940   0.00000  Uiso   1.00
C475   C     0.59913   0.10250   0.51475   0.00000  Uiso   1.00
C476   C     0.60505   0.03731   0.53512   0.00000  Uiso   1.00
C477   C     0.65706   0.99137   0.49666   0.00000  Uiso   1.00
C478   C     0.50331   0.18785   0.50806   0.00000  Uiso   1.00
C479   C     0.42867   0.19441   0.52282   0.00000  Uiso   1.00
C480   C     0.40001   0.22033   0.47874   0.00000  Uiso   1.00
C481   C     0.59157   0.21525   0.55375   0.00000  Uiso   1.00
C482   C     0.59112   0.24486   0.60692   0.00000  Uiso   1.00
C483   C     0.63676   0.29387   0.60131   0.00000  Uiso   1.00
H484   H     0.66240   0.20957   0.40067   0.00000  Uiso   1.00
H485   H     0.72996   0.08978   0.37555   0.00000  Uiso   1.00
H486   H     0.55361   0.24687   0.36325   0.00000  Uiso   1.00
H487   H     0.71604   0.29731   0.44734   0.00000  Uiso   1.00
H488   H     0.78524   0.94873   0.37271   0.00000  Uiso   1.00
H489   H     0.41339   0.27999   0.34680   0.00000  Uiso   1.00
H490   H     0.75590   0.38635   0.52411   0.00000  Uiso   1.00
H491   H     0.51137   0.14616   0.59360   0.00000  Uiso   1.00
H492   H     0.57065   0.02288   0.57906   0.00000  Uiso   1.00
H493   H     0.39429   0.17997   0.56676   0.00000  Uiso   1.00
H494   H     0.55672   0.23041   0.65085   0.00000  Uiso   1.00
H495   H     0.65593   0.89443   0.53789   0.00000  Uiso   1.00
H496   H     0.28409   0.22569   0.51197   0.00000  Uiso   1.00
H497   H     0.62660   0.33205   0.68929   0.00000  Uiso   1.00
O498   O     0.76229   0.84163   0.44225   0.00000  Uiso   1.00
O499   O     0.27444   0.27624   0.40825   0.00000  Uiso   1.00
O500   O     0.72381   0.41578   0.64088   0.00000  Uiso   1.00
N501   N     0.74668   0.95288   0.41359   0.00000  Uiso   1.00
N502   N     0.39903   0.26257   0.38936   0.00000  Uiso   1.00
N503   N     0.71923   0.36202   0.55513   0.00000  Uiso   1.00
N504   N     0.67711   0.92366   0.50247   0.00000  Uiso   1.00
N505   N     0.32945   0.23335   0.47824   0.00000  Uiso   1.00
N506   N     0.64966   0.33281   0.64401   0.00000  Uiso   1.00
C507   C     0.16380   0.43928   0.61669   0.00000  Uiso   1.00
C508   C     0.08471   0.44622   0.65653   0.00000  Uiso   1.00
C509   C     0.05080   0.39786   0.69523   0.00000  Uiso   1.00
C510   C     0.97810   0.41386   0.72778   0.00000  Uiso   1.00
C511   C     0.86097   0.41518   0.79052   0.00000  Uiso   1.00
C512   C     0.16354   0.45215   0.55207   0.00000  Uiso   1.00
C513   C     0.19592   0.40877   0.50295   0.00000  Uiso   1.00
C514   C     0.18958   0.42977   0.44757   0.00000  Uiso   1.00
C515   C     0.19487   0.44030   0.34813   0.00000  Uiso   1.00
C516   C     0.19600   0.49787   0.63392   0.00000  Uiso   1.00
C517   C     0.25569   0.49295   0.65361   0.00000  Uiso   1.00
C518   C     0.27670   0.55244   0.66713   0.00000  Uiso   1.00
C519   C     0.33240   0.63397   0.69478   0.00000  Uiso   1.00
C520   C     0.09499   0.55369   0.60567   0.00000  Uiso   1.00
C521   C     0.04733   0.50837   0.65054   0.00000  Uiso   1.00
C522   C     0.97467   0.52445   0.68304   0.00000  Uiso   1.00
C523   C     0.94066   0.47612   0.72179   0.00000  Uiso   1.00
C524   C     0.12616   0.51429   0.54608   0.00000  Uiso   1.00
C525   C     0.11978   0.53536   0.49076   0.00000  Uiso   1.00
C526   C     0.15214   0.49203   0.44157   0.00000  Uiso   1.00
C527   C     0.15862   0.56002   0.62794   0.00000  Uiso   1.00
C528   C     0.17955   0.61953   0.64142   0.00000  Uiso   1.00
C529   C     0.23926   0.61470   0.66113   0.00000  Uiso   1.00
H530   H     0.19291   0.39090   0.62135   0.00000  Uiso   1.00
H531   H     0.07975   0.34977   0.69985   0.00000  Uiso   1.00
H532   H     0.22484   0.36069   0.50760   0.00000  Uiso   1.00
H533   H     0.28460   0.44485   0.65824   0.00000  Uiso   1.00
H534   H     0.93780   0.33158   0.78422   0.00000  Uiso   1.00
H535   H     0.24377   0.35460   0.37885   0.00000  Uiso   1.00
H536   H     0.36978   0.53207   0.69650   0.00000  Uiso   1.00
H537   H     0.06589   0.60208   0.60101   0.00000  Uiso   1.00
H538   H     0.94575   0.57254   0.67840   0.00000  Uiso   1.00
H539   H     0.09085   0.58345   0.48614   0.00000  Uiso   1.00
H540   H     0.15061   0.66761   0.63678   0.00000  Uiso   1.00
H541   H     0.82904   0.51238   0.76681   0.00000  Uiso   1.00
H542   H     0.13502   0.53541   0.36143   0.00000  Uiso   1.00
H543   H     0.26103   0.71287   0.67909   0.00000  Uiso   1.00
O544   O     0.80668   0.39873   0.82677   0.00000  Uiso   1.00
O545   O     0.20811   0.42894   0.29494   0.00000  Uiso   1.00
O546   O     0.37344   0.66177   0.71169   0.00000  Uiso   1.00
N547   N     0.92869   0.37819   0.76951   0.00000  Uiso   1.00
N548   N     0.21475   0.39971   0.39051   0.00000  Uiso   1.00
N549   N     0.33257   0.56562   0.68747   0.00000  Uiso   1.00
N550   N     0.87017   0.47548   0.76014   0.00000  Uiso   1.00
N551   N     0.15623   0.49700   0.38114   0.00000  Uiso   1.00
N552   N     0.27405   0.66291   0.67811   0.00000  Uiso   1.00
