data_job_02390
_audit_creation_date              2018-12-19
_audit_creation_method            'Materials Studio'
_symmetry_space_group_name_H-M    'P1'
_symmetry_Int_Tables_number       1
_symmetry_cell_setting            triclinic
loop_
_symmetry_equiv_pos_as_xyz
  x,y,z
_cell_length_a                    12.2360
_cell_length_b                    12.5875
_cell_length_c                    13.4768
_cell_angle_alpha                 107.4269
_cell_angle_beta                  70.5499
_cell_angle_gamma                 107.9960
loop_
_atom_site_label
_atom_site_type_symbol
_atom_site_fract_x
_atom_site_fract_y
_atom_site_fract_z
_atom_site_U_iso_or_equiv
_atom_site_adp_type
_atom_site_occupancy
C1     C     0.18080   0.71471   0.68784   0.00000  Uiso   1.00
C2     C     0.11649   0.58911   0.68270   0.00000  Uiso   1.00
C3     C     0.12897   0.50107   0.59150   0.00000  Uiso   1.00
C4     C     0.06233   0.39204   0.60346   0.00000  Uiso   1.00
C5     C     0.97404   0.20009   0.58031   0.00000  Uiso   1.00
C6     C     0.08357   0.78154   0.73121   0.00000  Uiso   1.00
C7     C     0.06838   0.85529   0.68081   0.00000  Uiso   1.00
C8     C     0.97405   0.90826   0.73361   0.00000  Uiso   1.00
C9     C     0.83470   0.01512   0.78581   0.00000  Uiso   1.00
C10    C     0.24603   0.74810   0.77529   0.00000  Uiso   1.00
C11    C     0.36745   0.79376   0.76196   0.00000  Uiso   1.00
C12    C     0.40989   0.81860   0.85188   0.00000  Uiso   1.00
C13    C     0.52279   0.87353   0.97252   0.00000  Uiso   1.00
C14    C     0.04028   0.67767   0.87124   0.00000  Uiso   1.00
C15    C     0.04016   0.56900   0.78232   0.00000  Uiso   1.00
C16    C     0.97350   0.46008   0.79442   0.00000  Uiso   1.00
C17    C     0.98587   0.37188   0.70325   0.00000  Uiso   1.00
C18    C     0.00725   0.76142   0.83082   0.00000  Uiso   1.00
C19    C     0.91291   0.81430   0.88372   0.00000  Uiso   1.00
C20    C     0.89758   0.88810   0.83341   0.00000  Uiso   1.00
C21    C     0.16971   0.72797   0.87491   0.00000  Uiso   1.00
C22    C     0.21197   0.75276   0.96487   0.00000  Uiso   1.00
C23    C     0.33342   0.79844   0.95168   0.00000  Uiso   1.00
H24    H     0.24022   0.73038   0.61028   0.00000  Uiso   1.00
H25    H     0.18803   0.51667   0.51442   0.00000  Uiso   1.00
H26    H     0.12747   0.87085   0.60372   0.00000  Uiso   1.00
H27    H     0.42648   0.80932   0.68486   0.00000  Uiso   1.00
H28    H     0.09648   0.27087   0.45206   0.00000  Uiso   1.00
H29    H     0.96881   0.01770   0.64037   0.00000  Uiso   1.00
H30    H     0.59933   0.88796   0.81146   0.00000  Uiso   1.00
H31    H     0.98086   0.66200   0.94880   0.00000  Uiso   1.00
H32    H     0.91444   0.44453   0.87152   0.00000  Uiso   1.00
H33    H     0.85387   0.79871   0.96081   0.00000  Uiso   1.00
H34    H     0.15288   0.73718   0.04195   0.00000  Uiso   1.00
H35    H     0.87442   0.21232   0.74189   0.00000  Uiso   1.00
H36    H     0.74674   0.95916   0.93020   0.00000  Uiso   1.00
H37    H     0.37727   0.82940   0.10129   0.00000  Uiso   1.00
O38    O     0.94641   0.09978   0.54002   0.00000  Uiso   1.00
O39    O     0.77892   0.07961   0.78708   0.00000  Uiso   1.00
O40    O     0.60615   0.90937   0.01154   0.00000  Uiso   1.00
N41    N     0.05335   0.28693   0.53089   0.00000  Uiso   1.00
N42    N     0.93397   0.98516   0.70693   0.00000  Uiso   1.00
N43    N     0.52345   0.86389   0.86690   0.00000  Uiso   1.00
N44    N     0.93386   0.25542   0.68684   0.00000  Uiso   1.00
N45    N     0.81448   0.95365   0.86289   0.00000  Uiso   1.00
N46    N     0.40396   0.83238   0.02285   0.00000  Uiso   1.00
C47    C     0.81920   0.28529   0.31216   0.00000  Uiso   1.00
C48    C     0.88351   0.41089   0.31730   0.00000  Uiso   1.00
C49    C     0.87103   0.49893   0.40850   0.00000  Uiso   1.00
C50    C     0.93767   0.60796   0.39654   0.00000  Uiso   1.00
C51    C     0.02596   0.79991   0.41969   0.00000  Uiso   1.00
C52    C     0.91643   0.21846   0.26879   0.00000  Uiso   1.00
C53    C     0.93162   0.14471   0.31919   0.00000  Uiso   1.00
C54    C     0.02595   0.09174   0.26639   0.00000  Uiso   1.00
C55    C     0.16530   0.98488   0.21419   0.00000  Uiso   1.00
C56    C     0.75397   0.25190   0.22471   0.00000  Uiso   1.00
C57    C     0.63255   0.20624   0.23804   0.00000  Uiso   1.00
C58    C     0.59011   0.18140   0.14812   0.00000  Uiso   1.00
C59    C     0.47721   0.12647   0.02748   0.00000  Uiso   1.00
C60    C     0.95972   0.32233   0.12876   0.00000  Uiso   1.00
C61    C     0.95984   0.43100   0.21768   0.00000  Uiso   1.00
C62    C     0.02650   0.53992   0.20558   0.00000  Uiso   1.00
C63    C     0.01413   0.62812   0.29675   0.00000  Uiso   1.00
C64    C     0.99275   0.23858   0.16918   0.00000  Uiso   1.00
C65    C     0.08709   0.18570   0.11628   0.00000  Uiso   1.00
C66    C     0.10242   0.11190   0.16659   0.00000  Uiso   1.00
C67    C     0.83029   0.27203   0.12509   0.00000  Uiso   1.00
C68    C     0.78803   0.24724   0.03513   0.00000  Uiso   1.00
C69    C     0.66658   0.20156   0.04832   0.00000  Uiso   1.00
H70    H     0.75978   0.26962   0.38972   0.00000  Uiso   1.00
H71    H     0.81197   0.48333   0.48558   0.00000  Uiso   1.00
H72    H     0.87253   0.12915   0.39628   0.00000  Uiso   1.00
H73    H     0.57352   0.19068   0.31514   0.00000  Uiso   1.00
H74    H     0.90352   0.72913   0.54794   0.00000  Uiso   1.00
H75    H     0.03119   0.98230   0.35963   0.00000  Uiso   1.00
H76    H     0.40067   0.11204   0.18854   0.00000  Uiso   1.00
H77    H     0.01914   0.33800   0.05120   0.00000  Uiso   1.00
H78    H     0.08556   0.55547   0.12848   0.00000  Uiso   1.00
H79    H     0.14613   0.20129   0.03919   0.00000  Uiso   1.00
H80    H     0.84712   0.26282   0.95805   0.00000  Uiso   1.00
H81    H     0.12558   0.78768   0.25811   0.00000  Uiso   1.00
H82    H     0.25326   0.04084   0.06980   0.00000  Uiso   1.00
H83    H     0.62273   0.17060   0.89871   0.00000  Uiso   1.00
O84    O     0.05359   0.90022   0.45998   0.00000  Uiso   1.00
O85    O     0.22108   0.92039   0.21292   0.00000  Uiso   1.00
O86    O     0.39385   0.09063   0.98846   0.00000  Uiso   1.00
N87    N     0.94665   0.71307   0.46911   0.00000  Uiso   1.00
N88    N     0.06603   0.01484   0.29307   0.00000  Uiso   1.00
N89    N     0.47655   0.13611   0.13310   0.00000  Uiso   1.00
N90    N     0.06614   0.74458   0.31316   0.00000  Uiso   1.00
N91    N     0.18552   0.04635   0.13711   0.00000  Uiso   1.00
N92    N     0.59604   0.16762   0.97715   0.00000  Uiso   1.00
