data_job_04888
_audit_creation_date              2018-12-19
_audit_creation_method            'Materials Studio'
_symmetry_space_group_name_H-M    'P1'
_symmetry_Int_Tables_number       1
_symmetry_cell_setting            triclinic
loop_
_symmetry_equiv_pos_as_xyz
  x,y,z
_cell_length_a                    33.7873
_cell_length_b                    12.4326
_cell_length_c                    12.4885
_cell_angle_alpha                 90.0000
_cell_angle_beta                  86.9346
_cell_angle_gamma                 90.0000
loop_
_atom_site_label
_atom_site_type_symbol
_atom_site_fract_x
_atom_site_fract_y
_atom_site_fract_z
_atom_site_U_iso_or_equiv
_atom_site_adp_type
_atom_site_occupancy
C1     C     0.88575   0.05486   0.99794   0.00000  Uiso   1.00
C2     C     0.90918   0.04510   0.09853   0.00000  Uiso   1.00
C3     C     0.94953   0.06333   0.10425   0.00000  Uiso   1.00
C4     C     0.96538   0.05013   0.20371   0.00000  Uiso   1.00
C5     C     0.00536   0.03953   0.34613   0.00000  Uiso   1.00
C6     C     0.86566   0.94628   0.98418   0.00000  Uiso   1.00
C7     C     0.86942   0.88144   0.89375   0.00000  Uiso   1.00
C8     C     0.84863   0.78506   0.89695   0.00000  Uiso   1.00
C9     C     0.82101   0.62109   0.86181   0.00000  Uiso   1.00
C10    C     0.85254   0.13493   0.02518   0.00000  Uiso   1.00
C11    C     0.84526   0.22868   0.96921   0.00000  Uiso   1.00
C12    C     0.81342   0.29113   0.00692   0.00000  Uiso   1.00
C13    C     0.76544   0.42005   0.03545   0.00000  Uiso   1.00
C14    C     0.84214   0.99902   0.16440   0.00000  Uiso   1.00
C15    C     0.88549   0.01477   0.18894   0.00000  Uiso   1.00
C16    C     0.90128   0.00155   0.28842   0.00000  Uiso   1.00
C17    C     0.94165   0.01975   0.29429   0.00000  Uiso   1.00
C18    C     0.84197   0.91595   0.07459   0.00000  Uiso   1.00
C19    C     0.82116   0.81965   0.07792   0.00000  Uiso   1.00
C20    C     0.82489   0.75467   0.98752   0.00000  Uiso   1.00
C21    C     0.82885   0.10460   0.11560   0.00000  Uiso   1.00
C22    C     0.79701   0.16690   0.15339   0.00000  Uiso   1.00
C23    C     0.78968   0.26074   0.09750   0.00000  Uiso   1.00
H24    H     0.90420   0.07847   0.92754   0.00000  Uiso   1.00
H25    H     0.96786   0.08679   0.03426   0.00000  Uiso   1.00
H26    H     0.88775   0.90493   0.82379   0.00000  Uiso   1.00
H27    H     0.86360   0.25213   0.89925   0.00000  Uiso   1.00
H28    H     0.02799   0.08260   0.19244   0.00000  Uiso   1.00
H29    H     0.85907   0.69916   0.74863   0.00000  Uiso   1.00
H30    H     0.80814   0.43129   0.90776   0.00000  Uiso   1.00
H31    H     0.82369   0.97541   0.23479   0.00000  Uiso   1.00
H32    H     0.88294   0.97807   0.35837   0.00000  Uiso   1.00
H33    H     0.80283   0.79621   0.14790   0.00000  Uiso   1.00
H34    H     0.77868   0.14341   0.22336   0.00000  Uiso   1.00
H35    H     0.95907   0.99435   0.45550   0.00000  Uiso   1.00
H36    H     0.79015   0.61092   0.01169   0.00000  Uiso   1.00
H37    H     0.73922   0.34305   0.17082   0.00000  Uiso   1.00
O38    O     0.03395   0.04205   0.39971   0.00000  Uiso   1.00
O39    O     0.81233   0.53901   0.81745   0.00000  Uiso   1.00
O40    O     0.74552   0.49955   0.02622   0.00000  Uiso   1.00
N41    N     0.00364   0.06148   0.23739   0.00000  Uiso   1.00
N42    N     0.84571   0.70299   0.82247   0.00000  Uiso   1.00
N43    N     0.79809   0.38745   0.97122   0.00000  Uiso   1.00
N44    N     0.96655   0.01400   0.37895   0.00000  Uiso   1.00
N45    N     0.80863   0.65550   0.96402   0.00000  Uiso   1.00
N46    N     0.76101   0.33997   0.11277   0.00000  Uiso   1.00
C47    C     0.38526   0.88886   0.51049   0.00000  Uiso   1.00
C48    C     0.41076   0.86923   0.40789   0.00000  Uiso   1.00
C49    C     0.45168   0.87926   0.39687   0.00000  Uiso   1.00
C50    C     0.46949   0.85774   0.29640   0.00000  Uiso   1.00
C51    C     0.51248   0.83184   0.15023   0.00000  Uiso   1.00
C52    C     0.36198   0.78532   0.53206   0.00000  Uiso   1.00
C53    C     0.36190   0.72480   0.62546   0.00000  Uiso   1.00
C54    C     0.33865   0.63266   0.62952   0.00000  Uiso   1.00
C55    C     0.30590   0.47653   0.67616   0.00000  Uiso   1.00
C56    C     0.35485   0.97361   0.48265   0.00000  Uiso   1.00
C57    C     0.34875   0.07141   0.53452   0.00000  Uiso   1.00
C58    C     0.31948   0.13778   0.49699   0.00000  Uiso   1.00
C59    C     0.27565   0.27401   0.46692   0.00000  Uiso   1.00
C60    C     0.34412   0.83282   0.35163   0.00000  Uiso   1.00
C61    C     0.38841   0.83879   0.32161   0.00000  Uiso   1.00
C62    C     0.40617   0.81726   0.22112   0.00000  Uiso   1.00
C63    C     0.44711   0.82725   0.20996   0.00000  Uiso   1.00
C64    C     0.33964   0.75488   0.44579   0.00000  Uiso   1.00
C65    C     0.31638   0.66281   0.44971   0.00000  Uiso   1.00
C66    C     0.31626   0.60216   0.54308   0.00000  Uiso   1.00
C67    C     0.33250   0.94318   0.39637   0.00000  Uiso   1.00
C68    C     0.30324   0.00941   0.35876   0.00000  Uiso   1.00
C69    C     0.29710   0.10729   0.41055   0.00000  Uiso   1.00
H70    H     0.40265   0.91255   0.57767   0.00000  Uiso   1.00
H71    H     0.46896   0.90280   0.46367   0.00000  Uiso   1.00
H72    H     0.37919   0.74838   0.69222   0.00000  Uiso   1.00
H73    H     0.36604   0.09494   0.60129   0.00000  Uiso   1.00
H74    H     0.53262   0.87853   0.29924   0.00000  Uiso   1.00
H75    H     0.34332   0.55295   0.78117   0.00000  Uiso   1.00
H76    H     0.31560   0.28373   0.58943   0.00000  Uiso   1.00
H77    H     0.32673   0.80912   0.28446   0.00000  Uiso   1.00
H78    H     0.38887   0.79370   0.15436   0.00000  Uiso   1.00
H79    H     0.29910   0.63928   0.38292   0.00000  Uiso   1.00
H80    H     0.28595   0.98583   0.29199   0.00000  Uiso   1.00
H81    H     0.46762   0.78998   0.04820   0.00000  Uiso   1.00
H82    H     0.27832   0.46440   0.53013   0.00000  Uiso   1.00
H83    H     0.25060   0.19517   0.33838   0.00000  Uiso   1.00
O84    O     0.54237   0.82594   0.09344   0.00000  Uiso   1.00
O85    O     0.29401   0.39881   0.72572   0.00000  Uiso   1.00
O86    O     0.25765   0.35756   0.47415   0.00000  Uiso   1.00
N87    N     0.50879   0.85983   0.25801   0.00000  Uiso   1.00
N88    N     0.33181   0.55542   0.70858   0.00000  Uiso   1.00
N89    N     0.30589   0.23862   0.52933   0.00000  Uiso   1.00
N90    N     0.47382   0.81218   0.12292   0.00000  Uiso   1.00
N91    N     0.29684   0.50777   0.57349   0.00000  Uiso   1.00
N92    N     0.27092   0.19097   0.39424   0.00000  Uiso   1.00
C93    C     0.38575   0.55486   0.99794   0.00000  Uiso   1.00
C94    C     0.40918   0.54510   0.09853   0.00000  Uiso   1.00
C95    C     0.44953   0.56333   0.10425   0.00000  Uiso   1.00
C96    C     0.46538   0.55013   0.20371   0.00000  Uiso   1.00
C97    C     0.50536   0.53953   0.34613   0.00000  Uiso   1.00
C98    C     0.36566   0.44628   0.98418   0.00000  Uiso   1.00
C99    C     0.36942   0.38144   0.89375   0.00000  Uiso   1.00
C100   C     0.34863   0.28506   0.89695   0.00000  Uiso   1.00
C101   C     0.32101   0.12109   0.86181   0.00000  Uiso   1.00
C102   C     0.35254   0.63493   0.02518   0.00000  Uiso   1.00
C103   C     0.34526   0.72868   0.96921   0.00000  Uiso   1.00
C104   C     0.31342   0.79113   0.00692   0.00000  Uiso   1.00
C105   C     0.26544   0.92005   0.03545   0.00000  Uiso   1.00
C106   C     0.34214   0.49902   0.16440   0.00000  Uiso   1.00
C107   C     0.38549   0.51477   0.18894   0.00000  Uiso   1.00
C108   C     0.40128   0.50155   0.28842   0.00000  Uiso   1.00
C109   C     0.44165   0.51975   0.29429   0.00000  Uiso   1.00
C110   C     0.34197   0.41595   0.07459   0.00000  Uiso   1.00
C111   C     0.32116   0.31965   0.07792   0.00000  Uiso   1.00
C112   C     0.32489   0.25467   0.98752   0.00000  Uiso   1.00
C113   C     0.32885   0.60460   0.11560   0.00000  Uiso   1.00
C114   C     0.29701   0.66690   0.15339   0.00000  Uiso   1.00
C115   C     0.28968   0.76074   0.09750   0.00000  Uiso   1.00
H116   H     0.40420   0.57847   0.92754   0.00000  Uiso   1.00
H117   H     0.46786   0.58679   0.03426   0.00000  Uiso   1.00
H118   H     0.38775   0.40493   0.82379   0.00000  Uiso   1.00
H119   H     0.36360   0.75213   0.89925   0.00000  Uiso   1.00
H120   H     0.52799   0.58260   0.19244   0.00000  Uiso   1.00
H121   H     0.35907   0.19916   0.74863   0.00000  Uiso   1.00
H122   H     0.30814   0.93129   0.90776   0.00000  Uiso   1.00
H123   H     0.32369   0.47541   0.23479   0.00000  Uiso   1.00
H124   H     0.38294   0.47807   0.35837   0.00000  Uiso   1.00
H125   H     0.30283   0.29621   0.14790   0.00000  Uiso   1.00
H126   H     0.27868   0.64341   0.22336   0.00000  Uiso   1.00
H127   H     0.45907   0.49435   0.45550   0.00000  Uiso   1.00
H128   H     0.29015   0.11092   0.01169   0.00000  Uiso   1.00
H129   H     0.23922   0.84305   0.17082   0.00000  Uiso   1.00
O130   O     0.53395   0.54205   0.39971   0.00000  Uiso   1.00
O131   O     0.31233   0.03901   0.81745   0.00000  Uiso   1.00
O132   O     0.24552   0.99955   0.02622   0.00000  Uiso   1.00
N133   N     0.50364   0.56148   0.23739   0.00000  Uiso   1.00
N134   N     0.34571   0.20299   0.82247   0.00000  Uiso   1.00
N135   N     0.29809   0.88745   0.97122   0.00000  Uiso   1.00
N136   N     0.46655   0.51400   0.37895   0.00000  Uiso   1.00
N137   N     0.30863   0.15550   0.96402   0.00000  Uiso   1.00
N138   N     0.26101   0.83997   0.11277   0.00000  Uiso   1.00
C139   C     0.88526   0.38886   0.51049   0.00000  Uiso   1.00
C140   C     0.91076   0.36923   0.40789   0.00000  Uiso   1.00
C141   C     0.95168   0.37926   0.39687   0.00000  Uiso   1.00
C142   C     0.96949   0.35774   0.29640   0.00000  Uiso   1.00
C143   C     0.01248   0.33184   0.15023   0.00000  Uiso   1.00
C144   C     0.86198   0.28532   0.53206   0.00000  Uiso   1.00
C145   C     0.86190   0.22480   0.62546   0.00000  Uiso   1.00
C146   C     0.83865   0.13266   0.62952   0.00000  Uiso   1.00
C147   C     0.80590   0.97653   0.67616   0.00000  Uiso   1.00
C148   C     0.85485   0.47361   0.48265   0.00000  Uiso   1.00
C149   C     0.84875   0.57141   0.53452   0.00000  Uiso   1.00
C150   C     0.81948   0.63778   0.49699   0.00000  Uiso   1.00
C151   C     0.77565   0.77401   0.46692   0.00000  Uiso   1.00
C152   C     0.84412   0.33282   0.35163   0.00000  Uiso   1.00
C153   C     0.88841   0.33879   0.32161   0.00000  Uiso   1.00
C154   C     0.90617   0.31726   0.22112   0.00000  Uiso   1.00
C155   C     0.94711   0.32725   0.20996   0.00000  Uiso   1.00
C156   C     0.83964   0.25488   0.44579   0.00000  Uiso   1.00
C157   C     0.81638   0.16281   0.44971   0.00000  Uiso   1.00
C158   C     0.81626   0.10216   0.54308   0.00000  Uiso   1.00
C159   C     0.83250   0.44318   0.39637   0.00000  Uiso   1.00
C160   C     0.80324   0.50941   0.35876   0.00000  Uiso   1.00
C161   C     0.79710   0.60729   0.41055   0.00000  Uiso   1.00
H162   H     0.90265   0.41255   0.57767   0.00000  Uiso   1.00
H163   H     0.96896   0.40280   0.46367   0.00000  Uiso   1.00
H164   H     0.87919   0.24838   0.69222   0.00000  Uiso   1.00
H165   H     0.86604   0.59494   0.60129   0.00000  Uiso   1.00
H166   H     0.03262   0.37853   0.29924   0.00000  Uiso   1.00
H167   H     0.84332   0.05295   0.78117   0.00000  Uiso   1.00
H168   H     0.81560   0.78373   0.58943   0.00000  Uiso   1.00
H169   H     0.82673   0.30912   0.28446   0.00000  Uiso   1.00
H170   H     0.88887   0.29370   0.15436   0.00000  Uiso   1.00
H171   H     0.79910   0.13928   0.38292   0.00000  Uiso   1.00
H172   H     0.78595   0.48583   0.29199   0.00000  Uiso   1.00
H173   H     0.96762   0.28998   0.04820   0.00000  Uiso   1.00
H174   H     0.77832   0.96440   0.53013   0.00000  Uiso   1.00
H175   H     0.75060   0.69517   0.33838   0.00000  Uiso   1.00
O176   O     0.04237   0.32594   0.09344   0.00000  Uiso   1.00
O177   O     0.79401   0.89881   0.72572   0.00000  Uiso   1.00
O178   O     0.75765   0.85756   0.47415   0.00000  Uiso   1.00
N179   N     0.00879   0.35983   0.25801   0.00000  Uiso   1.00
N180   N     0.83181   0.05542   0.70858   0.00000  Uiso   1.00
N181   N     0.80589   0.73862   0.52933   0.00000  Uiso   1.00
N182   N     0.97382   0.31218   0.12292   0.00000  Uiso   1.00
N183   N     0.79684   0.00777   0.57349   0.00000  Uiso   1.00
N184   N     0.77092   0.69097   0.39424   0.00000  Uiso   1.00
C185   C     0.11425   0.05486   0.00206   0.00000  Uiso   1.00
C186   C     0.09082   0.04510   0.90147   0.00000  Uiso   1.00
C187   C     0.05047   0.06333   0.89575   0.00000  Uiso   1.00
C188   C     0.03462   0.05013   0.79629   0.00000  Uiso   1.00
C189   C     0.99464   0.03953   0.65387   0.00000  Uiso   1.00
C190   C     0.13434   0.94628   0.01582   0.00000  Uiso   1.00
C191   C     0.13058   0.88144   0.10625   0.00000  Uiso   1.00
C192   C     0.15137   0.78506   0.10305   0.00000  Uiso   1.00
C193   C     0.17899   0.62109   0.13819   0.00000  Uiso   1.00
C194   C     0.14746   0.13493   0.97482   0.00000  Uiso   1.00
C195   C     0.15474   0.22868   0.03079   0.00000  Uiso   1.00
C196   C     0.18658   0.29113   0.99308   0.00000  Uiso   1.00
C197   C     0.23456   0.42005   0.96455   0.00000  Uiso   1.00
C198   C     0.15786   0.99902   0.83560   0.00000  Uiso   1.00
C199   C     0.11451   0.01477   0.81106   0.00000  Uiso   1.00
C200   C     0.09872   0.00155   0.71158   0.00000  Uiso   1.00
C201   C     0.05835   0.01975   0.70571   0.00000  Uiso   1.00
C202   C     0.15803   0.91595   0.92541   0.00000  Uiso   1.00
C203   C     0.17884   0.81965   0.92208   0.00000  Uiso   1.00
C204   C     0.17511   0.75467   0.01248   0.00000  Uiso   1.00
C205   C     0.17115   0.10460   0.88440   0.00000  Uiso   1.00
C206   C     0.20299   0.16690   0.84661   0.00000  Uiso   1.00
C207   C     0.21032   0.26074   0.90250   0.00000  Uiso   1.00
H208   H     0.09580   0.07847   0.07246   0.00000  Uiso   1.00
H209   H     0.03214   0.08679   0.96574   0.00000  Uiso   1.00
H210   H     0.11225   0.90493   0.17621   0.00000  Uiso   1.00
H211   H     0.13640   0.25213   0.10075   0.00000  Uiso   1.00
H212   H     0.97201   0.08260   0.80756   0.00000  Uiso   1.00
H213   H     0.14093   0.69916   0.25137   0.00000  Uiso   1.00
H214   H     0.19186   0.43129   0.09224   0.00000  Uiso   1.00
H215   H     0.17631   0.97541   0.76521   0.00000  Uiso   1.00
H216   H     0.11706   0.97807   0.64163   0.00000  Uiso   1.00
H217   H     0.19717   0.79621   0.85210   0.00000  Uiso   1.00
H218   H     0.22132   0.14341   0.77664   0.00000  Uiso   1.00
H219   H     0.04093   0.99435   0.54450   0.00000  Uiso   1.00
H220   H     0.20985   0.61092   0.98831   0.00000  Uiso   1.00
H221   H     0.26078   0.34305   0.82918   0.00000  Uiso   1.00
O222   O     0.96605   0.04205   0.60029   0.00000  Uiso   1.00
O223   O     0.18767   0.53901   0.18255   0.00000  Uiso   1.00
O224   O     0.25448   0.49955   0.97378   0.00000  Uiso   1.00
N225   N     0.99636   0.06148   0.76261   0.00000  Uiso   1.00
N226   N     0.15429   0.70299   0.17753   0.00000  Uiso   1.00
N227   N     0.20191   0.38745   0.02878   0.00000  Uiso   1.00
N228   N     0.03345   0.01400   0.62105   0.00000  Uiso   1.00
N229   N     0.19137   0.65550   0.03598   0.00000  Uiso   1.00
N230   N     0.23899   0.33997   0.88723   0.00000  Uiso   1.00
C231   C     0.61474   0.88886   0.48951   0.00000  Uiso   1.00
C232   C     0.58924   0.86923   0.59211   0.00000  Uiso   1.00
C233   C     0.54832   0.87926   0.60313   0.00000  Uiso   1.00
C234   C     0.53051   0.85774   0.70360   0.00000  Uiso   1.00
C235   C     0.48752   0.83184   0.84977   0.00000  Uiso   1.00
C236   C     0.63802   0.78532   0.46794   0.00000  Uiso   1.00
C237   C     0.63810   0.72480   0.37454   0.00000  Uiso   1.00
C238   C     0.66135   0.63266   0.37048   0.00000  Uiso   1.00
C239   C     0.69410   0.47653   0.32384   0.00000  Uiso   1.00
C240   C     0.64515   0.97361   0.51735   0.00000  Uiso   1.00
C241   C     0.65125   0.07141   0.46548   0.00000  Uiso   1.00
C242   C     0.68052   0.13778   0.50301   0.00000  Uiso   1.00
C243   C     0.72435   0.27401   0.53308   0.00000  Uiso   1.00
C244   C     0.65588   0.83282   0.64837   0.00000  Uiso   1.00
C245   C     0.61159   0.83879   0.67839   0.00000  Uiso   1.00
C246   C     0.59383   0.81726   0.77888   0.00000  Uiso   1.00
C247   C     0.55289   0.82725   0.79004   0.00000  Uiso   1.00
C248   C     0.66036   0.75488   0.55421   0.00000  Uiso   1.00
C249   C     0.68362   0.66281   0.55029   0.00000  Uiso   1.00
C250   C     0.68374   0.60216   0.45692   0.00000  Uiso   1.00
C251   C     0.66750   0.94318   0.60363   0.00000  Uiso   1.00
C252   C     0.69676   0.00941   0.64124   0.00000  Uiso   1.00
C253   C     0.70290   0.10729   0.58945   0.00000  Uiso   1.00
H254   H     0.59735   0.91255   0.42233   0.00000  Uiso   1.00
H255   H     0.53104   0.90280   0.53633   0.00000  Uiso   1.00
H256   H     0.62081   0.74838   0.30778   0.00000  Uiso   1.00
H257   H     0.63396   0.09494   0.39871   0.00000  Uiso   1.00
H258   H     0.46738   0.87853   0.70076   0.00000  Uiso   1.00
H259   H     0.65668   0.55295   0.21883   0.00000  Uiso   1.00
H260   H     0.68440   0.28373   0.41057   0.00000  Uiso   1.00
H261   H     0.67327   0.80912   0.71554   0.00000  Uiso   1.00
H262   H     0.61113   0.79370   0.84564   0.00000  Uiso   1.00
H263   H     0.70090   0.63928   0.61708   0.00000  Uiso   1.00
H264   H     0.71405   0.98583   0.70801   0.00000  Uiso   1.00
H265   H     0.53238   0.78998   0.95180   0.00000  Uiso   1.00
H266   H     0.72168   0.46440   0.46987   0.00000  Uiso   1.00
H267   H     0.74940   0.19517   0.66162   0.00000  Uiso   1.00
O268   O     0.45763   0.82594   0.90656   0.00000  Uiso   1.00
O269   O     0.70599   0.39881   0.27428   0.00000  Uiso   1.00
O270   O     0.74235   0.35756   0.52585   0.00000  Uiso   1.00
N271   N     0.49121   0.85983   0.74199   0.00000  Uiso   1.00
N272   N     0.66819   0.55542   0.29142   0.00000  Uiso   1.00
N273   N     0.69411   0.23862   0.47067   0.00000  Uiso   1.00
N274   N     0.52618   0.81218   0.87708   0.00000  Uiso   1.00
N275   N     0.70316   0.50777   0.42651   0.00000  Uiso   1.00
N276   N     0.72908   0.19097   0.60576   0.00000  Uiso   1.00
C277   C     0.61425   0.55486   0.00206   0.00000  Uiso   1.00
C278   C     0.59082   0.54510   0.90147   0.00000  Uiso   1.00
C279   C     0.55047   0.56333   0.89575   0.00000  Uiso   1.00
C280   C     0.53462   0.55013   0.79629   0.00000  Uiso   1.00
C281   C     0.49464   0.53953   0.65387   0.00000  Uiso   1.00
C282   C     0.63434   0.44628   0.01582   0.00000  Uiso   1.00
C283   C     0.63058   0.38144   0.10625   0.00000  Uiso   1.00
C284   C     0.65137   0.28506   0.10305   0.00000  Uiso   1.00
C285   C     0.67899   0.12109   0.13819   0.00000  Uiso   1.00
C286   C     0.64746   0.63493   0.97482   0.00000  Uiso   1.00
C287   C     0.65474   0.72868   0.03079   0.00000  Uiso   1.00
C288   C     0.68658   0.79113   0.99308   0.00000  Uiso   1.00
C289   C     0.73456   0.92005   0.96455   0.00000  Uiso   1.00
C290   C     0.65786   0.49902   0.83560   0.00000  Uiso   1.00
C291   C     0.61451   0.51477   0.81106   0.00000  Uiso   1.00
C292   C     0.59872   0.50155   0.71158   0.00000  Uiso   1.00
C293   C     0.55835   0.51975   0.70571   0.00000  Uiso   1.00
C294   C     0.65803   0.41595   0.92541   0.00000  Uiso   1.00
C295   C     0.67884   0.31965   0.92208   0.00000  Uiso   1.00
C296   C     0.67511   0.25467   0.01248   0.00000  Uiso   1.00
C297   C     0.67115   0.60460   0.88440   0.00000  Uiso   1.00
C298   C     0.70299   0.66690   0.84661   0.00000  Uiso   1.00
C299   C     0.71032   0.76074   0.90250   0.00000  Uiso   1.00
H300   H     0.59580   0.57847   0.07246   0.00000  Uiso   1.00
H301   H     0.53214   0.58679   0.96574   0.00000  Uiso   1.00
H302   H     0.61225   0.40493   0.17621   0.00000  Uiso   1.00
H303   H     0.63640   0.75213   0.10075   0.00000  Uiso   1.00
H304   H     0.47201   0.58260   0.80756   0.00000  Uiso   1.00
H305   H     0.64093   0.19916   0.25137   0.00000  Uiso   1.00
H306   H     0.69186   0.93129   0.09224   0.00000  Uiso   1.00
H307   H     0.67631   0.47541   0.76521   0.00000  Uiso   1.00
H308   H     0.61706   0.47807   0.64163   0.00000  Uiso   1.00
H309   H     0.69717   0.29621   0.85210   0.00000  Uiso   1.00
H310   H     0.72132   0.64341   0.77664   0.00000  Uiso   1.00
H311   H     0.54093   0.49435   0.54450   0.00000  Uiso   1.00
H312   H     0.70985   0.11092   0.98831   0.00000  Uiso   1.00
H313   H     0.76078   0.84305   0.82918   0.00000  Uiso   1.00
O314   O     0.46605   0.54205   0.60029   0.00000  Uiso   1.00
O315   O     0.68767   0.03901   0.18255   0.00000  Uiso   1.00
O316   O     0.75448   0.99955   0.97378   0.00000  Uiso   1.00
N317   N     0.49636   0.56148   0.76261   0.00000  Uiso   1.00
N318   N     0.65429   0.20299   0.17753   0.00000  Uiso   1.00
N319   N     0.70191   0.88745   0.02878   0.00000  Uiso   1.00
N320   N     0.53345   0.51400   0.62105   0.00000  Uiso   1.00
N321   N     0.69137   0.15550   0.03598   0.00000  Uiso   1.00
N322   N     0.73899   0.83997   0.88723   0.00000  Uiso   1.00
C323   C     0.11474   0.38886   0.48951   0.00000  Uiso   1.00
C324   C     0.08924   0.36923   0.59211   0.00000  Uiso   1.00
C325   C     0.04832   0.37926   0.60313   0.00000  Uiso   1.00
C326   C     0.03051   0.35774   0.70360   0.00000  Uiso   1.00
C327   C     0.98752   0.33184   0.84977   0.00000  Uiso   1.00
C328   C     0.13802   0.28532   0.46794   0.00000  Uiso   1.00
C329   C     0.13810   0.22480   0.37454   0.00000  Uiso   1.00
C330   C     0.16135   0.13266   0.37048   0.00000  Uiso   1.00
C331   C     0.19410   0.97653   0.32384   0.00000  Uiso   1.00
C332   C     0.14515   0.47361   0.51735   0.00000  Uiso   1.00
C333   C     0.15125   0.57141   0.46548   0.00000  Uiso   1.00
C334   C     0.18052   0.63778   0.50301   0.00000  Uiso   1.00
C335   C     0.22435   0.77401   0.53308   0.00000  Uiso   1.00
C336   C     0.15588   0.33282   0.64837   0.00000  Uiso   1.00
C337   C     0.11159   0.33879   0.67839   0.00000  Uiso   1.00
C338   C     0.09383   0.31726   0.77888   0.00000  Uiso   1.00
C339   C     0.05289   0.32725   0.79004   0.00000  Uiso   1.00
C340   C     0.16036   0.25488   0.55421   0.00000  Uiso   1.00
C341   C     0.18362   0.16281   0.55029   0.00000  Uiso   1.00
C342   C     0.18374   0.10216   0.45692   0.00000  Uiso   1.00
C343   C     0.16750   0.44318   0.60363   0.00000  Uiso   1.00
C344   C     0.19676   0.50941   0.64124   0.00000  Uiso   1.00
C345   C     0.20290   0.60729   0.58945   0.00000  Uiso   1.00
H346   H     0.09735   0.41255   0.42233   0.00000  Uiso   1.00
H347   H     0.03104   0.40280   0.53633   0.00000  Uiso   1.00
H348   H     0.12081   0.24838   0.30778   0.00000  Uiso   1.00
H349   H     0.13396   0.59494   0.39871   0.00000  Uiso   1.00
H350   H     0.96738   0.37853   0.70076   0.00000  Uiso   1.00
H351   H     0.15668   0.05295   0.21883   0.00000  Uiso   1.00
H352   H     0.18440   0.78373   0.41057   0.00000  Uiso   1.00
H353   H     0.17327   0.30912   0.71554   0.00000  Uiso   1.00
H354   H     0.11113   0.29370   0.84564   0.00000  Uiso   1.00
H355   H     0.20090   0.13928   0.61708   0.00000  Uiso   1.00
H356   H     0.21405   0.48583   0.70801   0.00000  Uiso   1.00
H357   H     0.03238   0.28998   0.95180   0.00000  Uiso   1.00
H358   H     0.22168   0.96440   0.46987   0.00000  Uiso   1.00
H359   H     0.24940   0.69517   0.66162   0.00000  Uiso   1.00
O360   O     0.95763   0.32594   0.90656   0.00000  Uiso   1.00
O361   O     0.20599   0.89881   0.27428   0.00000  Uiso   1.00
O362   O     0.24235   0.85756   0.52585   0.00000  Uiso   1.00
N363   N     0.99121   0.35983   0.74199   0.00000  Uiso   1.00
N364   N     0.16819   0.05542   0.29142   0.00000  Uiso   1.00
N365   N     0.19411   0.73862   0.47067   0.00000  Uiso   1.00
N366   N     0.02618   0.31218   0.87708   0.00000  Uiso   1.00
N367   N     0.20316   0.00777   0.42651   0.00000  Uiso   1.00
N368   N     0.22908   0.69097   0.60576   0.00000  Uiso   1.00
