data_job_04781
_audit_creation_date              2018-12-19
_audit_creation_method            'Materials Studio'
_symmetry_space_group_name_H-M    'P1'
_symmetry_Int_Tables_number       1
_symmetry_cell_setting            triclinic
loop_
_symmetry_equiv_pos_as_xyz
  x,y,z
_cell_length_a                    24.1428
_cell_length_b                    12.6084
_cell_length_c                    20.7866
_cell_angle_alpha                 90.0000
_cell_angle_beta                  158.7401
_cell_angle_gamma                 90.0000
loop_
_atom_site_label
_atom_site_type_symbol
_atom_site_fract_x
_atom_site_fract_y
_atom_site_fract_z
_atom_site_U_iso_or_equiv
_atom_site_adp_type
_atom_site_occupancy
C1     C     0.39642   0.76006   0.56893   0.00000  Uiso   1.00
C2     C     0.34629   0.84214   0.46510   0.00000  Uiso   1.00
C3     C     0.42013   0.93712   0.53194   0.00000  Uiso   1.00
C4     C     0.35618   0.00136   0.41563   0.00000  Uiso   1.00
C5     C     0.29854   0.13337   0.28128   0.00000  Uiso   1.00
C6     C     0.26042   0.74443   0.46658   0.00000  Uiso   1.00
C7     C     0.26207   0.75724   0.53468   0.00000  Uiso   1.00
C8     C     0.12583   0.73921   0.41960   0.00000  Uiso   1.00
C9     C     0.93490   0.71944   0.28758   0.00000  Uiso   1.00
C10    C     0.41470   0.65605   0.55209   0.00000  Uiso   1.00
C11    C     0.54607   0.59454   0.69208   0.00000  Uiso   1.00
C12    C     0.53971   0.50209   0.64900   0.00000  Uiso   1.00
C13    C     0.58833   0.34511   0.64974   0.00000  Uiso   1.00
C14    C     0.15153   0.70525   0.24350   0.00000  Uiso   1.00
C15    C     0.21328   0.81237   0.28834   0.00000  Uiso   1.00
C16    C     0.14920   0.87648   0.17189   0.00000  Uiso   1.00
C17    C     0.22293   0.97154   0.23855   0.00000  Uiso   1.00
C18    C     0.12741   0.71466   0.28982   0.00000  Uiso   1.00
C19    C     0.99114   0.69660   0.17463   0.00000  Uiso   1.00
C20    C     0.99258   0.70939   0.24252   0.00000  Uiso   1.00
C21    C     0.28169   0.62628   0.37533   0.00000  Uiso   1.00
C22    C     0.27513   0.53391   0.33202   0.00000  Uiso   1.00
C23    C     0.40645   0.47227   0.47192   0.00000  Uiso   1.00
H24    H     0.49997   0.78323   0.70654   0.00000  Uiso   1.00
H25    H     0.52306   0.96013   0.66874   0.00000  Uiso   1.00
H26    H     0.36503   0.78027   0.67147   0.00000  Uiso   1.00
H27    H     0.64897   0.61760   0.82884   0.00000  Uiso   1.00
H28    H     0.48998   0.14315   0.54887   0.00000  Uiso   1.00
H29    H     0.15677   0.76386   0.55464   0.00000  Uiso   1.00
H30    H     0.75553   0.42084   0.88650   0.00000  Uiso   1.00
H31    H     0.04797   0.68207   0.10588   0.00000  Uiso   1.00
H32    H     0.04626   0.85342   0.03511   0.00000  Uiso   1.00
H33    H     0.88823   0.67356   0.03785   0.00000  Uiso   1.00
H34    H     0.17218   0.51089   0.19522   0.00000  Uiso   1.00
H35    H     0.10299   0.05654   0.03459   0.00000  Uiso   1.00
H36    H     0.76978   0.67725   0.04037   0.00000  Uiso   1.00
H37    H     0.36854   0.33423   0.37222   0.00000  Uiso   1.00
O38    O     0.30349   0.21441   0.25600   0.00000  Uiso   1.00
O39    O     0.86634   0.71678   0.26359   0.00000  Uiso   1.00
O40    O     0.65190   0.26675   0.69898   0.00000  Uiso   1.00
N41    N     0.39915   0.09924   0.43755   0.00000  Uiso   1.00
N42    N     0.08761   0.74465   0.44294   0.00000  Uiso   1.00
N43    N     0.64739   0.42393   0.75320   0.00000  Uiso   1.00
N44    N     0.19091   0.05264   0.16082   0.00000  Uiso   1.00
N45    N     0.87938   0.69804   0.16622   0.00000  Uiso   1.00
N46    N     0.43916   0.37733   0.47647   0.00000  Uiso   1.00
C47    C     0.60358   0.26006   0.93107   0.00000  Uiso   1.00
C48    C     0.65371   0.34214   0.03490   0.00000  Uiso   1.00
C49    C     0.57987   0.43712   0.96806   0.00000  Uiso   1.00
C50    C     0.64382   0.50136   0.08437   0.00000  Uiso   1.00
C51    C     0.70146   0.63337   0.21872   0.00000  Uiso   1.00
C52    C     0.73958   0.24443   0.03342   0.00000  Uiso   1.00
C53    C     0.73793   0.25724   0.96532   0.00000  Uiso   1.00
C54    C     0.87417   0.23921   0.08040   0.00000  Uiso   1.00
C55    C     0.06510   0.21944   0.21242   0.00000  Uiso   1.00
C56    C     0.58530   0.15605   0.94791   0.00000  Uiso   1.00
C57    C     0.45393   0.09454   0.80792   0.00000  Uiso   1.00
C58    C     0.46029   0.00209   0.85100   0.00000  Uiso   1.00
C59    C     0.41167   0.84511   0.85026   0.00000  Uiso   1.00
C60    C     0.84847   0.20525   0.25650   0.00000  Uiso   1.00
C61    C     0.78672   0.31237   0.21166   0.00000  Uiso   1.00
C62    C     0.85080   0.37648   0.32811   0.00000  Uiso   1.00
C63    C     0.77707   0.47154   0.26145   0.00000  Uiso   1.00
C64    C     0.87259   0.21466   0.21018   0.00000  Uiso   1.00
C65    C     0.00886   0.19660   0.32537   0.00000  Uiso   1.00
C66    C     0.00742   0.20939   0.25748   0.00000  Uiso   1.00
C67    C     0.71831   0.12628   0.12467   0.00000  Uiso   1.00
C68    C     0.72487   0.03391   0.16798   0.00000  Uiso   1.00
C69    C     0.59355   0.97227   0.02808   0.00000  Uiso   1.00
H70    H     0.50003   0.28323   0.79346   0.00000  Uiso   1.00
H71    H     0.47694   0.46013   0.83126   0.00000  Uiso   1.00
H72    H     0.63497   0.28027   0.82853   0.00000  Uiso   1.00
H73    H     0.35103   0.11760   0.67116   0.00000  Uiso   1.00
H74    H     0.51002   0.64315   0.95113   0.00000  Uiso   1.00
H75    H     0.84323   0.26386   0.94536   0.00000  Uiso   1.00
H76    H     0.24447   0.92084   0.61350   0.00000  Uiso   1.00
H77    H     0.95203   0.18207   0.39412   0.00000  Uiso   1.00
H78    H     0.95374   0.35342   0.46489   0.00000  Uiso   1.00
H79    H     0.11177   0.17356   0.46215   0.00000  Uiso   1.00
H80    H     0.82782   0.01089   0.30478   0.00000  Uiso   1.00
H81    H     0.89701   0.55654   0.46541   0.00000  Uiso   1.00
H82    H     0.23022   0.17725   0.45963   0.00000  Uiso   1.00
H83    H     0.63146   0.83423   0.12778   0.00000  Uiso   1.00
O84    O     0.69651   0.71441   0.24400   0.00000  Uiso   1.00
O85    O     0.13366   0.21678   0.23641   0.00000  Uiso   1.00
O86    O     0.34810   0.76675   0.80102   0.00000  Uiso   1.00
N87    N     0.60085   0.59924   0.06245   0.00000  Uiso   1.00
N88    N     0.91239   0.24465   0.05706   0.00000  Uiso   1.00
N89    N     0.35261   0.92393   0.74680   0.00000  Uiso   1.00
N90    N     0.80909   0.55264   0.33918   0.00000  Uiso   1.00
N91    N     0.12062   0.19804   0.33378   0.00000  Uiso   1.00
N92    N     0.56084   0.87733   0.02353   0.00000  Uiso   1.00
C93    C     0.60358   0.23994   0.43107   0.00000  Uiso   1.00
C94    C     0.65371   0.15786   0.53490   0.00000  Uiso   1.00
C95    C     0.57987   0.06288   0.46806   0.00000  Uiso   1.00
C96    C     0.64382   0.99864   0.58437   0.00000  Uiso   1.00
C97    C     0.70146   0.86663   0.71872   0.00000  Uiso   1.00
C98    C     0.73958   0.25557   0.53342   0.00000  Uiso   1.00
C99    C     0.73793   0.24276   0.46532   0.00000  Uiso   1.00
C100   C     0.87417   0.26079   0.58040   0.00000  Uiso   1.00
C101   C     0.06510   0.28056   0.71242   0.00000  Uiso   1.00
C102   C     0.58530   0.34395   0.44791   0.00000  Uiso   1.00
C103   C     0.45393   0.40546   0.30792   0.00000  Uiso   1.00
C104   C     0.46029   0.49791   0.35100   0.00000  Uiso   1.00
C105   C     0.41167   0.65489   0.35026   0.00000  Uiso   1.00
C106   C     0.84847   0.29475   0.75650   0.00000  Uiso   1.00
C107   C     0.78672   0.18763   0.71166   0.00000  Uiso   1.00
C108   C     0.85080   0.12352   0.82811   0.00000  Uiso   1.00
C109   C     0.77707   0.02846   0.76145   0.00000  Uiso   1.00
C110   C     0.87259   0.28534   0.71018   0.00000  Uiso   1.00
C111   C     0.00886   0.30340   0.82537   0.00000  Uiso   1.00
C112   C     0.00742   0.29061   0.75748   0.00000  Uiso   1.00
C113   C     0.71831   0.37372   0.62467   0.00000  Uiso   1.00
C114   C     0.72487   0.46609   0.66798   0.00000  Uiso   1.00
C115   C     0.59355   0.52773   0.52808   0.00000  Uiso   1.00
H116   H     0.50003   0.21677   0.29346   0.00000  Uiso   1.00
H117   H     0.47694   0.03987   0.33126   0.00000  Uiso   1.00
H118   H     0.63497   0.21973   0.32853   0.00000  Uiso   1.00
H119   H     0.35103   0.38240   0.17116   0.00000  Uiso   1.00
H120   H     0.51002   0.85685   0.45113   0.00000  Uiso   1.00
H121   H     0.84323   0.23614   0.44536   0.00000  Uiso   1.00
H122   H     0.24447   0.57916   0.11350   0.00000  Uiso   1.00
H123   H     0.95203   0.31793   0.89412   0.00000  Uiso   1.00
H124   H     0.95374   0.14658   0.96489   0.00000  Uiso   1.00
H125   H     0.11177   0.32644   0.96215   0.00000  Uiso   1.00
H126   H     0.82782   0.48911   0.80478   0.00000  Uiso   1.00
H127   H     0.89701   0.94346   0.96541   0.00000  Uiso   1.00
H128   H     0.23022   0.32275   0.95963   0.00000  Uiso   1.00
H129   H     0.63146   0.66577   0.62778   0.00000  Uiso   1.00
O130   O     0.69651   0.78559   0.74400   0.00000  Uiso   1.00
O131   O     0.13366   0.28322   0.73641   0.00000  Uiso   1.00
O132   O     0.34810   0.73325   0.30102   0.00000  Uiso   1.00
N133   N     0.60085   0.90076   0.56245   0.00000  Uiso   1.00
N134   N     0.91239   0.25535   0.55706   0.00000  Uiso   1.00
N135   N     0.35261   0.57607   0.24680   0.00000  Uiso   1.00
N136   N     0.80909   0.94736   0.83918   0.00000  Uiso   1.00
N137   N     0.12062   0.30196   0.83378   0.00000  Uiso   1.00
N138   N     0.56084   0.62267   0.52353   0.00000  Uiso   1.00
C139   C     0.39642   0.73994   0.06893   0.00000  Uiso   1.00
C140   C     0.34629   0.65786   0.96510   0.00000  Uiso   1.00
C141   C     0.42013   0.56288   0.03194   0.00000  Uiso   1.00
C142   C     0.35618   0.49864   0.91563   0.00000  Uiso   1.00
C143   C     0.29854   0.36663   0.78128   0.00000  Uiso   1.00
C144   C     0.26042   0.75557   0.96658   0.00000  Uiso   1.00
C145   C     0.26207   0.74276   0.03468   0.00000  Uiso   1.00
C146   C     0.12583   0.76079   0.91960   0.00000  Uiso   1.00
C147   C     0.93490   0.78056   0.78758   0.00000  Uiso   1.00
C148   C     0.41470   0.84395   0.05209   0.00000  Uiso   1.00
C149   C     0.54607   0.90546   0.19208   0.00000  Uiso   1.00
C150   C     0.53971   0.99791   0.14900   0.00000  Uiso   1.00
C151   C     0.58833   0.15489   0.14974   0.00000  Uiso   1.00
C152   C     0.15153   0.79475   0.74350   0.00000  Uiso   1.00
C153   C     0.21328   0.68763   0.78834   0.00000  Uiso   1.00
C154   C     0.14920   0.62352   0.67189   0.00000  Uiso   1.00
C155   C     0.22293   0.52846   0.73855   0.00000  Uiso   1.00
C156   C     0.12741   0.78534   0.78982   0.00000  Uiso   1.00
C157   C     0.99114   0.80340   0.67463   0.00000  Uiso   1.00
C158   C     0.99258   0.79061   0.74252   0.00000  Uiso   1.00
C159   C     0.28169   0.87372   0.87533   0.00000  Uiso   1.00
C160   C     0.27513   0.96609   0.83202   0.00000  Uiso   1.00
C161   C     0.40645   0.02773   0.97192   0.00000  Uiso   1.00
H162   H     0.49997   0.71677   0.20654   0.00000  Uiso   1.00
H163   H     0.52306   0.53987   0.16874   0.00000  Uiso   1.00
H164   H     0.36503   0.71973   0.17147   0.00000  Uiso   1.00
H165   H     0.64897   0.88240   0.32884   0.00000  Uiso   1.00
H166   H     0.48998   0.35685   0.04887   0.00000  Uiso   1.00
H167   H     0.15677   0.73614   0.05464   0.00000  Uiso   1.00
H168   H     0.75553   0.07916   0.38650   0.00000  Uiso   1.00
H169   H     0.04797   0.81793   0.60588   0.00000  Uiso   1.00
H170   H     0.04626   0.64658   0.53511   0.00000  Uiso   1.00
H171   H     0.88823   0.82644   0.53785   0.00000  Uiso   1.00
H172   H     0.17218   0.98911   0.69522   0.00000  Uiso   1.00
H173   H     0.10299   0.44346   0.53459   0.00000  Uiso   1.00
H174   H     0.76978   0.82275   0.54037   0.00000  Uiso   1.00
H175   H     0.36854   0.16577   0.87222   0.00000  Uiso   1.00
O176   O     0.30349   0.28559   0.75600   0.00000  Uiso   1.00
O177   O     0.86634   0.78322   0.76359   0.00000  Uiso   1.00
O178   O     0.65190   0.23325   0.19898   0.00000  Uiso   1.00
N179   N     0.39915   0.40076   0.93755   0.00000  Uiso   1.00
N180   N     0.08761   0.75535   0.94294   0.00000  Uiso   1.00
N181   N     0.64739   0.07607   0.25320   0.00000  Uiso   1.00
N182   N     0.19091   0.44736   0.66082   0.00000  Uiso   1.00
N183   N     0.87938   0.80196   0.66622   0.00000  Uiso   1.00
N184   N     0.43916   0.12267   0.97647   0.00000  Uiso   1.00
