data_job_06630
_audit_creation_date              2018-12-19
_audit_creation_method            'Materials Studio'
_symmetry_space_group_name_H-M    'P1'
_symmetry_Int_Tables_number       1
_symmetry_cell_setting            triclinic
loop_
_symmetry_equiv_pos_as_xyz
  x,y,z
_cell_length_a                    21.6386
_cell_length_b                    22.6802
_cell_length_c                    24.6537
_cell_angle_alpha                 64.0584
_cell_angle_beta                  89.8395
_cell_angle_gamma                 118.1583
loop_
_atom_site_label
_atom_site_type_symbol
_atom_site_fract_x
_atom_site_fract_y
_atom_site_fract_z
_atom_site_U_iso_or_equiv
_atom_site_adp_type
_atom_site_occupancy
C1     C     0.19418   0.95747   0.39081   0.00000  Uiso   1.00
C2     C     0.18979   0.02958   0.36510   0.00000  Uiso   1.00
C3     C     0.15736   0.05224   0.31804   0.00000  Uiso   1.00
C4     C     0.15907   0.12008   0.30116   0.00000  Uiso   1.00
C5     C     0.14728   0.22544   0.25679   0.00000  Uiso   1.00
C6     C     0.27470   0.98533   0.38308   0.00000  Uiso   1.00
C7     C     0.31366   0.97077   0.35114   0.00000  Uiso   1.00
C8     C     0.38684   0.00134   0.34941   0.00000  Uiso   1.00
C9     C     0.50686   0.03796   0.33298   0.00000  Uiso   1.00
C10    C     0.15964   0.91245   0.46105   0.00000  Uiso   1.00
C11    C     0.10186   0.83660   0.49467   0.00000  Uiso   1.00
C12    C     0.07818   0.80581   0.55858   0.00000  Uiso   1.00
C13    C     0.01955   0.72927   0.66321   0.00000  Uiso   1.00
C14    C     0.25488   0.03765   0.44452   0.00000  Uiso   1.00
C15    C     0.22276   0.07313   0.39428   0.00000  Uiso   1.00
C16    C     0.22452   0.14095   0.37747   0.00000  Uiso   1.00
C17    C     0.19210   0.16370   0.33039   0.00000  Uiso   1.00
C18    C     0.30767   0.02888   0.41226   0.00000  Uiso   1.00
C19    C     0.38082   0.05947   0.41057   0.00000  Uiso   1.00
C20    C     0.41987   0.04497   0.37864   0.00000  Uiso   1.00
C21    C     0.19261   0.95600   0.49022   0.00000  Uiso   1.00
C22    C     0.16902   0.92531   0.55410   0.00000  Uiso   1.00
C23    C     0.11121   0.84944   0.58781   0.00000  Uiso   1.00
H24    H     0.16851   0.92357   0.36810   0.00000  Uiso   1.00
H25    H     0.13186   0.01853   0.29547   0.00000  Uiso   1.00
H26    H     0.28813   0.93706   0.32858   0.00000  Uiso   1.00
H27    H     0.07636   0.80292   0.47208   0.00000  Uiso   1.00
H28    H     0.10579   0.14303   0.22780   0.00000  Uiso   1.00
H29    H     0.43528   0.97123   0.29762   0.00000  Uiso   1.00
H30    H     0.98873   0.68837   0.60023   0.00000  Uiso   1.00
H31    H     0.28055   0.07155   0.46724   0.00000  Uiso   1.00
H32    H     0.25004   0.17464   0.40005   0.00000  Uiso   1.00
H33    H     0.40631   0.09317   0.43316   0.00000  Uiso   1.00
H34    H     0.19454   0.95903   0.57666   0.00000  Uiso   1.00
H35    H     0.20171   0.26973   0.31268   0.00000  Uiso   1.00
H36    H     0.53120   0.09793   0.38251   0.00000  Uiso   1.00
H37    H     0.08465   0.81507   0.68511   0.00000  Uiso   1.00
O38    O     0.13168   0.27154   0.22425   0.00000  Uiso   1.00
O39    O     0.56396   0.04613   0.31586   0.00000  Uiso   1.00
O40    O     0.97810   0.67503   0.71286   0.00000  Uiso   1.00
N41    N     0.13254   0.15869   0.25701   0.00000  Uiso   1.00
N42    N     0.44060   0.99808   0.32228   0.00000  Uiso   1.00
N43    N     0.02312   0.73362   0.60519   0.00000  Uiso   1.00
N44    N     0.18415   0.22687   0.30268   0.00000  Uiso   1.00
N45    N     0.49221   0.06626   0.36795   0.00000  Uiso   1.00
N46    N     0.07474   0.80180   0.65086   0.00000  Uiso   1.00
C47    C     0.65219   0.72064   0.44530   0.00000  Uiso   1.00
C48    C     0.61168   0.68829   0.40507   0.00000  Uiso   1.00
C49    C     0.63525   0.66361   0.37158   0.00000  Uiso   1.00
C50    C     0.59034   0.63592   0.33764   0.00000  Uiso   1.00
C51    C     0.53751   0.58615   0.27520   0.00000  Uiso   1.00
C52    C     0.66170   0.79980   0.41998   0.00000  Uiso   1.00
C53    C     0.72732   0.86888   0.39905   0.00000  Uiso   1.00
C54    C     0.72452   0.93505   0.37766   0.00000  Uiso   1.00
C55    C     0.74934   0.05841   0.33842   0.00000  Uiso   1.00
C56    C     0.59983   0.67020   0.51034   0.00000  Uiso   1.00
C57    C     0.61344   0.63033   0.56539   0.00000  Uiso   1.00
C58    C     0.55855   0.58740   0.62009   0.00000  Uiso   1.00
C59    C     0.48731   0.50954   0.72115   0.00000  Uiso   1.00
C60    C     0.53053   0.71533   0.44456   0.00000  Uiso   1.00
C61    C     0.54560   0.68541   0.40466   0.00000  Uiso   1.00
C62    C     0.50065   0.65773   0.37076   0.00000  Uiso   1.00
C63    C     0.52414   0.63302   0.33723   0.00000  Uiso   1.00
C64    C     0.59562   0.79692   0.41958   0.00000  Uiso   1.00
C65    C     0.59272   0.86300   0.39822   0.00000  Uiso   1.00
C66    C     0.65832   0.93216   0.37726   0.00000  Uiso   1.00
C67    C     0.53375   0.66731   0.50994   0.00000  Uiso   1.00
C68    C     0.47883   0.62445   0.56456   0.00000  Uiso   1.00
C69    C     0.49235   0.58451   0.61968   0.00000  Uiso   1.00
H70    H     0.70364   0.72290   0.44561   0.00000  Uiso   1.00
H71    H     0.68639   0.66587   0.37190   0.00000  Uiso   1.00
H72    H     0.77845   0.87110   0.39937   0.00000  Uiso   1.00
H73    H     0.66458   0.63258   0.56568   0.00000  Uiso   1.00
H74    H     0.63814   0.60139   0.28998   0.00000  Uiso   1.00
H75    H     0.83225   0.03413   0.34791   0.00000  Uiso   1.00
H76    H     0.59214   0.53117   0.69862   0.00000  Uiso   1.00
H77    H     0.47909   0.71308   0.44425   0.00000  Uiso   1.00
H78    H     0.44951   0.65551   0.37046   0.00000  Uiso   1.00
H79    H     0.54158   0.86074   0.39792   0.00000  Uiso   1.00
H80    H     0.42771   0.62222   0.56424   0.00000  Uiso   1.00
H81    H     0.44588   0.59299   0.28881   0.00000  Uiso   1.00
H82    H     0.63999   0.02573   0.34674   0.00000  Uiso   1.00
H83    H     0.39988   0.52277   0.69745   0.00000  Uiso   1.00
O84    O     0.52662   0.55952   0.24086   0.00000  Uiso   1.00
O85    O     0.78129   0.12725   0.31688   0.00000  Uiso   1.00
O86    O     0.46626   0.46738   0.77700   0.00000  Uiso   1.00
N87    N     0.59694   0.60730   0.29984   0.00000  Uiso   1.00
N88    N     0.77843   0.01189   0.35400   0.00000  Uiso   1.00
N89    N     0.55395   0.54168   0.68188   0.00000  Uiso   1.00
N90    N     0.49349   0.60277   0.29921   0.00000  Uiso   1.00
N91    N     0.67497   0.00737   0.35336   0.00000  Uiso   1.00
N92    N     0.45049   0.53715   0.68125   0.00000  Uiso   1.00
C93    C     0.92459   0.34765   0.46048   0.00000  Uiso   1.00
C94    C     0.97711   0.32663   0.44525   0.00000  Uiso   1.00
C95    C     0.04481   0.37801   0.40229   0.00000  Uiso   1.00
C96    C     0.08460   0.34737   0.39511   0.00000  Uiso   1.00
C97    C     0.17025   0.32677   0.36619   0.00000  Uiso   1.00
C98    C     0.85353   0.29954   0.44896   0.00000  Uiso   1.00
C99    C     0.81732   0.32815   0.40912   0.00000  Uiso   1.00
C100   C     0.75308   0.27470   0.40508   0.00000  Uiso   1.00
C101   C     0.64684   0.21204   0.38195   0.00000  Uiso   1.00
C102   C     0.90906   0.31687   0.53084   0.00000  Uiso   1.00
C103   C     0.91952   0.36004   0.55985   0.00000  Uiso   1.00
C104   C     0.90203   0.32117   0.62475   0.00000  Uiso   1.00
C105   C     0.88200   0.28542   0.72875   0.00000  Uiso   1.00
C106   C     0.87489   0.20185   0.52413   0.00000  Uiso   1.00
C107   C     0.95011   0.24744   0.47983   0.00000  Uiso   1.00
C108   C     0.98982   0.21670   0.47272   0.00000  Uiso   1.00
C109   C     0.05756   0.26803   0.42975   0.00000  Uiso   1.00
C110   C     0.82653   0.22035   0.48353   0.00000  Uiso   1.00
C111   C     0.76233   0.16684   0.47955   0.00000  Uiso   1.00
C112   C     0.72604   0.19536   0.43972   0.00000  Uiso   1.00
C113   C     0.88207   0.23768   0.56542   0.00000  Uiso   1.00
C114   C     0.86454   0.19873   0.63028   0.00000  Uiso   1.00
C115   C     0.87498   0.24184   0.65939   0.00000  Uiso   1.00
H116   H     0.94560   0.40930   0.43356   0.00000  Uiso   1.00
H117   H     0.06568   0.43929   0.37553   0.00000  Uiso   1.00
H118   H     0.83822   0.38943   0.38238   0.00000  Uiso   1.00
H119   H     0.94042   0.42132   0.53308   0.00000  Uiso   1.00
H120   H     0.18688   0.43761   0.32644   0.00000  Uiso   1.00
H121   H     0.70727   0.33249   0.34088   0.00000  Uiso   1.00
H122   H     0.92276   0.39972   0.65867   0.00000  Uiso   1.00
H123   H     0.85387   0.14020   0.55106   0.00000  Uiso   1.00
H124   H     0.96891   0.15542   0.49948   0.00000  Uiso   1.00
H125   H     0.74146   0.10557   0.50632   0.00000  Uiso   1.00
H126   H     0.84365   0.13745   0.65702   0.00000  Uiso   1.00
H127   H     0.10835   0.20721   0.42703   0.00000  Uiso   1.00
H128   H     0.62873   0.10209   0.44148   0.00000  Uiso   1.00
H129   H     0.84423   0.16932   0.75926   0.00000  Uiso   1.00
O130   O     0.22494   0.33728   0.34067   0.00000  Uiso   1.00
O131   O     0.59570   0.19936   0.35963   0.00000  Uiso   1.00
O132   O     0.87843   0.28757   0.77656   0.00000  Uiso   1.00
N133   N     0.15262   0.38130   0.35720   0.00000  Uiso   1.00
N134   N     0.70421   0.28302   0.37070   0.00000  Uiso   1.00
N135   N     0.90567   0.34587   0.66780   0.00000  Uiso   1.00
N136   N     0.11036   0.25733   0.41133   0.00000  Uiso   1.00
N137   N     0.66195   0.15904   0.42483   0.00000  Uiso   1.00
N138   N     0.86341   0.22190   0.72193   0.00000  Uiso   1.00
C139   C     0.35258   0.86207   0.94155   0.00000  Uiso   1.00
C140   C     0.43067   0.90434   0.90367   0.00000  Uiso   1.00
C141   C     0.46116   0.87265   0.88429   0.00000  Uiso   1.00
C142   C     0.53349   0.92084   0.85005   0.00000  Uiso   1.00
C143   C     0.64859   0.97475   0.79337   0.00000  Uiso   1.00
C144   C     0.32028   0.90865   0.90320   0.00000  Uiso   1.00
C145   C     0.25795   0.88059   0.88345   0.00000  Uiso   1.00
C146   C     0.23735   0.93242   0.84882   0.00000  Uiso   1.00
C147   C     0.18104   0.99302   0.79147   0.00000  Uiso   1.00
C148   C     0.35767   0.87048   0.99972   0.00000  Uiso   1.00
C149   C     0.32676   0.81033   0.06111   0.00000  Uiso   1.00
C150   C     0.33762   0.83002   0.10774   0.00000  Uiso   1.00
C151   C     0.33936   0.83136   0.20024   0.00000  Uiso   1.00
C152   C     0.42682   0.00400   0.91519   0.00000  Uiso   1.00
C153   C     0.47099   0.98142   0.88935   0.00000  Uiso   1.00
C154   C     0.54329   0.02967   0.85513   0.00000  Uiso   1.00
C155   C     0.57388   0.99806   0.83571   0.00000  Uiso   1.00
C156   C     0.36060   0.98574   0.88889   0.00000  Uiso   1.00
C157   C     0.34008   0.03762   0.85428   0.00000  Uiso   1.00
C158   C     0.27774   0.00964   0.83448   0.00000  Uiso   1.00
C159   C     0.39799   0.94757   0.98540   0.00000  Uiso   1.00
C160   C     0.40890   0.96736   0.03195   0.00000  Uiso   1.00
C161   C     0.37801   0.90725   0.09340   0.00000  Uiso   1.00
H162   H     0.32119   0.80206   0.95270   0.00000  Uiso   1.00
H163   H     0.42993   0.81299   0.89538   0.00000  Uiso   1.00
H164   H     0.22675   0.82093   0.89454   0.00000  Uiso   1.00
H165   H     0.29556   0.75069   0.07217   0.00000  Uiso   1.00
H166   H     0.56827   0.85912   0.82549   0.00000  Uiso   1.00
H167   H     0.13984   0.87586   0.82374   0.00000  Uiso   1.00
H168   H     0.28493   0.72773   0.19832   0.00000  Uiso   1.00
H169   H     0.45821   0.06401   0.90405   0.00000  Uiso   1.00
H170   H     0.57448   0.08932   0.84405   0.00000  Uiso   1.00
H171   H     0.37130   0.09727   0.84322   0.00000  Uiso   1.00
H172   H     0.44010   0.02702   0.02085   0.00000  Uiso   1.00
H173   H     0.68559   0.08340   0.78383   0.00000  Uiso   1.00
H174   H     0.25716   0.10014   0.78209   0.00000  Uiso   1.00
H175   H     0.40225   0.95201   0.15666   0.00000  Uiso   1.00
O176   O     0.70094   0.98319   0.76606   0.00000  Uiso   1.00
O177   O     0.13885   0.00515   0.76378   0.00000  Uiso   1.00
O178   O     0.32920   0.81080   0.25521   0.00000  Uiso   1.00
N179   N     0.57993   0.90843   0.82393   0.00000  Uiso   1.00
N180   N     0.17938   0.92408   0.82229   0.00000  Uiso   1.00
N181   N     0.31501   0.78559   0.17249   0.00000  Uiso   1.00
N182   N     0.64306   0.02911   0.80152   0.00000  Uiso   1.00
N183   N     0.24251   0.04476   0.79987   0.00000  Uiso   1.00
N184   N     0.37813   0.90627   0.15007   0.00000  Uiso   1.00
C185   C     0.70459   0.73759   0.91516   0.00000  Uiso   1.00
C186   C     0.70881   0.69294   0.88512   0.00000  Uiso   1.00
C187   C     0.65630   0.65615   0.86013   0.00000  Uiso   1.00
C188   C     0.67036   0.61843   0.83477   0.00000  Uiso   1.00
C189   C     0.66715   0.54926   0.78815   0.00000  Uiso   1.00
C190   C     0.77244   0.81821   0.87924   0.00000  Uiso   1.00
C191   C     0.77342   0.88674   0.84932   0.00000  Uiso   1.00
C192   C     0.84105   0.95448   0.81902   0.00000  Uiso   1.00
C193   C     0.93663   0.07980   0.76331   0.00000  Uiso   1.00
C194   C     0.71365   0.70055   0.98071   0.00000  Uiso   1.00
C195   C     0.66520   0.67018   0.03611   0.00000  Uiso   1.00
C196   C     0.68334   0.63887   0.09125   0.00000  Uiso   1.00
C197   C     0.68763   0.58152   0.19309   0.00000  Uiso   1.00
C198   C     0.82296   0.73603   0.91457   0.00000  Uiso   1.00
C199   C     0.77311   0.69209   0.88480   0.00000  Uiso   1.00
C200   C     0.78726   0.65442   0.85948   0.00000  Uiso   1.00
C201   C     0.73477   0.61758   0.83446   0.00000  Uiso   1.00
C202   C     0.83673   0.81736   0.87892   0.00000  Uiso   1.00
C203   C     0.90438   0.88501   0.84867   0.00000  Uiso   1.00
C204   C     0.90546   0.95363   0.81870   0.00000  Uiso   1.00
C205   C     0.77794   0.69970   0.98039   0.00000  Uiso   1.00
C206   C     0.79616   0.66845   0.03546   0.00000  Uiso   1.00
C207   C     0.74775   0.63803   0.09093   0.00000  Uiso   1.00
H208   H     0.65454   0.73825   0.91540   0.00000  Uiso   1.00
H209   H     0.60655   0.65682   0.86038   0.00000  Uiso   1.00
H210   H     0.72366   0.88738   0.84957   0.00000  Uiso   1.00
H211   H     0.61545   0.67084   0.03634   0.00000  Uiso   1.00
H212   H     0.58171   0.56619   0.79921   0.00000  Uiso   1.00
H213   H     0.82864   0.05233   0.77645   0.00000  Uiso   1.00
H214   H     0.60047   0.59573   0.17028   0.00000  Uiso   1.00
H215   H     0.87302   0.73537   0.91432   0.00000  Uiso   1.00
H216   H     0.83702   0.65377   0.85924   0.00000  Uiso   1.00
H217   H     0.95412   0.88434   0.84843   0.00000  Uiso   1.00
H218   H     0.84592   0.66780   0.03520   0.00000  Uiso   1.00
H219   H     0.76877   0.56372   0.79828   0.00000  Uiso   1.00
H220   H     0.01569   0.04987   0.77552   0.00000  Uiso   1.00
H221   H     0.78753   0.59326   0.16935   0.00000  Uiso   1.00
O222   O     0.64762   0.51136   0.76251   0.00000  Uiso   1.00
O223   O     0.97158   0.14915   0.73266   0.00000  Uiso   1.00
O224   O     0.67223   0.55010   0.24936   0.00000  Uiso   1.00
N225   N     0.63067   0.57679   0.80656   0.00000  Uiso   1.00
N226   N     0.86153   0.03131   0.78527   0.00000  Uiso   1.00
N227   N     0.64822   0.60444   0.15347   0.00000  Uiso   1.00
N228   N     0.73132   0.57546   0.80606   0.00000  Uiso   1.00
N229   N     0.96218   0.02998   0.78477   0.00000  Uiso   1.00
N230   N     0.74887   0.60311   0.15297   0.00000  Uiso   1.00
C231   C     0.13050   0.39466   0.92988   0.00000  Uiso   1.00
C232   C     0.11387   0.45783   0.89558   0.00000  Uiso   1.00
C233   C     0.16149   0.53598   0.87324   0.00000  Uiso   1.00
C234   C     0.13595   0.58447   0.84313   0.00000  Uiso   1.00
C235   C     0.12088   0.68692   0.79097   0.00000  Uiso   1.00
C236   C     0.11614   0.35290   0.89257   0.00000  Uiso   1.00
C237   C     0.16567   0.34283   0.86772   0.00000  Uiso   1.00
C238   C     0.14203   0.30298   0.83509   0.00000  Uiso   1.00
C239   C     0.13048   0.24249   0.77831   0.00000  Uiso   1.00
C240   C     0.07238   0.33702   0.99206   0.00000  Uiso   1.00
C241   C     0.08510   0.31358   0.05087   0.00000  Uiso   1.00
C242   C     0.02461   0.26034   0.10200   0.00000  Uiso   1.00
C243   C     0.94510   0.17519   0.19970   0.00000  Uiso   1.00
C244   C     0.00045   0.34179   0.91614   0.00000  Uiso   1.00
C245   C     0.04323   0.42911   0.88811   0.00000  Uiso   1.00
C246   C     0.01761   0.47749   0.85803   0.00000  Uiso   1.00
C247   C     0.06518   0.55570   0.83565   0.00000  Uiso   1.00
C248   C     0.04551   0.32419   0.88511   0.00000  Uiso   1.00
C249   C     0.02179   0.28433   0.85251   0.00000  Uiso   1.00
C250   C     0.07127   0.27421   0.82761   0.00000  Uiso   1.00
C251   C     0.00174   0.30830   0.98460   0.00000  Uiso   1.00
C252   C     0.94122   0.25508   0.03566   0.00000  Uiso   1.00
C253   C     0.95385   0.23157   0.09452   0.00000  Uiso   1.00
H254   H     0.18550   0.41702   0.93569   0.00000  Uiso   1.00
H255   H     0.21616   0.55819   0.87902   0.00000  Uiso   1.00
H256   H     0.22033   0.36506   0.87351   0.00000  Uiso   1.00
H257   H     0.13977   0.33581   0.05662   0.00000  Uiso   1.00
H258   H     0.21900   0.70204   0.81287   0.00000  Uiso   1.00
H259   H     0.22780   0.29479   0.80127   0.00000  Uiso   1.00
H260   H     0.05793   0.23312   0.18741   0.00000  Uiso   1.00
H261   H     0.94546   0.31943   0.91032   0.00000  Uiso   1.00
H262   H     0.96294   0.45524   0.85226   0.00000  Uiso   1.00
H263   H     0.96712   0.26212   0.84675   0.00000  Uiso   1.00
H264   H     0.88656   0.23287   0.02986   0.00000  Uiso   1.00
H265   H     0.01349   0.61849   0.79115   0.00000  Uiso   1.00
H266   H     0.02228   0.21124   0.77955   0.00000  Uiso   1.00
H267   H     0.85241   0.14957   0.16569   0.00000  Uiso   1.00
O268   O     0.13208   0.75137   0.76426   0.00000  Uiso   1.00
O269   O     0.14362   0.21707   0.74905   0.00000  Uiso   1.00
O270   O     0.92076   0.13616   0.25565   0.00000  Uiso   1.00
N271   N     0.16823   0.66373   0.81574   0.00000  Uiso   1.00
N272   N     0.17646   0.28299   0.80488   0.00000  Uiso   1.00
N273   N     0.01764   0.22532   0.16589   0.00000  Uiso   1.00
N274   N     0.05764   0.61877   0.80405   0.00000  Uiso   1.00
N275   N     0.06587   0.23803   0.79320   0.00000  Uiso   1.00
N276   N     0.90706   0.18036   0.15421   0.00000  Uiso   1.00
C277   C     0.88849   0.95233   0.60512   0.00000  Uiso   1.00
C278   C     0.91607   0.90509   0.65083   0.00000  Uiso   1.00
C279   C     0.96933   0.93129   0.67991   0.00000  Uiso   1.00
C280   C     0.98691   0.87916   0.72015   0.00000  Uiso   1.00
C281   C     0.03496   0.81729   0.78952   0.00000  Uiso   1.00
C282   C     0.80653   0.90754   0.63246   0.00000  Uiso   1.00
C283   C     0.76767   0.93580   0.64609   0.00000  Uiso   1.00
C284   C     0.69304   0.88573   0.67086   0.00000  Uiso   1.00
C285   C     0.57101   0.82768   0.71167   0.00000  Uiso   1.00
C286   C     0.89936   0.94898   0.54562   0.00000  Uiso   1.00
C287   C     0.93854   0.01210   0.48622   0.00000  Uiso   1.00
C288   C     0.94204   0.99692   0.43788   0.00000  Uiso   1.00
C289   C     0.96415   0.00323   0.34385   0.00000  Uiso   1.00
C290   C     0.82501   0.81314   0.62489   0.00000  Uiso   1.00
C291   C     0.88159   0.82948   0.66157   0.00000  Uiso   1.00
C292   C     0.89910   0.77729   0.70178   0.00000  Uiso   1.00
C293   C     0.95237   0.80342   0.73091   0.00000  Uiso   1.00
C294   C     0.77205   0.83194   0.64320   0.00000  Uiso   1.00
C295   C     0.69745   0.78181   0.66796   0.00000  Uiso   1.00
C296   C     0.65850   0.80999   0.68162   0.00000  Uiso   1.00
C297   C     0.86488   0.87338   0.55636   0.00000  Uiso   1.00
C298   C     0.86832   0.85810   0.50810   0.00000  Uiso   1.00
C299   C     0.90750   0.92118   0.44864   0.00000  Uiso   1.00
H300   H     0.91532   0.01119   0.59676   0.00000  Uiso   1.00
H301   H     0.99599   0.98980   0.67159   0.00000  Uiso   1.00
H302   H     0.79437   0.99431   0.63777   0.00000  Uiso   1.00
H303   H     0.96521   0.07060   0.47793   0.00000  Uiso   1.00
H304   H     0.07020   0.93274   0.75930   0.00000  Uiso   1.00
H305   H     0.64507   0.94226   0.68796   0.00000  Uiso   1.00
H306   H     0.00532   0.10312   0.35092   0.00000  Uiso   1.00
H307   H     0.79817   0.75428   0.63325   0.00000  Uiso   1.00
H308   H     0.87241   0.71879   0.71008   0.00000  Uiso   1.00
H309   H     0.67079   0.72331   0.67626   0.00000  Uiso   1.00
H310   H     0.84163   0.79959   0.51642   0.00000  Uiso   1.00
H311   H     0.96990   0.71278   0.79055   0.00000  Uiso   1.00
H312   H     0.54476   0.72230   0.71920   0.00000  Uiso   1.00
H313   H     0.90502   0.88316   0.38216   0.00000  Uiso   1.00
O314   O     0.07098   0.80404   0.82482   0.00000  Uiso   1.00
O315   O     0.51323   0.81655   0.73122   0.00000  Uiso   1.00
O316   O     0.98587   0.02759   0.28902   0.00000  Uiso   1.00
N317   N     0.03642   0.88585   0.75610   0.00000  Uiso   1.00
N318   N     0.63894   0.89475   0.68941   0.00000  Uiso   1.00
N319   N     0.97573   0.04514   0.37430   0.00000  Uiso   1.00
N320   N     0.98244   0.76749   0.77291   0.00000  Uiso   1.00
N321   N     0.58497   0.77639   0.70622   0.00000  Uiso   1.00
N322   N     0.92176   0.92678   0.39111   0.00000  Uiso   1.00
C323   C     0.36896   0.15344   0.61787   0.00000  Uiso   1.00
C324   C     0.37296   0.19246   0.65592   0.00000  Uiso   1.00
C325   C     0.32392   0.21206   0.66600   0.00000  Uiso   1.00
C326   C     0.33711   0.24738   0.70215   0.00000  Uiso   1.00
C327   C     0.33416   0.30564   0.75744   0.00000  Uiso   1.00
C328   C     0.36864   0.08055   0.66162   0.00000  Uiso   1.00
C329   C     0.31598   0.00605   0.67649   0.00000  Uiso   1.00
C330   C     0.32553   0.94716   0.71743   0.00000  Uiso   1.00
C331   C     0.31591   0.83168   0.78152   0.00000  Uiso   1.00
C332   C     0.44108   0.20639   0.56779   0.00000  Uiso   1.00
C333   C     0.44933   0.23769   0.50376   0.00000  Uiso   1.00
C334   C     0.51987   0.28474   0.46570   0.00000  Uiso   1.00
C335   C     0.62271   0.36464   0.38410   0.00000  Uiso   1.00
C336   C     0.47958   0.18130   0.66414   0.00000  Uiso   1.00
C337   C     0.43304   0.20760   0.68105   0.00000  Uiso   1.00
C338   C     0.44631   0.24290   0.71719   0.00000  Uiso   1.00
C339   C     0.39730   0.26255   0.72732   0.00000  Uiso   1.00
C340   C     0.42872   0.09568   0.68675   0.00000  Uiso   1.00
C341   C     0.43836   0.03689   0.72767   0.00000  Uiso   1.00
C342   C     0.38572   0.96233   0.74260   0.00000  Uiso   1.00
C343   C     0.50116   0.22153   0.59291   0.00000  Uiso   1.00
C344   C     0.57171   0.26853   0.55495   0.00000  Uiso   1.00
C345   C     0.58006   0.29990   0.49087   0.00000  Uiso   1.00
H346   H     0.32219   0.14164   0.59831   0.00000  Uiso   1.00
H347   H     0.27743   0.20033   0.64656   0.00000  Uiso   1.00
H348   H     0.26949   0.99436   0.65703   0.00000  Uiso   1.00
H349   H     0.40282   0.22596   0.48433   0.00000  Uiso   1.00
H350   H     0.25429   0.27205   0.71114   0.00000  Uiso   1.00
H351   H     0.23757   0.83774   0.73321   0.00000  Uiso   1.00
H352   H     0.51871   0.32612   0.36904   0.00000  Uiso   1.00
H353   H     0.52636   0.19309   0.68370   0.00000  Uiso   1.00
H354   H     0.49281   0.25461   0.73663   0.00000  Uiso   1.00
H355   H     0.48486   0.04862   0.74711   0.00000  Uiso   1.00
H356   H     0.61819   0.28023   0.57441   0.00000  Uiso   1.00
H357   H     0.42910   0.31610   0.78425   0.00000  Uiso   1.00
H358   H     0.41237   0.88178   0.80632   0.00000  Uiso   1.00
H359   H     0.69352   0.37017   0.44215   0.00000  Uiso   1.00
O360   O     0.31593   0.33359   0.78099   0.00000  Uiso   1.00
O361   O     0.29399   0.76379   0.80994   0.00000  Uiso   1.00
O362   O     0.66284   0.40454   0.33215   0.00000  Uiso   1.00
N363   N     0.30004   0.27399   0.72108   0.00000  Uiso   1.00
N364   N     0.28440   0.86793   0.74172   0.00000  Uiso   1.00
N365   N     0.54725   0.32451   0.40125   0.00000  Uiso   1.00
N366   N     0.39411   0.29769   0.76041   0.00000  Uiso   1.00
N367   N     0.37846   0.89163   0.78106   0.00000  Uiso   1.00
N368   N     0.64131   0.34822   0.44059   0.00000  Uiso   1.00
C369   C     0.20418   0.51128   0.66804   0.00000  Uiso   1.00
C370   C     0.14018   0.51856   0.68197   0.00000  Uiso   1.00
C371   C     0.06877   0.45798   0.71232   0.00000  Uiso   1.00
C372   C     0.01820   0.47662   0.72056   0.00000  Uiso   1.00
C373   C     0.91577   0.47629   0.74547   0.00000  Uiso   1.00
C374   C     0.26044   0.54936   0.69765   0.00000  Uiso   1.00
C375   C     0.29015   0.51468   0.74119   0.00000  Uiso   1.00
C376   C     0.34082   0.55925   0.76262   0.00000  Uiso   1.00
C377   C     0.42513   0.60675   0.81184   0.00000  Uiso   1.00
C378   C     0.23739   0.56241   0.59754   0.00000  Uiso   1.00
C379   C     0.24773   0.53871   0.55690   0.00000  Uiso   1.00
C380   C     0.27901   0.59427   0.49405   0.00000  Uiso   1.00
C381   C     0.32753   0.66204   0.38783   0.00000  Uiso   1.00
C382   C     0.24137   0.65209   0.62868   0.00000  Uiso   1.00
C383   C     0.16039   0.59505   0.66059   0.00000  Uiso   1.00
C384   C     0.10991   0.61378   0.66878   0.00000  Uiso   1.00
C385   C     0.03843   0.55324   0.69915   0.00000  Uiso   1.00
C386   C     0.28064   0.62584   0.67628   0.00000  Uiso   1.00
C387   C     0.33129   0.67048   0.69765   0.00000  Uiso   1.00
C388   C     0.36105   0.63587   0.74121   0.00000  Uiso   1.00
C389   C     0.25759   0.63890   0.57616   0.00000  Uiso   1.00
C390   C     0.28887   0.69451   0.51336   0.00000  Uiso   1.00
C391   C     0.29924   0.67089   0.47264   0.00000  Uiso   1.00
H392   H     0.18846   0.45173   0.68468   0.00000  Uiso   1.00
H393   H     0.05316   0.39880   0.72887   0.00000  Uiso   1.00
H394   H     0.27451   0.45549   0.75772   0.00000  Uiso   1.00
H395   H     0.23209   0.47952   0.57346   0.00000  Uiso   1.00
H396   H     0.91207   0.37384   0.76844   0.00000  Uiso   1.00
H397   H     0.37881   0.49339   0.82926   0.00000  Uiso   1.00
H398   H     0.28937   0.54405   0.44072   0.00000  Uiso   1.00
H399   H     0.25709   0.71164   0.61204   0.00000  Uiso   1.00
H400   H     0.12556   0.67297   0.65224   0.00000  Uiso   1.00
H401   H     0.34691   0.72966   0.68109   0.00000  Uiso   1.00
H402   H     0.30449   0.75369   0.49684   0.00000  Uiso   1.00
H403   H     0.97083   0.59637   0.70625   0.00000  Uiso   1.00
H404   H     0.43758   0.71592   0.76707   0.00000  Uiso   1.00
H405   H     0.34814   0.76658   0.37853   0.00000  Uiso   1.00
O406   O     0.85369   0.45497   0.76512   0.00000  Uiso   1.00
O407   O     0.46605   0.61182   0.84490   0.00000  Uiso   1.00
O408   O     0.34870   0.67829   0.33515   0.00000  Uiso   1.00
N409   N     0.94395   0.43152   0.74828   0.00000  Uiso   1.00
N410   N     0.38032   0.54329   0.80515   0.00000  Uiso   1.00
N411   N     0.29672   0.59066   0.44190   0.00000  Uiso   1.00
N412   N     0.97557   0.55126   0.71481   0.00000  Uiso   1.00
N413   N     0.41194   0.66303   0.77168   0.00000  Uiso   1.00
N414   N     0.32833   0.71040   0.40843   0.00000  Uiso   1.00
C415   C     0.76542   0.99687   0.14464   0.00000  Uiso   1.00
C416   C     0.68717   0.95352   0.18264   0.00000  Uiso   1.00
C417   C     0.65763   0.98190   0.20742   0.00000  Uiso   1.00
C418   C     0.58496   0.93325   0.24076   0.00000  Uiso   1.00
C419   C     0.46979   0.87724   0.29854   0.00000  Uiso   1.00
C420   C     0.79579   0.94631   0.17879   0.00000  Uiso   1.00
C421   C     0.85758   0.96862   0.20032   0.00000  Uiso   1.00
C422   C     0.87635   0.91390   0.23042   0.00000  Uiso   1.00
C423   C     0.92984   0.84670   0.28218   0.00000  Uiso   1.00
C424   C     0.76086   0.99699   0.08289   0.00000  Uiso   1.00
C425   C     0.79330   0.06192   0.02378   0.00000  Uiso   1.00
C426   C     0.78267   0.04986   0.97313   0.00000  Uiso   1.00
C427   C     0.78193   0.06135   0.87598   0.00000  Uiso   1.00
C428   C     0.68888   0.86001   0.15980   0.00000  Uiso   1.00
C429   C     0.64560   0.87918   0.19088   0.00000  Uiso   1.00
C430   C     0.57295   0.83048   0.22419   0.00000  Uiso   1.00
C431   C     0.54331   0.85878   0.24901   0.00000  Uiso   1.00
C432   C     0.75422   0.87197   0.18703   0.00000  Uiso   1.00
C433   C     0.77290   0.81720   0.21710   0.00000  Uiso   1.00
C434   C     0.83470   0.83942   0.23867   0.00000  Uiso   1.00
C435   C     0.71928   0.92265   0.09112   0.00000  Uiso   1.00
C436   C     0.70861   0.91049   0.04055   0.00000  Uiso   1.00
C437   C     0.74103   0.97539   0.98138   0.00000  Uiso   1.00
H438   H     0.79779   0.05475   0.13823   0.00000  Uiso   1.00
H439   H     0.68982   0.03943   0.20104   0.00000  Uiso   1.00
H440   H     0.88975   0.02616   0.19394   0.00000  Uiso   1.00
H441   H     0.82546   0.11944   0.01742   0.00000  Uiso   1.00
H442   H     0.55180   0.98966   0.27432   0.00000  Uiso   1.00
H443   H     0.97336   0.96168   0.25933   0.00000  Uiso   1.00
H444   H     0.83781   0.15838   0.88712   0.00000  Uiso   1.00
H445   H     0.65652   0.80213   0.16621   0.00000  Uiso   1.00
H446   H     0.54080   0.77295   0.23056   0.00000  Uiso   1.00
H447   H     0.74072   0.75967   0.22346   0.00000  Uiso   1.00
H448   H     0.67644   0.85295   0.04694   0.00000  Uiso   1.00
H449   H     0.43084   0.77337   0.29828   0.00000  Uiso   1.00
H450   H     0.85241   0.74539   0.28329   0.00000  Uiso   1.00
H451   H     0.71686   0.94209   0.91108   0.00000  Uiso   1.00
O452   O     0.41775   0.86687   0.32814   0.00000  Uiso   1.00
O453   O     0.97083   0.83017   0.30846   0.00000  Uiso   1.00
O454   O     0.79299   0.08823   0.82013   0.00000  Uiso   1.00
N455   N     0.53921   0.94277   0.27112   0.00000  Uiso   1.00
N456   N     0.93334   0.91660   0.25711   0.00000  Uiso   1.00
N457   N     0.80663   0.10050   0.90912   0.00000  Uiso   1.00
N458   N     0.47412   0.82638   0.28401   0.00000  Uiso   1.00
N459   N     0.86825   0.80022   0.27001   0.00000  Uiso   1.00
N460   N     0.74154   0.98411   0.92201   0.00000  Uiso   1.00
C461   C     0.39094   0.10438   0.16258   0.00000  Uiso   1.00
C462   C     0.39247   0.15160   0.19209   0.00000  Uiso   1.00
C463   C     0.44065   0.17520   0.22569   0.00000  Uiso   1.00
C464   C     0.43314   0.21795   0.24890   0.00000  Uiso   1.00
C465   C     0.44368   0.28843   0.29628   0.00000  Uiso   1.00
C466   C     0.31433   0.03319   0.18958   0.00000  Uiso   1.00
C467   C     0.29681   0.95723   0.22106   0.00000  Uiso   1.00
C468   C     0.22352   0.90031   0.24214   0.00000  Uiso   1.00
C469   C     0.11275   0.78695   0.28559   0.00000  Uiso   1.00
C470   C     0.39816   0.15163   0.09336   0.00000  Uiso   1.00
C471   C     0.45111   0.17525   0.04394   0.00000  Uiso   1.00
C472   C     0.44839   0.21804   0.98402   0.00000  Uiso   1.00
C473   C     0.46777   0.28858   0.87808   0.00000  Uiso   1.00
C474   C     0.29193   0.13835   0.14403   0.00000  Uiso   1.00
C475   C     0.33869   0.17005   0.18201   0.00000  Uiso   1.00
C476   C     0.33111   0.21278   0.20517   0.00000  Uiso   1.00
C477   C     0.37927   0.23644   0.23880   0.00000  Uiso   1.00
C478   C     0.26055   0.05164   0.17950   0.00000  Uiso   1.00
C479   C     0.18727   0.99481   0.20054   0.00000  Uiso   1.00
C480   C     0.16965   0.91879   0.23205   0.00000  Uiso   1.00
C481   C     0.34438   0.17009   0.08328   0.00000  Uiso   1.00
C482   C     0.34157   0.21284   0.02343   0.00000  Uiso   1.00
C483   C     0.39451   0.23652   0.97393   0.00000  Uiso   1.00
H484   H     0.43280   0.09001   0.17042   0.00000  Uiso   1.00
H485   H     0.48226   0.16090   0.23348   0.00000  Uiso   1.00
H486   H     0.33844   0.94297   0.22884   0.00000  Uiso   1.00
H487   H     0.49272   0.16096   0.05176   0.00000  Uiso   1.00
H488   H     0.51335   0.24760   0.29898   0.00000  Uiso   1.00
H489   H     0.21011   0.78809   0.28918   0.00000  Uiso   1.00
H490   H     0.53543   0.24776   0.91576   0.00000  Uiso   1.00
H491   H     0.25006   0.15272   0.13618   0.00000  Uiso   1.00
H492   H     0.28949   0.22705   0.19737   0.00000  Uiso   1.00
H493   H     0.14567   0.00912   0.19273   0.00000  Uiso   1.00
H494   H     0.29995   0.22711   0.01565   0.00000  Uiso   1.00
H495   H     0.35689   0.30129   0.26967   0.00000  Uiso   1.00
H496   H     0.05365   0.84177   0.25987   0.00000  Uiso   1.00
H497   H     0.37897   0.30145   0.88645   0.00000  Uiso   1.00
O498   O     0.46434   0.32219   0.32521   0.00000  Uiso   1.00
O499   O     0.06651   0.71932   0.31234   0.00000  Uiso   1.00
O500   O     0.49332   0.32240   0.82242   0.00000  Uiso   1.00
N501   N     0.47113   0.25005   0.28367   0.00000  Uiso   1.00
N502   N     0.18762   0.82043   0.27452   0.00000  Uiso   1.00
N503   N     0.49175   0.25017   0.92540   0.00000  Uiso   1.00
N504   N     0.38694   0.27894   0.26790   0.00000  Uiso   1.00
N505   N     0.10343   0.84932   0.25875   0.00000  Uiso   1.00
N506   N     0.40756   0.27906   0.90963   0.00000  Uiso   1.00
C507   C     0.85524   0.43451   0.18285   0.00000  Uiso   1.00
C508   C     0.90265   0.40159   0.20864   0.00000  Uiso   1.00
C509   C     0.87841   0.32396   0.24533   0.00000  Uiso   1.00
C510   C     0.93034   0.30560   0.26425   0.00000  Uiso   1.00
C511   C     0.99276   0.24577   0.30694   0.00000  Uiso   1.00
C512   C     0.86837   0.49065   0.20605   0.00000  Uiso   1.00
C513   C     0.81531   0.48790   0.24055   0.00000  Uiso   1.00
C514   C     0.83839   0.54453   0.25727   0.00000  Uiso   1.00
C515   C     0.84759   0.62299   0.29590   0.00000  Uiso   1.00
C516   C     0.88744   0.48358   0.11217   0.00000  Uiso   1.00
C517   C     0.85040   0.47489   0.06773   0.00000  Uiso   1.00
C518   C     0.88952   0.52558   0.00540   0.00000  Uiso   1.00
C519   C     0.92832   0.59306   0.89826   0.00000  Uiso   1.00
C520   C     0.99056   0.53998   0.15119   0.00000  Uiso   1.00
C521   C     0.97615   0.45888   0.19145   0.00000  Uiso   1.00
C522   C     0.02813   0.44064   0.21031   0.00000  Uiso   1.00
C523   C     0.00397   0.36299   0.24702   0.00000  Uiso   1.00
C524   C     0.94187   0.54793   0.18885   0.00000  Uiso   1.00
C525   C     0.96503   0.60458   0.20552   0.00000  Uiso   1.00
C526   C     0.91202   0.60191   0.24004   0.00000  Uiso   1.00
C527   C     0.96094   0.54086   0.09497   0.00000  Uiso   1.00
C528   C     0.00012   0.59157   0.03270   0.00000  Uiso   1.00
C529   C     0.96315   0.58296   0.98818   0.00000  Uiso   1.00
H530   H     0.79802   0.38992   0.19624   0.00000  Uiso   1.00
H531   H     0.82153   0.27964   0.25864   0.00000  Uiso   1.00
H532   H     0.75844   0.44357   0.25385   0.00000  Uiso   1.00
H533   H     0.79353   0.43056   0.08105   0.00000  Uiso   1.00
H534   H     0.88000   0.18264   0.32025   0.00000  Uiso   1.00
H535   H     0.74697   0.52830   0.31014   0.00000  Uiso   1.00
H536   H     0.82095   0.50087   0.94576   0.00000  Uiso   1.00
H537   H     0.04779   0.58458   0.13780   0.00000  Uiso   1.00
H538   H     0.08500   0.48498   0.19699   0.00000  Uiso   1.00
H539   H     0.02191   0.64890   0.19220   0.00000  Uiso   1.00
H540   H     0.05699   0.63589   0.01941   0.00000  Uiso   1.00
H541   H     0.09384   0.34930   0.27022   0.00000  Uiso   1.00
H542   H     0.96081   0.69496   0.26010   0.00000  Uiso   1.00
H543   H     0.03480   0.66753   0.89573   0.00000  Uiso   1.00
O544   O     0.00689   0.19694   0.33524   0.00000  Uiso   1.00
O545   O     0.83236   0.65044   0.32196   0.00000  Uiso   1.00
O546   O     0.92942   0.61445   0.84392   0.00000  Uiso   1.00
N547   N     0.92522   0.23553   0.30034   0.00000  Uiso   1.00
N548   N     0.80085   0.55870   0.29089   0.00000  Uiso   1.00
N549   N     0.87001   0.53306   0.95024   0.00000  Uiso   1.00
N550   N     0.04029   0.32521   0.27342   0.00000  Uiso   1.00
N551   N     0.91592   0.64837   0.26397   0.00000  Uiso   1.00
N552   N     0.98508   0.62274   0.92331   0.00000  Uiso   1.00
