data_job_02617
_audit_creation_date              2018-12-19
_audit_creation_method            'Materials Studio'
_symmetry_space_group_name_H-M    'P1'
_symmetry_Int_Tables_number       1
_symmetry_cell_setting            triclinic
loop_
_symmetry_equiv_pos_as_xyz
  x,y,z
_cell_length_a                    37.0714
_cell_length_b                    31.7567
_cell_length_c                    9.6586
_cell_angle_alpha                 90.0000
_cell_angle_beta                  79.5466
_cell_angle_gamma                 90.0000
loop_
_atom_site_label
_atom_site_type_symbol
_atom_site_fract_x
_atom_site_fract_y
_atom_site_fract_z
_atom_site_U_iso_or_equiv
_atom_site_adp_type
_atom_site_occupancy
C1     C     0.13446   0.87984   0.11922   0.00000  Uiso   1.00
C2     C     0.12026   0.91552   0.22015   0.00000  Uiso   1.00
C3     C     0.08368   0.92610   0.26504   0.00000  Uiso   1.00
C4     C     0.07635   0.95979   0.35749   0.00000  Uiso   1.00
C5     C     0.05000   0.01182   0.50719   0.00000  Uiso   1.00
C6     C     0.16099   0.90007   0.99838   0.00000  Uiso   1.00
C7     C     0.15866   0.89765   0.85680   0.00000  Uiso   1.00
C8     C     0.18561   0.91832   0.76256   0.00000  Uiso   1.00
C9     C     0.22251   0.94633   0.56794   0.00000  Uiso   1.00
C10    C     0.15777   0.85204   0.19693   0.00000  Uiso   1.00
C11    C     0.15275   0.80923   0.22226   0.00000  Uiso   1.00
C12    C     0.17701   0.78947   0.29516   0.00000  Uiso   1.00
C13    C     0.20892   0.74290   0.40882   0.00000  Uiso   1.00
C14    C     0.18647   0.92085   0.20359   0.00000  Uiso   1.00
C15    C     0.14851   0.93780   0.26598   0.00000  Uiso   1.00
C16    C     0.14122   0.97148   0.35839   0.00000  Uiso   1.00
C17    C     0.10464   0.98211   0.40340   0.00000  Uiso   1.00
C18    C     0.18924   0.92234   0.04420   0.00000  Uiso   1.00
C19    C     0.21620   0.94302   0.95015   0.00000  Uiso   1.00
C20    C     0.21391   0.94064   0.80847   0.00000  Uiso   1.00
C21    C     0.18602   0.87432   0.24276   0.00000  Uiso   1.00
C22    C     0.21029   0.85461   0.31562   0.00000  Uiso   1.00
C23    C     0.20531   0.81178   0.34106   0.00000  Uiso   1.00
H24    H     0.11247   0.86250   0.08353   0.00000  Uiso   1.00
H25    H     0.06183   0.90886   0.22954   0.00000  Uiso   1.00
H26    H     0.13680   0.88040   0.82136   0.00000  Uiso   1.00
H27    H     0.13089   0.79201   0.18678   0.00000  Uiso   1.00
H28    H     0.01815   0.97009   0.41158   0.00000  Uiso   1.00
H29    H     0.17623   0.91008   0.55092   0.00000  Uiso   1.00
H30    H     0.16377   0.72367   0.32146   0.00000  Uiso   1.00
H31    H     0.20846   0.93820   0.23927   0.00000  Uiso   1.00
H32    H     0.16309   0.98871   0.39383   0.00000  Uiso   1.00
H33    H     0.23806   0.96026   0.98565   0.00000  Uiso   1.00
H34    H     0.23215   0.87186   0.35107   0.00000  Uiso   1.00
H35    H     0.10033   0.03490   0.54493   0.00000  Uiso   1.00
H36    H     0.25841   0.97489   0.68426   0.00000  Uiso   1.00
H37    H     0.24595   0.78849   0.45481   0.00000  Uiso   1.00
O38    O     0.02766   0.03437   0.57708   0.00000  Uiso   1.00
O39    O     0.23506   0.95563   0.44793   0.00000  Uiso   1.00
O40    O     0.21871   0.71107   0.45887   0.00000  Uiso   1.00
N41    N     0.04372   0.97841   0.42178   0.00000  Uiso   1.00
N42    N     0.19151   0.92230   0.61711   0.00000  Uiso   1.00
N43    N     0.17987   0.74803   0.33747   0.00000  Uiso   1.00
N44    N     0.08794   0.01328   0.49353   0.00000  Uiso   1.00
N45    N     0.23573   0.95718   0.68886   0.00000  Uiso   1.00
N46    N     0.22409   0.78290   0.40922   0.00000  Uiso   1.00
C47    C     0.63446   0.37984   0.11922   0.00000  Uiso   1.00
C48    C     0.62026   0.41552   0.22015   0.00000  Uiso   1.00
C49    C     0.58368   0.42610   0.26504   0.00000  Uiso   1.00
C50    C     0.57635   0.45979   0.35749   0.00000  Uiso   1.00
C51    C     0.55000   0.51182   0.50719   0.00000  Uiso   1.00
C52    C     0.66099   0.40007   0.99838   0.00000  Uiso   1.00
C53    C     0.65866   0.39765   0.85680   0.00000  Uiso   1.00
C54    C     0.68561   0.41832   0.76256   0.00000  Uiso   1.00
C55    C     0.72251   0.44633   0.56794   0.00000  Uiso   1.00
C56    C     0.65777   0.35204   0.19693   0.00000  Uiso   1.00
C57    C     0.65275   0.30923   0.22226   0.00000  Uiso   1.00
C58    C     0.67701   0.28947   0.29516   0.00000  Uiso   1.00
C59    C     0.70892   0.24290   0.40882   0.00000  Uiso   1.00
C60    C     0.68647   0.42085   0.20359   0.00000  Uiso   1.00
C61    C     0.64851   0.43780   0.26598   0.00000  Uiso   1.00
C62    C     0.64122   0.47148   0.35839   0.00000  Uiso   1.00
C63    C     0.60464   0.48211   0.40340   0.00000  Uiso   1.00
C64    C     0.68924   0.42234   0.04420   0.00000  Uiso   1.00
C65    C     0.71620   0.44302   0.95015   0.00000  Uiso   1.00
C66    C     0.71391   0.44064   0.80847   0.00000  Uiso   1.00
C67    C     0.68602   0.37432   0.24276   0.00000  Uiso   1.00
C68    C     0.71029   0.35461   0.31562   0.00000  Uiso   1.00
C69    C     0.70531   0.31178   0.34106   0.00000  Uiso   1.00
H70    H     0.61247   0.36250   0.08353   0.00000  Uiso   1.00
H71    H     0.56183   0.40886   0.22954   0.00000  Uiso   1.00
H72    H     0.63680   0.38040   0.82136   0.00000  Uiso   1.00
H73    H     0.63089   0.29201   0.18678   0.00000  Uiso   1.00
H74    H     0.51815   0.47009   0.41158   0.00000  Uiso   1.00
H75    H     0.67623   0.41008   0.55092   0.00000  Uiso   1.00
H76    H     0.66377   0.22367   0.32146   0.00000  Uiso   1.00
H77    H     0.70846   0.43820   0.23927   0.00000  Uiso   1.00
H78    H     0.66309   0.48871   0.39383   0.00000  Uiso   1.00
H79    H     0.73806   0.46026   0.98565   0.00000  Uiso   1.00
H80    H     0.73215   0.37186   0.35107   0.00000  Uiso   1.00
H81    H     0.60033   0.53490   0.54493   0.00000  Uiso   1.00
H82    H     0.75841   0.47489   0.68426   0.00000  Uiso   1.00
H83    H     0.74595   0.28849   0.45481   0.00000  Uiso   1.00
O84    O     0.52766   0.53437   0.57708   0.00000  Uiso   1.00
O85    O     0.73506   0.45563   0.44793   0.00000  Uiso   1.00
O86    O     0.71871   0.21107   0.45887   0.00000  Uiso   1.00
N87    N     0.54372   0.47841   0.42178   0.00000  Uiso   1.00
N88    N     0.69151   0.42230   0.61711   0.00000  Uiso   1.00
N89    N     0.67987   0.24803   0.33747   0.00000  Uiso   1.00
N90    N     0.58794   0.51328   0.49353   0.00000  Uiso   1.00
N91    N     0.73573   0.45718   0.68886   0.00000  Uiso   1.00
N92    N     0.72409   0.28290   0.40922   0.00000  Uiso   1.00
C93    C     0.86554   0.87984   0.38078   0.00000  Uiso   1.00
C94    C     0.87974   0.91552   0.27985   0.00000  Uiso   1.00
C95    C     0.91632   0.92610   0.23496   0.00000  Uiso   1.00
C96    C     0.92365   0.95979   0.14251   0.00000  Uiso   1.00
C97    C     0.95000   0.01182   0.99281   0.00000  Uiso   1.00
C98    C     0.83901   0.90007   0.50162   0.00000  Uiso   1.00
C99    C     0.84134   0.89765   0.64320   0.00000  Uiso   1.00
C100   C     0.81439   0.91832   0.73744   0.00000  Uiso   1.00
C101   C     0.77749   0.94633   0.93206   0.00000  Uiso   1.00
C102   C     0.84223   0.85204   0.30307   0.00000  Uiso   1.00
C103   C     0.84725   0.80923   0.27774   0.00000  Uiso   1.00
C104   C     0.82299   0.78947   0.20484   0.00000  Uiso   1.00
C105   C     0.79108   0.74290   0.09118   0.00000  Uiso   1.00
C106   C     0.81353   0.92085   0.29641   0.00000  Uiso   1.00
C107   C     0.85149   0.93780   0.23402   0.00000  Uiso   1.00
C108   C     0.85878   0.97148   0.14161   0.00000  Uiso   1.00
C109   C     0.89536   0.98211   0.09660   0.00000  Uiso   1.00
C110   C     0.81076   0.92234   0.45580   0.00000  Uiso   1.00
C111   C     0.78380   0.94302   0.54985   0.00000  Uiso   1.00
C112   C     0.78609   0.94064   0.69153   0.00000  Uiso   1.00
C113   C     0.81398   0.87432   0.25724   0.00000  Uiso   1.00
C114   C     0.78971   0.85461   0.18438   0.00000  Uiso   1.00
C115   C     0.79469   0.81178   0.15894   0.00000  Uiso   1.00
H116   H     0.88753   0.86250   0.41647   0.00000  Uiso   1.00
H117   H     0.93817   0.90886   0.27046   0.00000  Uiso   1.00
H118   H     0.86320   0.88040   0.67864   0.00000  Uiso   1.00
H119   H     0.86911   0.79201   0.31322   0.00000  Uiso   1.00
H120   H     0.98185   0.97009   0.08842   0.00000  Uiso   1.00
H121   H     0.82377   0.91008   0.94908   0.00000  Uiso   1.00
H122   H     0.83623   0.72367   0.17854   0.00000  Uiso   1.00
H123   H     0.79154   0.93820   0.26073   0.00000  Uiso   1.00
H124   H     0.83691   0.98871   0.10617   0.00000  Uiso   1.00
H125   H     0.76194   0.96026   0.51435   0.00000  Uiso   1.00
H126   H     0.76785   0.87186   0.14893   0.00000  Uiso   1.00
H127   H     0.89967   0.03490   0.95507   0.00000  Uiso   1.00
H128   H     0.74159   0.97489   0.81574   0.00000  Uiso   1.00
H129   H     0.75405   0.78849   0.04519   0.00000  Uiso   1.00
O130   O     0.97234   0.03437   0.92292   0.00000  Uiso   1.00
O131   O     0.76494   0.95563   0.05207   0.00000  Uiso   1.00
O132   O     0.78129   0.71107   0.04113   0.00000  Uiso   1.00
N133   N     0.95628   0.97841   0.07822   0.00000  Uiso   1.00
N134   N     0.80849   0.92230   0.88289   0.00000  Uiso   1.00
N135   N     0.82013   0.74803   0.16253   0.00000  Uiso   1.00
N136   N     0.91206   0.01328   0.00647   0.00000  Uiso   1.00
N137   N     0.76427   0.95718   0.81114   0.00000  Uiso   1.00
N138   N     0.77591   0.78290   0.09078   0.00000  Uiso   1.00
C139   C     0.36554   0.37984   0.38078   0.00000  Uiso   1.00
C140   C     0.37974   0.41552   0.27985   0.00000  Uiso   1.00
C141   C     0.41632   0.42610   0.23496   0.00000  Uiso   1.00
C142   C     0.42365   0.45979   0.14251   0.00000  Uiso   1.00
C143   C     0.45000   0.51182   0.99281   0.00000  Uiso   1.00
C144   C     0.33901   0.40007   0.50162   0.00000  Uiso   1.00
C145   C     0.34134   0.39765   0.64320   0.00000  Uiso   1.00
C146   C     0.31439   0.41832   0.73744   0.00000  Uiso   1.00
C147   C     0.27749   0.44633   0.93206   0.00000  Uiso   1.00
C148   C     0.34223   0.35204   0.30307   0.00000  Uiso   1.00
C149   C     0.34725   0.30923   0.27774   0.00000  Uiso   1.00
C150   C     0.32299   0.28947   0.20484   0.00000  Uiso   1.00
C151   C     0.29108   0.24290   0.09118   0.00000  Uiso   1.00
C152   C     0.31353   0.42085   0.29641   0.00000  Uiso   1.00
C153   C     0.35149   0.43780   0.23402   0.00000  Uiso   1.00
C154   C     0.35878   0.47148   0.14161   0.00000  Uiso   1.00
C155   C     0.39536   0.48211   0.09660   0.00000  Uiso   1.00
C156   C     0.31076   0.42234   0.45580   0.00000  Uiso   1.00
C157   C     0.28380   0.44302   0.54985   0.00000  Uiso   1.00
C158   C     0.28609   0.44064   0.69153   0.00000  Uiso   1.00
C159   C     0.31398   0.37432   0.25724   0.00000  Uiso   1.00
C160   C     0.28971   0.35461   0.18438   0.00000  Uiso   1.00
C161   C     0.29469   0.31178   0.15894   0.00000  Uiso   1.00
H162   H     0.38753   0.36250   0.41647   0.00000  Uiso   1.00
H163   H     0.43817   0.40886   0.27046   0.00000  Uiso   1.00
H164   H     0.36320   0.38040   0.67864   0.00000  Uiso   1.00
H165   H     0.36911   0.29201   0.31322   0.00000  Uiso   1.00
H166   H     0.48185   0.47009   0.08842   0.00000  Uiso   1.00
H167   H     0.32377   0.41008   0.94908   0.00000  Uiso   1.00
H168   H     0.33623   0.22367   0.17854   0.00000  Uiso   1.00
H169   H     0.29154   0.43820   0.26073   0.00000  Uiso   1.00
H170   H     0.33691   0.48871   0.10617   0.00000  Uiso   1.00
H171   H     0.26194   0.46026   0.51435   0.00000  Uiso   1.00
H172   H     0.26785   0.37186   0.14893   0.00000  Uiso   1.00
H173   H     0.39967   0.53490   0.95507   0.00000  Uiso   1.00
H174   H     0.24159   0.47489   0.81574   0.00000  Uiso   1.00
H175   H     0.25405   0.28849   0.04519   0.00000  Uiso   1.00
O176   O     0.47234   0.53437   0.92292   0.00000  Uiso   1.00
O177   O     0.26494   0.45563   0.05207   0.00000  Uiso   1.00
O178   O     0.28129   0.21107   0.04113   0.00000  Uiso   1.00
N179   N     0.45628   0.47841   0.07822   0.00000  Uiso   1.00
N180   N     0.30849   0.42230   0.88289   0.00000  Uiso   1.00
N181   N     0.32013   0.24803   0.16253   0.00000  Uiso   1.00
N182   N     0.41206   0.51328   0.00647   0.00000  Uiso   1.00
N183   N     0.26427   0.45718   0.81114   0.00000  Uiso   1.00
N184   N     0.27591   0.28290   0.09078   0.00000  Uiso   1.00
C185   C     0.86554   0.12016   0.88078   0.00000  Uiso   1.00
C186   C     0.87974   0.08448   0.77985   0.00000  Uiso   1.00
C187   C     0.91632   0.07390   0.73496   0.00000  Uiso   1.00
C188   C     0.92365   0.04021   0.64251   0.00000  Uiso   1.00
C189   C     0.95000   0.98818   0.49281   0.00000  Uiso   1.00
C190   C     0.83901   0.09993   0.00162   0.00000  Uiso   1.00
C191   C     0.84134   0.10235   0.14320   0.00000  Uiso   1.00
C192   C     0.81439   0.08168   0.23744   0.00000  Uiso   1.00
C193   C     0.77749   0.05367   0.43206   0.00000  Uiso   1.00
C194   C     0.84223   0.14796   0.80307   0.00000  Uiso   1.00
C195   C     0.84725   0.19077   0.77774   0.00000  Uiso   1.00
C196   C     0.82299   0.21053   0.70484   0.00000  Uiso   1.00
C197   C     0.79108   0.25710   0.59118   0.00000  Uiso   1.00
C198   C     0.81353   0.07915   0.79641   0.00000  Uiso   1.00
C199   C     0.85149   0.06220   0.73402   0.00000  Uiso   1.00
C200   C     0.85878   0.02852   0.64161   0.00000  Uiso   1.00
C201   C     0.89536   0.01789   0.59660   0.00000  Uiso   1.00
C202   C     0.81076   0.07766   0.95580   0.00000  Uiso   1.00
C203   C     0.78380   0.05698   0.04985   0.00000  Uiso   1.00
C204   C     0.78609   0.05936   0.19153   0.00000  Uiso   1.00
C205   C     0.81398   0.12568   0.75724   0.00000  Uiso   1.00
C206   C     0.78971   0.14539   0.68438   0.00000  Uiso   1.00
C207   C     0.79469   0.18822   0.65894   0.00000  Uiso   1.00
H208   H     0.88753   0.13750   0.91647   0.00000  Uiso   1.00
H209   H     0.93817   0.09114   0.77046   0.00000  Uiso   1.00
H210   H     0.86320   0.11960   0.17864   0.00000  Uiso   1.00
H211   H     0.86911   0.20799   0.81322   0.00000  Uiso   1.00
H212   H     0.98185   0.02991   0.58842   0.00000  Uiso   1.00
H213   H     0.82377   0.08992   0.44908   0.00000  Uiso   1.00
H214   H     0.83623   0.27633   0.67854   0.00000  Uiso   1.00
H215   H     0.79154   0.06180   0.76073   0.00000  Uiso   1.00
H216   H     0.83691   0.01129   0.60617   0.00000  Uiso   1.00
H217   H     0.76194   0.03974   0.01435   0.00000  Uiso   1.00
H218   H     0.76785   0.12814   0.64893   0.00000  Uiso   1.00
H219   H     0.89967   0.96510   0.45507   0.00000  Uiso   1.00
H220   H     0.74159   0.02511   0.31574   0.00000  Uiso   1.00
H221   H     0.75405   0.21151   0.54519   0.00000  Uiso   1.00
O222   O     0.97234   0.96563   0.42292   0.00000  Uiso   1.00
O223   O     0.76494   0.04437   0.55207   0.00000  Uiso   1.00
O224   O     0.78129   0.28893   0.54113   0.00000  Uiso   1.00
N225   N     0.95628   0.02159   0.57822   0.00000  Uiso   1.00
N226   N     0.80849   0.07770   0.38289   0.00000  Uiso   1.00
N227   N     0.82013   0.25197   0.66253   0.00000  Uiso   1.00
N228   N     0.91206   0.98672   0.50647   0.00000  Uiso   1.00
N229   N     0.76427   0.04282   0.31114   0.00000  Uiso   1.00
N230   N     0.77591   0.21710   0.59078   0.00000  Uiso   1.00
C231   C     0.36554   0.62016   0.88078   0.00000  Uiso   1.00
C232   C     0.37974   0.58448   0.77985   0.00000  Uiso   1.00
C233   C     0.41632   0.57390   0.73496   0.00000  Uiso   1.00
C234   C     0.42365   0.54021   0.64251   0.00000  Uiso   1.00
C235   C     0.45000   0.48818   0.49281   0.00000  Uiso   1.00
C236   C     0.33901   0.59993   0.00162   0.00000  Uiso   1.00
C237   C     0.34134   0.60235   0.14320   0.00000  Uiso   1.00
C238   C     0.31439   0.58168   0.23744   0.00000  Uiso   1.00
C239   C     0.27749   0.55367   0.43206   0.00000  Uiso   1.00
C240   C     0.34223   0.64796   0.80307   0.00000  Uiso   1.00
C241   C     0.34725   0.69077   0.77774   0.00000  Uiso   1.00
C242   C     0.32299   0.71053   0.70484   0.00000  Uiso   1.00
C243   C     0.29108   0.75710   0.59118   0.00000  Uiso   1.00
C244   C     0.31353   0.57915   0.79641   0.00000  Uiso   1.00
C245   C     0.35149   0.56220   0.73402   0.00000  Uiso   1.00
C246   C     0.35878   0.52852   0.64161   0.00000  Uiso   1.00
C247   C     0.39536   0.51789   0.59660   0.00000  Uiso   1.00
C248   C     0.31076   0.57766   0.95580   0.00000  Uiso   1.00
C249   C     0.28380   0.55698   0.04985   0.00000  Uiso   1.00
C250   C     0.28609   0.55936   0.19153   0.00000  Uiso   1.00
C251   C     0.31398   0.62568   0.75724   0.00000  Uiso   1.00
C252   C     0.28971   0.64539   0.68438   0.00000  Uiso   1.00
C253   C     0.29469   0.68822   0.65894   0.00000  Uiso   1.00
H254   H     0.38753   0.63750   0.91647   0.00000  Uiso   1.00
H255   H     0.43817   0.59114   0.77046   0.00000  Uiso   1.00
H256   H     0.36320   0.61960   0.17864   0.00000  Uiso   1.00
H257   H     0.36911   0.70799   0.81322   0.00000  Uiso   1.00
H258   H     0.48185   0.52991   0.58842   0.00000  Uiso   1.00
H259   H     0.32377   0.58992   0.44908   0.00000  Uiso   1.00
H260   H     0.33623   0.77633   0.67854   0.00000  Uiso   1.00
H261   H     0.29154   0.56180   0.76073   0.00000  Uiso   1.00
H262   H     0.33691   0.51129   0.60617   0.00000  Uiso   1.00
H263   H     0.26194   0.53974   0.01435   0.00000  Uiso   1.00
H264   H     0.26785   0.62814   0.64893   0.00000  Uiso   1.00
H265   H     0.39967   0.46510   0.45507   0.00000  Uiso   1.00
H266   H     0.24159   0.52511   0.31574   0.00000  Uiso   1.00
H267   H     0.25405   0.71151   0.54519   0.00000  Uiso   1.00
O268   O     0.47234   0.46563   0.42292   0.00000  Uiso   1.00
O269   O     0.26494   0.54437   0.55207   0.00000  Uiso   1.00
O270   O     0.28129   0.78893   0.54113   0.00000  Uiso   1.00
N271   N     0.45628   0.52159   0.57822   0.00000  Uiso   1.00
N272   N     0.30849   0.57770   0.38289   0.00000  Uiso   1.00
N273   N     0.32013   0.75197   0.66253   0.00000  Uiso   1.00
N274   N     0.41206   0.48672   0.50647   0.00000  Uiso   1.00
N275   N     0.26427   0.54282   0.31114   0.00000  Uiso   1.00
N276   N     0.27591   0.71710   0.59078   0.00000  Uiso   1.00
C277   C     0.13446   0.12016   0.61922   0.00000  Uiso   1.00
C278   C     0.12026   0.08448   0.72015   0.00000  Uiso   1.00
C279   C     0.08368   0.07390   0.76504   0.00000  Uiso   1.00
C280   C     0.07635   0.04021   0.85749   0.00000  Uiso   1.00
C281   C     0.05000   0.98818   0.00719   0.00000  Uiso   1.00
C282   C     0.16099   0.09993   0.49838   0.00000  Uiso   1.00
C283   C     0.15866   0.10235   0.35680   0.00000  Uiso   1.00
C284   C     0.18561   0.08168   0.26256   0.00000  Uiso   1.00
C285   C     0.22251   0.05367   0.06794   0.00000  Uiso   1.00
C286   C     0.15777   0.14796   0.69693   0.00000  Uiso   1.00
C287   C     0.15275   0.19077   0.72226   0.00000  Uiso   1.00
C288   C     0.17701   0.21053   0.79516   0.00000  Uiso   1.00
C289   C     0.20892   0.25710   0.90882   0.00000  Uiso   1.00
C290   C     0.18647   0.07915   0.70359   0.00000  Uiso   1.00
C291   C     0.14851   0.06220   0.76598   0.00000  Uiso   1.00
C292   C     0.14122   0.02852   0.85839   0.00000  Uiso   1.00
C293   C     0.10464   0.01789   0.90340   0.00000  Uiso   1.00
C294   C     0.18924   0.07766   0.54420   0.00000  Uiso   1.00
C295   C     0.21620   0.05698   0.45015   0.00000  Uiso   1.00
C296   C     0.21391   0.05936   0.30847   0.00000  Uiso   1.00
C297   C     0.18602   0.12568   0.74276   0.00000  Uiso   1.00
C298   C     0.21029   0.14539   0.81562   0.00000  Uiso   1.00
C299   C     0.20531   0.18822   0.84106   0.00000  Uiso   1.00
H300   H     0.11247   0.13750   0.58353   0.00000  Uiso   1.00
H301   H     0.06183   0.09114   0.72954   0.00000  Uiso   1.00
H302   H     0.13680   0.11960   0.32136   0.00000  Uiso   1.00
H303   H     0.13089   0.20799   0.68678   0.00000  Uiso   1.00
H304   H     0.01815   0.02991   0.91158   0.00000  Uiso   1.00
H305   H     0.17623   0.08992   0.05092   0.00000  Uiso   1.00
H306   H     0.16377   0.27633   0.82146   0.00000  Uiso   1.00
H307   H     0.20846   0.06180   0.73927   0.00000  Uiso   1.00
H308   H     0.16309   0.01129   0.89383   0.00000  Uiso   1.00
H309   H     0.23806   0.03974   0.48565   0.00000  Uiso   1.00
H310   H     0.23215   0.12814   0.85107   0.00000  Uiso   1.00
H311   H     0.10033   0.96510   0.04493   0.00000  Uiso   1.00
H312   H     0.25841   0.02511   0.18426   0.00000  Uiso   1.00
H313   H     0.24595   0.21151   0.95481   0.00000  Uiso   1.00
O314   O     0.02766   0.96563   0.07708   0.00000  Uiso   1.00
O315   O     0.23506   0.04437   0.94793   0.00000  Uiso   1.00
O316   O     0.21871   0.28893   0.95887   0.00000  Uiso   1.00
N317   N     0.04372   0.02159   0.92178   0.00000  Uiso   1.00
N318   N     0.19151   0.07770   0.11711   0.00000  Uiso   1.00
N319   N     0.17987   0.25197   0.83747   0.00000  Uiso   1.00
N320   N     0.08794   0.98672   0.99353   0.00000  Uiso   1.00
N321   N     0.23573   0.04282   0.18886   0.00000  Uiso   1.00
N322   N     0.22409   0.21710   0.90922   0.00000  Uiso   1.00
C323   C     0.63446   0.62016   0.61922   0.00000  Uiso   1.00
C324   C     0.62026   0.58448   0.72015   0.00000  Uiso   1.00
C325   C     0.58368   0.57390   0.76504   0.00000  Uiso   1.00
C326   C     0.57635   0.54021   0.85749   0.00000  Uiso   1.00
C327   C     0.55000   0.48818   0.00719   0.00000  Uiso   1.00
C328   C     0.66099   0.59993   0.49838   0.00000  Uiso   1.00
C329   C     0.65866   0.60235   0.35680   0.00000  Uiso   1.00
C330   C     0.68561   0.58168   0.26256   0.00000  Uiso   1.00
C331   C     0.72251   0.55367   0.06794   0.00000  Uiso   1.00
C332   C     0.65777   0.64796   0.69693   0.00000  Uiso   1.00
C333   C     0.65275   0.69077   0.72226   0.00000  Uiso   1.00
C334   C     0.67701   0.71053   0.79516   0.00000  Uiso   1.00
C335   C     0.70892   0.75710   0.90882   0.00000  Uiso   1.00
C336   C     0.68647   0.57915   0.70359   0.00000  Uiso   1.00
C337   C     0.64851   0.56220   0.76598   0.00000  Uiso   1.00
C338   C     0.64122   0.52852   0.85839   0.00000  Uiso   1.00
C339   C     0.60464   0.51789   0.90340   0.00000  Uiso   1.00
C340   C     0.68924   0.57766   0.54420   0.00000  Uiso   1.00
C341   C     0.71620   0.55698   0.45015   0.00000  Uiso   1.00
C342   C     0.71391   0.55936   0.30847   0.00000  Uiso   1.00
C343   C     0.68602   0.62568   0.74276   0.00000  Uiso   1.00
C344   C     0.71029   0.64539   0.81562   0.00000  Uiso   1.00
C345   C     0.70531   0.68822   0.84106   0.00000  Uiso   1.00
H346   H     0.61247   0.63750   0.58353   0.00000  Uiso   1.00
H347   H     0.56183   0.59114   0.72954   0.00000  Uiso   1.00
H348   H     0.63680   0.61960   0.32136   0.00000  Uiso   1.00
H349   H     0.63089   0.70799   0.68678   0.00000  Uiso   1.00
H350   H     0.51815   0.52991   0.91158   0.00000  Uiso   1.00
H351   H     0.67623   0.58992   0.05092   0.00000  Uiso   1.00
H352   H     0.66377   0.77633   0.82146   0.00000  Uiso   1.00
H353   H     0.70846   0.56180   0.73927   0.00000  Uiso   1.00
H354   H     0.66309   0.51129   0.89383   0.00000  Uiso   1.00
H355   H     0.73806   0.53974   0.48565   0.00000  Uiso   1.00
H356   H     0.73215   0.62814   0.85107   0.00000  Uiso   1.00
H357   H     0.60033   0.46510   0.04493   0.00000  Uiso   1.00
H358   H     0.75841   0.52511   0.18426   0.00000  Uiso   1.00
H359   H     0.74595   0.71151   0.95481   0.00000  Uiso   1.00
O360   O     0.52766   0.46563   0.07708   0.00000  Uiso   1.00
O361   O     0.73506   0.54437   0.94793   0.00000  Uiso   1.00
O362   O     0.71871   0.78893   0.95887   0.00000  Uiso   1.00
N363   N     0.54372   0.52159   0.92178   0.00000  Uiso   1.00
N364   N     0.69151   0.57770   0.11711   0.00000  Uiso   1.00
N365   N     0.67987   0.75197   0.83747   0.00000  Uiso   1.00
N366   N     0.58794   0.48672   0.99353   0.00000  Uiso   1.00
N367   N     0.73573   0.54282   0.18886   0.00000  Uiso   1.00
N368   N     0.72409   0.71710   0.90922   0.00000  Uiso   1.00
