data_job_03190
_audit_creation_date              2018-12-19
_audit_creation_method            'Materials Studio'
_symmetry_space_group_name_H-M    'P1'
_symmetry_Int_Tables_number       1
_symmetry_cell_setting            triclinic
loop_
_symmetry_equiv_pos_as_xyz
  x,y,z
_cell_length_a                    21.3225
_cell_length_b                    13.7311
_cell_length_c                    23.9172
_cell_angle_alpha                 90.0000
_cell_angle_beta                  90.0000
_cell_angle_gamma                 90.0000
loop_
_atom_site_label
_atom_site_type_symbol
_atom_site_fract_x
_atom_site_fract_y
_atom_site_fract_z
_atom_site_U_iso_or_equiv
_atom_site_adp_type
_atom_site_occupancy
C1     C     0.83471   0.47800   0.11678   0.00000  Uiso   1.00
C2     C     0.86858   0.42519   0.06951   0.00000  Uiso   1.00
C3     C     0.90066   0.46928   0.02584   0.00000  Uiso   1.00
C4     C     0.92849   0.40823   0.98678   0.00000  Uiso   1.00
C5     C     0.98169   0.34166   0.91268   0.00000  Uiso   1.00
C6     C     0.76720   0.44139   0.11557   0.00000  Uiso   1.00
C7     C     0.71406   0.49911   0.11063   0.00000  Uiso   1.00
C8     C     0.65655   0.45169   0.11035   0.00000  Uiso   1.00
C9     C     0.55235   0.41028   0.10781   0.00000  Uiso   1.00
C10    C     0.86310   0.43939   0.17093   0.00000  Uiso   1.00
C11    C     0.89057   0.49543   0.21255   0.00000  Uiso   1.00
C12    C     0.91379   0.44633   0.25889   0.00000  Uiso   1.00
C13    C     0.95849   0.40183   0.34231   0.00000  Uiso   1.00
C14    C     0.82706   0.29116   0.12508   0.00000  Uiso   1.00
C15    C     0.86442   0.32370   0.07402   0.00000  Uiso   1.00
C16    C     0.89221   0.26257   0.03502   0.00000  Uiso   1.00
C17    C     0.92434   0.30656   0.99129   0.00000  Uiso   1.00
C18    C     0.76305   0.33991   0.12008   0.00000  Uiso   1.00
C19    C     0.70560   0.29239   0.11981   0.00000  Uiso   1.00
C20    C     0.65239   0.35002   0.11487   0.00000  Uiso   1.00
C21    C     0.85895   0.33791   0.17544   0.00000  Uiso   1.00
C22    C     0.88212   0.28872   0.22173   0.00000  Uiso   1.00
C23    C     0.90963   0.34467   0.26341   0.00000  Uiso   1.00
H24    H     0.83793   0.55701   0.11327   0.00000  Uiso   1.00
H25    H     0.90386   0.54782   0.02236   0.00000  Uiso   1.00
H26    H     0.71728   0.57764   0.10715   0.00000  Uiso   1.00
H27    H     0.89378   0.57396   0.20905   0.00000  Uiso   1.00
H28    H     0.97510   0.49288   0.92355   0.00000  Uiso   1.00
H29    H     0.58169   0.55575   0.10235   0.00000  Uiso   1.00
H30    H     0.95386   0.54801   0.31723   0.00000  Uiso   1.00
H31    H     0.82383   0.21215   0.12859   0.00000  Uiso   1.00
H32    H     0.88899   0.18404   0.03852   0.00000  Uiso   1.00
H33    H     0.70241   0.21386   0.12330   0.00000  Uiso   1.00
H34    H     0.87890   0.21018   0.22520   0.00000  Uiso   1.00
H35    H     0.96303   0.19762   0.93666   0.00000  Uiso   1.00
H36    H     0.56962   0.26050   0.11546   0.00000  Uiso   1.00
H37    H     0.94179   0.25275   0.33034   0.00000  Uiso   1.00
O38    O     0.01217   0.33298   0.87057   0.00000  Uiso   1.00
O39    O     0.49603   0.41547   0.10516   0.00000  Uiso   1.00
O40    O     0.98430   0.40531   0.38707   0.00000  Uiso   1.00
N41    N     0.96333   0.42725   0.93900   0.00000  Uiso   1.00
N42    N     0.59552   0.48603   0.10616   0.00000  Uiso   1.00
N43    N     0.94344   0.47879   0.30706   0.00000  Uiso   1.00
N44    N     0.95684   0.26837   0.94606   0.00000  Uiso   1.00
N45    N     0.58902   0.32716   0.11321   0.00000  Uiso   1.00
N46    N     0.93695   0.31992   0.31411   0.00000  Uiso   1.00
C47    C     0.66529   0.02200   0.61678   0.00000  Uiso   1.00
C48    C     0.63142   0.07481   0.56951   0.00000  Uiso   1.00
C49    C     0.59934   0.03072   0.52584   0.00000  Uiso   1.00
C50    C     0.57151   0.09177   0.48678   0.00000  Uiso   1.00
C51    C     0.51831   0.15834   0.41268   0.00000  Uiso   1.00
C52    C     0.73280   0.05861   0.61557   0.00000  Uiso   1.00
C53    C     0.78594   0.00089   0.61063   0.00000  Uiso   1.00
C54    C     0.84345   0.04831   0.61035   0.00000  Uiso   1.00
C55    C     0.94765   0.08972   0.60781   0.00000  Uiso   1.00
C56    C     0.63690   0.06061   0.67093   0.00000  Uiso   1.00
C57    C     0.60943   0.00457   0.71255   0.00000  Uiso   1.00
C58    C     0.58621   0.05367   0.75889   0.00000  Uiso   1.00
C59    C     0.54151   0.09817   0.84231   0.00000  Uiso   1.00
C60    C     0.67294   0.20884   0.62508   0.00000  Uiso   1.00
C61    C     0.63558   0.17630   0.57402   0.00000  Uiso   1.00
C62    C     0.60779   0.23743   0.53502   0.00000  Uiso   1.00
C63    C     0.57566   0.19344   0.49129   0.00000  Uiso   1.00
C64    C     0.73695   0.16009   0.62008   0.00000  Uiso   1.00
C65    C     0.79440   0.20761   0.61981   0.00000  Uiso   1.00
C66    C     0.84761   0.14998   0.61487   0.00000  Uiso   1.00
C67    C     0.64105   0.16209   0.67544   0.00000  Uiso   1.00
C68    C     0.61788   0.21128   0.72173   0.00000  Uiso   1.00
C69    C     0.59037   0.15533   0.76341   0.00000  Uiso   1.00
H70    H     0.66207   0.94299   0.61327   0.00000  Uiso   1.00
H71    H     0.59614   0.95218   0.52236   0.00000  Uiso   1.00
H72    H     0.78272   0.92236   0.60715   0.00000  Uiso   1.00
H73    H     0.60622   0.92604   0.70905   0.00000  Uiso   1.00
H74    H     0.52490   0.00712   0.42355   0.00000  Uiso   1.00
H75    H     0.91831   0.94425   0.60235   0.00000  Uiso   1.00
H76    H     0.54614   0.95199   0.81723   0.00000  Uiso   1.00
H77    H     0.67617   0.28785   0.62859   0.00000  Uiso   1.00
H78    H     0.61101   0.31596   0.53852   0.00000  Uiso   1.00
H79    H     0.79759   0.28614   0.62330   0.00000  Uiso   1.00
H80    H     0.62110   0.28982   0.72520   0.00000  Uiso   1.00
H81    H     0.53697   0.30238   0.43666   0.00000  Uiso   1.00
H82    H     0.93038   0.23950   0.61546   0.00000  Uiso   1.00
H83    H     0.55821   0.24725   0.83034   0.00000  Uiso   1.00
O84    O     0.48783   0.16702   0.37057   0.00000  Uiso   1.00
O85    O     0.00397   0.08453   0.60516   0.00000  Uiso   1.00
O86    O     0.51570   0.09469   0.88707   0.00000  Uiso   1.00
N87    N     0.53667   0.07275   0.43900   0.00000  Uiso   1.00
N88    N     0.90448   0.01397   0.60616   0.00000  Uiso   1.00
N89    N     0.55656   0.02121   0.80706   0.00000  Uiso   1.00
N90    N     0.54316   0.23163   0.44606   0.00000  Uiso   1.00
N91    N     0.91098   0.17284   0.61321   0.00000  Uiso   1.00
N92    N     0.56305   0.18008   0.81411   0.00000  Uiso   1.00
C93    C     0.16529   0.47800   0.38322   0.00000  Uiso   1.00
C94    C     0.13142   0.42519   0.43049   0.00000  Uiso   1.00
C95    C     0.09934   0.46928   0.47416   0.00000  Uiso   1.00
C96    C     0.07151   0.40823   0.51322   0.00000  Uiso   1.00
C97    C     0.01831   0.34166   0.58732   0.00000  Uiso   1.00
C98    C     0.23280   0.44139   0.38443   0.00000  Uiso   1.00
C99    C     0.28594   0.49911   0.38937   0.00000  Uiso   1.00
C100   C     0.34345   0.45169   0.38965   0.00000  Uiso   1.00
C101   C     0.44765   0.41028   0.39219   0.00000  Uiso   1.00
C102   C     0.13690   0.43939   0.32907   0.00000  Uiso   1.00
C103   C     0.10943   0.49543   0.28745   0.00000  Uiso   1.00
C104   C     0.08621   0.44633   0.24111   0.00000  Uiso   1.00
C105   C     0.04151   0.40183   0.15769   0.00000  Uiso   1.00
C106   C     0.17294   0.29116   0.37492   0.00000  Uiso   1.00
C107   C     0.13558   0.32370   0.42598   0.00000  Uiso   1.00
C108   C     0.10779   0.26257   0.46498   0.00000  Uiso   1.00
C109   C     0.07566   0.30656   0.50871   0.00000  Uiso   1.00
C110   C     0.23695   0.33991   0.37992   0.00000  Uiso   1.00
C111   C     0.29440   0.29239   0.38019   0.00000  Uiso   1.00
C112   C     0.34761   0.35002   0.38513   0.00000  Uiso   1.00
C113   C     0.14105   0.33791   0.32456   0.00000  Uiso   1.00
C114   C     0.11788   0.28872   0.27827   0.00000  Uiso   1.00
C115   C     0.09037   0.34467   0.23659   0.00000  Uiso   1.00
H116   H     0.16207   0.55701   0.38673   0.00000  Uiso   1.00
H117   H     0.09614   0.54782   0.47764   0.00000  Uiso   1.00
H118   H     0.28272   0.57764   0.39285   0.00000  Uiso   1.00
H119   H     0.10622   0.57396   0.29095   0.00000  Uiso   1.00
H120   H     0.02490   0.49288   0.57645   0.00000  Uiso   1.00
H121   H     0.41831   0.55575   0.39765   0.00000  Uiso   1.00
H122   H     0.04614   0.54801   0.18277   0.00000  Uiso   1.00
H123   H     0.17617   0.21215   0.37141   0.00000  Uiso   1.00
H124   H     0.11101   0.18404   0.46148   0.00000  Uiso   1.00
H125   H     0.29759   0.21386   0.37670   0.00000  Uiso   1.00
H126   H     0.12110   0.21018   0.27480   0.00000  Uiso   1.00
H127   H     0.03697   0.19762   0.56334   0.00000  Uiso   1.00
H128   H     0.43038   0.26050   0.38454   0.00000  Uiso   1.00
H129   H     0.05821   0.25275   0.16966   0.00000  Uiso   1.00
O130   O     0.98783   0.33298   0.62943   0.00000  Uiso   1.00
O131   O     0.50397   0.41547   0.39484   0.00000  Uiso   1.00
O132   O     0.01570   0.40531   0.11293   0.00000  Uiso   1.00
N133   N     0.03667   0.42725   0.56100   0.00000  Uiso   1.00
N134   N     0.40448   0.48603   0.39384   0.00000  Uiso   1.00
N135   N     0.05656   0.47879   0.19294   0.00000  Uiso   1.00
N136   N     0.04316   0.26837   0.55394   0.00000  Uiso   1.00
N137   N     0.41098   0.32716   0.38679   0.00000  Uiso   1.00
N138   N     0.06305   0.31992   0.18589   0.00000  Uiso   1.00
C139   C     0.33471   0.02200   0.88322   0.00000  Uiso   1.00
C140   C     0.36858   0.07481   0.93049   0.00000  Uiso   1.00
C141   C     0.40066   0.03072   0.97416   0.00000  Uiso   1.00
C142   C     0.42849   0.09177   0.01322   0.00000  Uiso   1.00
C143   C     0.48169   0.15834   0.08732   0.00000  Uiso   1.00
C144   C     0.26720   0.05861   0.88443   0.00000  Uiso   1.00
C145   C     0.21406   0.00089   0.88937   0.00000  Uiso   1.00
C146   C     0.15655   0.04831   0.88965   0.00000  Uiso   1.00
C147   C     0.05235   0.08972   0.89219   0.00000  Uiso   1.00
C148   C     0.36310   0.06061   0.82907   0.00000  Uiso   1.00
C149   C     0.39057   0.00457   0.78745   0.00000  Uiso   1.00
C150   C     0.41379   0.05367   0.74111   0.00000  Uiso   1.00
C151   C     0.45849   0.09817   0.65769   0.00000  Uiso   1.00
C152   C     0.32706   0.20884   0.87492   0.00000  Uiso   1.00
C153   C     0.36442   0.17630   0.92598   0.00000  Uiso   1.00
C154   C     0.39221   0.23743   0.96498   0.00000  Uiso   1.00
C155   C     0.42434   0.19344   0.00871   0.00000  Uiso   1.00
C156   C     0.26305   0.16009   0.87992   0.00000  Uiso   1.00
C157   C     0.20560   0.20761   0.88019   0.00000  Uiso   1.00
C158   C     0.15239   0.14998   0.88513   0.00000  Uiso   1.00
C159   C     0.35895   0.16209   0.82456   0.00000  Uiso   1.00
C160   C     0.38212   0.21128   0.77827   0.00000  Uiso   1.00
C161   C     0.40963   0.15533   0.73659   0.00000  Uiso   1.00
H162   H     0.33793   0.94299   0.88673   0.00000  Uiso   1.00
H163   H     0.40386   0.95218   0.97764   0.00000  Uiso   1.00
H164   H     0.21728   0.92236   0.89285   0.00000  Uiso   1.00
H165   H     0.39378   0.92604   0.79095   0.00000  Uiso   1.00
H166   H     0.47510   0.00712   0.07645   0.00000  Uiso   1.00
H167   H     0.08169   0.94425   0.89765   0.00000  Uiso   1.00
H168   H     0.45386   0.95199   0.68277   0.00000  Uiso   1.00
H169   H     0.32383   0.28785   0.87141   0.00000  Uiso   1.00
H170   H     0.38899   0.31596   0.96148   0.00000  Uiso   1.00
H171   H     0.20241   0.28614   0.87670   0.00000  Uiso   1.00
H172   H     0.37890   0.28982   0.77480   0.00000  Uiso   1.00
H173   H     0.46303   0.30238   0.06334   0.00000  Uiso   1.00
H174   H     0.06962   0.23950   0.88454   0.00000  Uiso   1.00
H175   H     0.44179   0.24725   0.66966   0.00000  Uiso   1.00
O176   O     0.51217   0.16702   0.12943   0.00000  Uiso   1.00
O177   O     0.99603   0.08453   0.89484   0.00000  Uiso   1.00
O178   O     0.48430   0.09469   0.61293   0.00000  Uiso   1.00
N179   N     0.46333   0.07275   0.06100   0.00000  Uiso   1.00
N180   N     0.09552   0.01397   0.89384   0.00000  Uiso   1.00
N181   N     0.44344   0.02121   0.69294   0.00000  Uiso   1.00
N182   N     0.45684   0.23163   0.05394   0.00000  Uiso   1.00
N183   N     0.08902   0.17284   0.88679   0.00000  Uiso   1.00
N184   N     0.43695   0.18008   0.68589   0.00000  Uiso   1.00
C185   C     0.16529   0.52200   0.88322   0.00000  Uiso   1.00
C186   C     0.13142   0.57481   0.93049   0.00000  Uiso   1.00
C187   C     0.09934   0.53072   0.97416   0.00000  Uiso   1.00
C188   C     0.07151   0.59177   0.01322   0.00000  Uiso   1.00
C189   C     0.01831   0.65834   0.08732   0.00000  Uiso   1.00
C190   C     0.23280   0.55861   0.88443   0.00000  Uiso   1.00
C191   C     0.28594   0.50089   0.88937   0.00000  Uiso   1.00
C192   C     0.34345   0.54831   0.88965   0.00000  Uiso   1.00
C193   C     0.44765   0.58972   0.89219   0.00000  Uiso   1.00
C194   C     0.13690   0.56061   0.82907   0.00000  Uiso   1.00
C195   C     0.10943   0.50457   0.78745   0.00000  Uiso   1.00
C196   C     0.08621   0.55367   0.74111   0.00000  Uiso   1.00
C197   C     0.04151   0.59817   0.65769   0.00000  Uiso   1.00
C198   C     0.17294   0.70884   0.87492   0.00000  Uiso   1.00
C199   C     0.13558   0.67630   0.92598   0.00000  Uiso   1.00
C200   C     0.10779   0.73743   0.96498   0.00000  Uiso   1.00
C201   C     0.07566   0.69344   0.00871   0.00000  Uiso   1.00
C202   C     0.23695   0.66009   0.87992   0.00000  Uiso   1.00
C203   C     0.29440   0.70761   0.88019   0.00000  Uiso   1.00
C204   C     0.34761   0.64998   0.88513   0.00000  Uiso   1.00
C205   C     0.14105   0.66209   0.82456   0.00000  Uiso   1.00
C206   C     0.11788   0.71128   0.77827   0.00000  Uiso   1.00
C207   C     0.09037   0.65533   0.73659   0.00000  Uiso   1.00
H208   H     0.16207   0.44299   0.88673   0.00000  Uiso   1.00
H209   H     0.09614   0.45218   0.97764   0.00000  Uiso   1.00
H210   H     0.28272   0.42236   0.89285   0.00000  Uiso   1.00
H211   H     0.10622   0.42604   0.79095   0.00000  Uiso   1.00
H212   H     0.02490   0.50712   0.07645   0.00000  Uiso   1.00
H213   H     0.41831   0.44425   0.89765   0.00000  Uiso   1.00
H214   H     0.04614   0.45199   0.68277   0.00000  Uiso   1.00
H215   H     0.17617   0.78785   0.87141   0.00000  Uiso   1.00
H216   H     0.11101   0.81596   0.96148   0.00000  Uiso   1.00
H217   H     0.29759   0.78614   0.87670   0.00000  Uiso   1.00
H218   H     0.12110   0.78982   0.77480   0.00000  Uiso   1.00
H219   H     0.03697   0.80238   0.06334   0.00000  Uiso   1.00
H220   H     0.43038   0.73950   0.88454   0.00000  Uiso   1.00
H221   H     0.05821   0.74725   0.66966   0.00000  Uiso   1.00
O222   O     0.98783   0.66702   0.12943   0.00000  Uiso   1.00
O223   O     0.50397   0.58453   0.89484   0.00000  Uiso   1.00
O224   O     0.01570   0.59469   0.61293   0.00000  Uiso   1.00
N225   N     0.03667   0.57275   0.06100   0.00000  Uiso   1.00
N226   N     0.40448   0.51397   0.89384   0.00000  Uiso   1.00
N227   N     0.05656   0.52121   0.69294   0.00000  Uiso   1.00
N228   N     0.04316   0.73163   0.05394   0.00000  Uiso   1.00
N229   N     0.41098   0.67284   0.88679   0.00000  Uiso   1.00
N230   N     0.06305   0.68008   0.68589   0.00000  Uiso   1.00
C231   C     0.33471   0.97800   0.38322   0.00000  Uiso   1.00
C232   C     0.36858   0.92519   0.43049   0.00000  Uiso   1.00
C233   C     0.40066   0.96928   0.47416   0.00000  Uiso   1.00
C234   C     0.42849   0.90823   0.51322   0.00000  Uiso   1.00
C235   C     0.48169   0.84166   0.58732   0.00000  Uiso   1.00
C236   C     0.26720   0.94139   0.38443   0.00000  Uiso   1.00
C237   C     0.21406   0.99911   0.38937   0.00000  Uiso   1.00
C238   C     0.15655   0.95169   0.38965   0.00000  Uiso   1.00
C239   C     0.05235   0.91028   0.39219   0.00000  Uiso   1.00
C240   C     0.36310   0.93939   0.32907   0.00000  Uiso   1.00
C241   C     0.39057   0.99543   0.28745   0.00000  Uiso   1.00
C242   C     0.41379   0.94633   0.24111   0.00000  Uiso   1.00
C243   C     0.45849   0.90183   0.15769   0.00000  Uiso   1.00
C244   C     0.32706   0.79116   0.37492   0.00000  Uiso   1.00
C245   C     0.36442   0.82370   0.42598   0.00000  Uiso   1.00
C246   C     0.39221   0.76257   0.46498   0.00000  Uiso   1.00
C247   C     0.42434   0.80656   0.50871   0.00000  Uiso   1.00
C248   C     0.26305   0.83991   0.37992   0.00000  Uiso   1.00
C249   C     0.20560   0.79239   0.38019   0.00000  Uiso   1.00
C250   C     0.15239   0.85002   0.38513   0.00000  Uiso   1.00
C251   C     0.35895   0.83791   0.32456   0.00000  Uiso   1.00
C252   C     0.38212   0.78872   0.27827   0.00000  Uiso   1.00
C253   C     0.40963   0.84467   0.23659   0.00000  Uiso   1.00
H254   H     0.33793   0.05701   0.38673   0.00000  Uiso   1.00
H255   H     0.40386   0.04782   0.47764   0.00000  Uiso   1.00
H256   H     0.21728   0.07764   0.39285   0.00000  Uiso   1.00
H257   H     0.39378   0.07396   0.29095   0.00000  Uiso   1.00
H258   H     0.47510   0.99288   0.57645   0.00000  Uiso   1.00
H259   H     0.08169   0.05575   0.39765   0.00000  Uiso   1.00
H260   H     0.45386   0.04801   0.18277   0.00000  Uiso   1.00
H261   H     0.32383   0.71215   0.37141   0.00000  Uiso   1.00
H262   H     0.38899   0.68404   0.46148   0.00000  Uiso   1.00
H263   H     0.20241   0.71386   0.37670   0.00000  Uiso   1.00
H264   H     0.37890   0.71018   0.27480   0.00000  Uiso   1.00
H265   H     0.46303   0.69762   0.56334   0.00000  Uiso   1.00
H266   H     0.06962   0.76050   0.38454   0.00000  Uiso   1.00
H267   H     0.44179   0.75275   0.16966   0.00000  Uiso   1.00
O268   O     0.51217   0.83298   0.62943   0.00000  Uiso   1.00
O269   O     0.99603   0.91547   0.39484   0.00000  Uiso   1.00
O270   O     0.48430   0.90531   0.11293   0.00000  Uiso   1.00
N271   N     0.46333   0.92725   0.56100   0.00000  Uiso   1.00
N272   N     0.09552   0.98603   0.39384   0.00000  Uiso   1.00
N273   N     0.44344   0.97879   0.19294   0.00000  Uiso   1.00
N274   N     0.45684   0.76837   0.55394   0.00000  Uiso   1.00
N275   N     0.08902   0.82716   0.38679   0.00000  Uiso   1.00
N276   N     0.43695   0.81992   0.18589   0.00000  Uiso   1.00
C277   C     0.83471   0.52200   0.61678   0.00000  Uiso   1.00
C278   C     0.86858   0.57481   0.56951   0.00000  Uiso   1.00
C279   C     0.90066   0.53072   0.52584   0.00000  Uiso   1.00
C280   C     0.92849   0.59177   0.48678   0.00000  Uiso   1.00
C281   C     0.98169   0.65834   0.41268   0.00000  Uiso   1.00
C282   C     0.76720   0.55861   0.61557   0.00000  Uiso   1.00
C283   C     0.71406   0.50089   0.61063   0.00000  Uiso   1.00
C284   C     0.65655   0.54831   0.61035   0.00000  Uiso   1.00
C285   C     0.55235   0.58972   0.60781   0.00000  Uiso   1.00
C286   C     0.86310   0.56061   0.67093   0.00000  Uiso   1.00
C287   C     0.89057   0.50457   0.71255   0.00000  Uiso   1.00
C288   C     0.91379   0.55367   0.75889   0.00000  Uiso   1.00
C289   C     0.95849   0.59817   0.84231   0.00000  Uiso   1.00
C290   C     0.82706   0.70884   0.62508   0.00000  Uiso   1.00
C291   C     0.86442   0.67630   0.57402   0.00000  Uiso   1.00
C292   C     0.89221   0.73743   0.53502   0.00000  Uiso   1.00
C293   C     0.92434   0.69344   0.49129   0.00000  Uiso   1.00
C294   C     0.76305   0.66009   0.62008   0.00000  Uiso   1.00
C295   C     0.70560   0.70761   0.61981   0.00000  Uiso   1.00
C296   C     0.65239   0.64998   0.61487   0.00000  Uiso   1.00
C297   C     0.85895   0.66209   0.67544   0.00000  Uiso   1.00
C298   C     0.88212   0.71128   0.72173   0.00000  Uiso   1.00
C299   C     0.90963   0.65533   0.76341   0.00000  Uiso   1.00
H300   H     0.83793   0.44299   0.61327   0.00000  Uiso   1.00
H301   H     0.90386   0.45218   0.52236   0.00000  Uiso   1.00
H302   H     0.71728   0.42236   0.60715   0.00000  Uiso   1.00
H303   H     0.89378   0.42604   0.70905   0.00000  Uiso   1.00
H304   H     0.97510   0.50712   0.42355   0.00000  Uiso   1.00
H305   H     0.58169   0.44425   0.60235   0.00000  Uiso   1.00
H306   H     0.95386   0.45199   0.81723   0.00000  Uiso   1.00
H307   H     0.82383   0.78785   0.62859   0.00000  Uiso   1.00
H308   H     0.88899   0.81596   0.53852   0.00000  Uiso   1.00
H309   H     0.70241   0.78614   0.62330   0.00000  Uiso   1.00
H310   H     0.87890   0.78982   0.72520   0.00000  Uiso   1.00
H311   H     0.96303   0.80238   0.43666   0.00000  Uiso   1.00
H312   H     0.56962   0.73950   0.61546   0.00000  Uiso   1.00
H313   H     0.94179   0.74725   0.83034   0.00000  Uiso   1.00
O314   O     0.01217   0.66702   0.37057   0.00000  Uiso   1.00
O315   O     0.49603   0.58453   0.60516   0.00000  Uiso   1.00
O316   O     0.98430   0.59469   0.88707   0.00000  Uiso   1.00
N317   N     0.96333   0.57275   0.43900   0.00000  Uiso   1.00
N318   N     0.59552   0.51397   0.60616   0.00000  Uiso   1.00
N319   N     0.94344   0.52121   0.80706   0.00000  Uiso   1.00
N320   N     0.95684   0.73163   0.44606   0.00000  Uiso   1.00
N321   N     0.58902   0.67284   0.61321   0.00000  Uiso   1.00
N322   N     0.93695   0.68008   0.81411   0.00000  Uiso   1.00
C323   C     0.66529   0.97800   0.11678   0.00000  Uiso   1.00
C324   C     0.63142   0.92519   0.06951   0.00000  Uiso   1.00
C325   C     0.59934   0.96928   0.02584   0.00000  Uiso   1.00
C326   C     0.57151   0.90823   0.98678   0.00000  Uiso   1.00
C327   C     0.51831   0.84166   0.91268   0.00000  Uiso   1.00
C328   C     0.73280   0.94139   0.11557   0.00000  Uiso   1.00
C329   C     0.78594   0.99911   0.11063   0.00000  Uiso   1.00
C330   C     0.84345   0.95169   0.11035   0.00000  Uiso   1.00
C331   C     0.94765   0.91028   0.10781   0.00000  Uiso   1.00
C332   C     0.63690   0.93939   0.17093   0.00000  Uiso   1.00
C333   C     0.60943   0.99543   0.21255   0.00000  Uiso   1.00
C334   C     0.58621   0.94633   0.25889   0.00000  Uiso   1.00
C335   C     0.54151   0.90183   0.34231   0.00000  Uiso   1.00
C336   C     0.67294   0.79116   0.12508   0.00000  Uiso   1.00
C337   C     0.63558   0.82370   0.07402   0.00000  Uiso   1.00
C338   C     0.60779   0.76257   0.03502   0.00000  Uiso   1.00
C339   C     0.57566   0.80656   0.99129   0.00000  Uiso   1.00
C340   C     0.73695   0.83991   0.12008   0.00000  Uiso   1.00
C341   C     0.79440   0.79239   0.11981   0.00000  Uiso   1.00
C342   C     0.84761   0.85002   0.11487   0.00000  Uiso   1.00
C343   C     0.64105   0.83791   0.17544   0.00000  Uiso   1.00
C344   C     0.61788   0.78872   0.22173   0.00000  Uiso   1.00
C345   C     0.59037   0.84467   0.26341   0.00000  Uiso   1.00
H346   H     0.66207   0.05701   0.11327   0.00000  Uiso   1.00
H347   H     0.59614   0.04782   0.02236   0.00000  Uiso   1.00
H348   H     0.78272   0.07764   0.10715   0.00000  Uiso   1.00
H349   H     0.60622   0.07396   0.20905   0.00000  Uiso   1.00
H350   H     0.52490   0.99288   0.92355   0.00000  Uiso   1.00
H351   H     0.91831   0.05575   0.10235   0.00000  Uiso   1.00
H352   H     0.54614   0.04801   0.31723   0.00000  Uiso   1.00
H353   H     0.67617   0.71215   0.12859   0.00000  Uiso   1.00
H354   H     0.61101   0.68404   0.03852   0.00000  Uiso   1.00
H355   H     0.79759   0.71386   0.12330   0.00000  Uiso   1.00
H356   H     0.62110   0.71018   0.22520   0.00000  Uiso   1.00
H357   H     0.53697   0.69762   0.93666   0.00000  Uiso   1.00
H358   H     0.93038   0.76050   0.11546   0.00000  Uiso   1.00
H359   H     0.55821   0.75275   0.33034   0.00000  Uiso   1.00
O360   O     0.48783   0.83298   0.87057   0.00000  Uiso   1.00
O361   O     0.00397   0.91547   0.10516   0.00000  Uiso   1.00
O362   O     0.51570   0.90531   0.38707   0.00000  Uiso   1.00
N363   N     0.53667   0.92725   0.93900   0.00000  Uiso   1.00
N364   N     0.90448   0.98603   0.10616   0.00000  Uiso   1.00
N365   N     0.55656   0.97879   0.30706   0.00000  Uiso   1.00
N366   N     0.54316   0.76837   0.94606   0.00000  Uiso   1.00
N367   N     0.91098   0.82716   0.11321   0.00000  Uiso   1.00
N368   N     0.56305   0.81992   0.31411   0.00000  Uiso   1.00
