data_job_02668
_audit_creation_date              2018-12-19
_audit_creation_method            'Materials Studio'
_symmetry_space_group_name_H-M    'P1'
_symmetry_Int_Tables_number       1
_symmetry_cell_setting            triclinic
loop_
_symmetry_equiv_pos_as_xyz
  x,y,z
_cell_length_a                    20.3342
_cell_length_b                    7.2192
_cell_length_c                    26.2458
_cell_angle_alpha                 90.0000
_cell_angle_beta                  143.0670
_cell_angle_gamma                 90.0000
loop_
_atom_site_label
_atom_site_type_symbol
_atom_site_fract_x
_atom_site_fract_y
_atom_site_fract_z
_atom_site_U_iso_or_equiv
_atom_site_adp_type
_atom_site_occupancy
C1     C     0.37051   0.96316   0.78978   0.00000  Uiso   1.00
C2     C     0.27421   0.92997   0.69433   0.00000  Uiso   1.00
C3     C     0.22796   0.06049   0.63338   0.00000  Uiso   1.00
C4     C     0.14037   0.00287   0.54940   0.00000  Uiso   1.00
C5     C     0.99685   0.97899   0.40455   0.00000  Uiso   1.00
C6     C     0.33034   0.91099   0.81801   0.00000  Uiso   1.00
C7     C     0.33131   0.02556   0.86106   0.00000  Uiso   1.00
C8     C     0.29097   0.95194   0.88120   0.00000  Uiso   1.00
C9     C     0.23468   0.89856   0.92843   0.00000  Uiso   1.00
C10    C     0.45673   0.81931   0.82906   0.00000  Uiso   1.00
C11    C     0.56398   0.85678   0.88143   0.00000  Uiso   1.00
C12    C     0.63006   0.70596   0.91090   0.00000  Uiso   1.00
C13    C     0.77000   0.51024   0.97528   0.00000  Uiso   1.00
C14    C     0.29718   0.62869   0.74900   0.00000  Uiso   1.00
C15    C     0.23438   0.74830   0.67218   0.00000  Uiso   1.00
C16    C     0.14683   0.69045   0.58827   0.00000  Uiso   1.00
C17    C     0.10047   0.82087   0.52721   0.00000  Uiso   1.00
C18    C     0.29051   0.72933   0.79586   0.00000  Uiso   1.00
C19    C     0.25017   0.65551   0.81595   0.00000  Uiso   1.00
C20    C     0.25107   0.76994   0.85902   0.00000  Uiso   1.00
C21    C     0.41690   0.63764   0.80691   0.00000  Uiso   1.00
C22    C     0.48284   0.48673   0.83631   0.00000  Uiso   1.00
C23    C     0.59016   0.52397   0.88871   0.00000  Uiso   1.00
H24    H     0.40152   0.10459   0.80703   0.00000  Uiso   1.00
H25    H     0.25881   0.20108   0.65055   0.00000  Uiso   1.00
H26    H     0.36214   0.16613   0.87820   0.00000  Uiso   1.00
H27    H     0.59477   0.99738   0.89856   0.00000  Uiso   1.00
H28    H     0.08299   0.22795   0.46730   0.00000  Uiso   1.00
H29    H     0.30091   0.15425   0.94734   0.00000  Uiso   1.00
H30    H     0.79145   0.79841   0.99027   0.00000  Uiso   1.00
H31    H     0.26617   0.48725   0.73176   0.00000  Uiso   1.00
H32    H     0.11603   0.54985   0.57115   0.00000  Uiso   1.00
H33    H     0.21936   0.51492   0.79880   0.00000  Uiso   1.00
H34    H     0.45199   0.34617   0.81916   0.00000  Uiso   1.00
H35    H     0.96710   0.69940   0.40285   0.00000  Uiso   1.00
H36    H     0.18503   0.62570   0.88290   0.00000  Uiso   1.00
H37    H     0.67557   0.26986   0.92582   0.00000  Uiso   1.00
O38    O     0.92869   0.01602   0.33078   0.00000  Uiso   1.00
O39    O     0.21462   0.91932   0.96059   0.00000  Uiso   1.00
O40    O     0.85819   0.45247   0.01690   0.00000  Uiso   1.00
N41    N     0.07633   0.09495   0.47417   0.00000  Uiso   1.00
N42    N     0.28006   0.02606   0.92297   0.00000  Uiso   1.00
N43    N     0.73869   0.69338   0.96313   0.00000  Uiso   1.00
N44    N     0.01397   0.81054   0.43950   0.00000  Uiso   1.00
N45    N     0.21771   0.74165   0.88829   0.00000  Uiso   1.00
N46    N     0.67633   0.40897   0.92845   0.00000  Uiso   1.00
C47    C     0.62949   0.96316   0.71022   0.00000  Uiso   1.00
C48    C     0.72579   0.92997   0.80567   0.00000  Uiso   1.00
C49    C     0.77204   0.06049   0.86662   0.00000  Uiso   1.00
C50    C     0.85963   0.00287   0.95060   0.00000  Uiso   1.00
C51    C     0.00315   0.97899   0.09545   0.00000  Uiso   1.00
C52    C     0.66966   0.91099   0.68199   0.00000  Uiso   1.00
C53    C     0.66869   0.02556   0.63894   0.00000  Uiso   1.00
C54    C     0.70903   0.95194   0.61880   0.00000  Uiso   1.00
C55    C     0.76532   0.89856   0.57157   0.00000  Uiso   1.00
C56    C     0.54327   0.81931   0.67094   0.00000  Uiso   1.00
C57    C     0.43602   0.85678   0.61857   0.00000  Uiso   1.00
C58    C     0.36994   0.70596   0.58910   0.00000  Uiso   1.00
C59    C     0.23000   0.51024   0.52472   0.00000  Uiso   1.00
C60    C     0.70282   0.62869   0.75100   0.00000  Uiso   1.00
C61    C     0.76562   0.74830   0.82782   0.00000  Uiso   1.00
C62    C     0.85317   0.69045   0.91173   0.00000  Uiso   1.00
C63    C     0.89953   0.82087   0.97279   0.00000  Uiso   1.00
C64    C     0.70949   0.72933   0.70414   0.00000  Uiso   1.00
C65    C     0.74983   0.65551   0.68405   0.00000  Uiso   1.00
C66    C     0.74893   0.76994   0.64098   0.00000  Uiso   1.00
C67    C     0.58310   0.63764   0.69309   0.00000  Uiso   1.00
C68    C     0.51716   0.48673   0.66369   0.00000  Uiso   1.00
C69    C     0.40984   0.52397   0.61129   0.00000  Uiso   1.00
H70    H     0.59848   0.10459   0.69297   0.00000  Uiso   1.00
H71    H     0.74119   0.20108   0.84945   0.00000  Uiso   1.00
H72    H     0.63786   0.16613   0.62180   0.00000  Uiso   1.00
H73    H     0.40523   0.99738   0.60144   0.00000  Uiso   1.00
H74    H     0.91701   0.22795   0.03270   0.00000  Uiso   1.00
H75    H     0.69909   0.15425   0.55266   0.00000  Uiso   1.00
H76    H     0.20855   0.79841   0.50973   0.00000  Uiso   1.00
H77    H     0.73383   0.48725   0.76824   0.00000  Uiso   1.00
H78    H     0.88397   0.54985   0.92885   0.00000  Uiso   1.00
H79    H     0.78064   0.51492   0.70120   0.00000  Uiso   1.00
H80    H     0.54801   0.34617   0.68084   0.00000  Uiso   1.00
H81    H     0.03290   0.69940   0.09715   0.00000  Uiso   1.00
H82    H     0.81497   0.62570   0.61710   0.00000  Uiso   1.00
H83    H     0.32443   0.26986   0.57418   0.00000  Uiso   1.00
O84    O     0.07131   0.01602   0.16922   0.00000  Uiso   1.00
O85    O     0.78538   0.91932   0.53941   0.00000  Uiso   1.00
O86    O     0.14181   0.45247   0.48310   0.00000  Uiso   1.00
N87    N     0.92367   0.09495   0.02583   0.00000  Uiso   1.00
N88    N     0.71994   0.02606   0.57703   0.00000  Uiso   1.00
N89    N     0.26131   0.69338   0.53687   0.00000  Uiso   1.00
N90    N     0.98603   0.81054   0.06050   0.00000  Uiso   1.00
N91    N     0.78229   0.74165   0.61171   0.00000  Uiso   1.00
N92    N     0.32367   0.40897   0.57155   0.00000  Uiso   1.00
C93    C     0.62949   0.03684   0.21022   0.00000  Uiso   1.00
C94    C     0.72579   0.07003   0.30567   0.00000  Uiso   1.00
C95    C     0.77204   0.93951   0.36662   0.00000  Uiso   1.00
C96    C     0.85963   0.99713   0.45060   0.00000  Uiso   1.00
C97    C     0.00315   0.02101   0.59545   0.00000  Uiso   1.00
C98    C     0.66966   0.08901   0.18199   0.00000  Uiso   1.00
C99    C     0.66869   0.97444   0.13894   0.00000  Uiso   1.00
C100   C     0.70903   0.04806   0.11880   0.00000  Uiso   1.00
C101   C     0.76532   0.10144   0.07157   0.00000  Uiso   1.00
C102   C     0.54327   0.18069   0.17094   0.00000  Uiso   1.00
C103   C     0.43602   0.14322   0.11857   0.00000  Uiso   1.00
C104   C     0.36994   0.29404   0.08910   0.00000  Uiso   1.00
C105   C     0.23000   0.48976   0.02472   0.00000  Uiso   1.00
C106   C     0.70282   0.37131   0.25100   0.00000  Uiso   1.00
C107   C     0.76562   0.25170   0.32782   0.00000  Uiso   1.00
C108   C     0.85317   0.30955   0.41173   0.00000  Uiso   1.00
C109   C     0.89953   0.17913   0.47279   0.00000  Uiso   1.00
C110   C     0.70949   0.27067   0.20414   0.00000  Uiso   1.00
C111   C     0.74983   0.34449   0.18405   0.00000  Uiso   1.00
C112   C     0.74893   0.23006   0.14098   0.00000  Uiso   1.00
C113   C     0.58310   0.36236   0.19309   0.00000  Uiso   1.00
C114   C     0.51716   0.51327   0.16369   0.00000  Uiso   1.00
C115   C     0.40984   0.47603   0.11129   0.00000  Uiso   1.00
H116   H     0.59848   0.89541   0.19297   0.00000  Uiso   1.00
H117   H     0.74119   0.79892   0.34945   0.00000  Uiso   1.00
H118   H     0.63786   0.83387   0.12180   0.00000  Uiso   1.00
H119   H     0.40523   0.00262   0.10144   0.00000  Uiso   1.00
H120   H     0.91701   0.77205   0.53270   0.00000  Uiso   1.00
H121   H     0.69909   0.84575   0.05266   0.00000  Uiso   1.00
H122   H     0.20855   0.20159   0.00973   0.00000  Uiso   1.00
H123   H     0.73383   0.51275   0.26824   0.00000  Uiso   1.00
H124   H     0.88397   0.45015   0.42885   0.00000  Uiso   1.00
H125   H     0.78064   0.48508   0.20120   0.00000  Uiso   1.00
H126   H     0.54801   0.65383   0.18084   0.00000  Uiso   1.00
H127   H     0.03290   0.30060   0.59715   0.00000  Uiso   1.00
H128   H     0.81497   0.37430   0.11710   0.00000  Uiso   1.00
H129   H     0.32443   0.73014   0.07418   0.00000  Uiso   1.00
O130   O     0.07131   0.98398   0.66922   0.00000  Uiso   1.00
O131   O     0.78538   0.08068   0.03941   0.00000  Uiso   1.00
O132   O     0.14181   0.54753   0.98310   0.00000  Uiso   1.00
N133   N     0.92367   0.90505   0.52583   0.00000  Uiso   1.00
N134   N     0.71994   0.97394   0.07703   0.00000  Uiso   1.00
N135   N     0.26131   0.30662   0.03687   0.00000  Uiso   1.00
N136   N     0.98603   0.18946   0.56050   0.00000  Uiso   1.00
N137   N     0.78229   0.25835   0.11171   0.00000  Uiso   1.00
N138   N     0.32367   0.59103   0.07155   0.00000  Uiso   1.00
C139   C     0.37051   0.03684   0.28978   0.00000  Uiso   1.00
C140   C     0.27421   0.07003   0.19433   0.00000  Uiso   1.00
C141   C     0.22796   0.93951   0.13338   0.00000  Uiso   1.00
C142   C     0.14037   0.99713   0.04940   0.00000  Uiso   1.00
C143   C     0.99685   0.02101   0.90455   0.00000  Uiso   1.00
C144   C     0.33034   0.08901   0.31801   0.00000  Uiso   1.00
C145   C     0.33131   0.97444   0.36106   0.00000  Uiso   1.00
C146   C     0.29097   0.04806   0.38120   0.00000  Uiso   1.00
C147   C     0.23468   0.10144   0.42843   0.00000  Uiso   1.00
C148   C     0.45673   0.18069   0.32906   0.00000  Uiso   1.00
C149   C     0.56398   0.14322   0.38143   0.00000  Uiso   1.00
C150   C     0.63006   0.29404   0.41090   0.00000  Uiso   1.00
C151   C     0.77000   0.48976   0.47528   0.00000  Uiso   1.00
C152   C     0.29718   0.37131   0.24900   0.00000  Uiso   1.00
C153   C     0.23438   0.25170   0.17218   0.00000  Uiso   1.00
C154   C     0.14683   0.30955   0.08827   0.00000  Uiso   1.00
C155   C     0.10047   0.17913   0.02721   0.00000  Uiso   1.00
C156   C     0.29051   0.27067   0.29586   0.00000  Uiso   1.00
C157   C     0.25017   0.34449   0.31595   0.00000  Uiso   1.00
C158   C     0.25107   0.23006   0.35902   0.00000  Uiso   1.00
C159   C     0.41690   0.36236   0.30691   0.00000  Uiso   1.00
C160   C     0.48284   0.51327   0.33631   0.00000  Uiso   1.00
C161   C     0.59016   0.47603   0.38871   0.00000  Uiso   1.00
H162   H     0.40152   0.89541   0.30703   0.00000  Uiso   1.00
H163   H     0.25881   0.79892   0.15055   0.00000  Uiso   1.00
H164   H     0.36214   0.83387   0.37820   0.00000  Uiso   1.00
H165   H     0.59477   0.00262   0.39856   0.00000  Uiso   1.00
H166   H     0.08299   0.77205   0.96730   0.00000  Uiso   1.00
H167   H     0.30091   0.84575   0.44734   0.00000  Uiso   1.00
H168   H     0.79145   0.20159   0.49027   0.00000  Uiso   1.00
H169   H     0.26617   0.51275   0.23176   0.00000  Uiso   1.00
H170   H     0.11603   0.45015   0.07115   0.00000  Uiso   1.00
H171   H     0.21936   0.48508   0.29880   0.00000  Uiso   1.00
H172   H     0.45199   0.65383   0.31916   0.00000  Uiso   1.00
H173   H     0.96710   0.30060   0.90285   0.00000  Uiso   1.00
H174   H     0.18503   0.37430   0.38290   0.00000  Uiso   1.00
H175   H     0.67557   0.73014   0.42582   0.00000  Uiso   1.00
O176   O     0.92869   0.98398   0.83078   0.00000  Uiso   1.00
O177   O     0.21462   0.08068   0.46059   0.00000  Uiso   1.00
O178   O     0.85819   0.54753   0.51690   0.00000  Uiso   1.00
N179   N     0.07633   0.90505   0.97417   0.00000  Uiso   1.00
N180   N     0.28006   0.97394   0.42297   0.00000  Uiso   1.00
N181   N     0.73869   0.30662   0.46313   0.00000  Uiso   1.00
N182   N     0.01397   0.18946   0.93950   0.00000  Uiso   1.00
N183   N     0.21771   0.25835   0.38829   0.00000  Uiso   1.00
N184   N     0.67633   0.59103   0.42845   0.00000  Uiso   1.00
