data_job_02076
_audit_creation_date              2018-12-19
_audit_creation_method            'Materials Studio'
_symmetry_space_group_name_H-M    'P1'
_symmetry_Int_Tables_number       1
_symmetry_cell_setting            triclinic
loop_
_symmetry_equiv_pos_as_xyz
  x,y,z
_cell_length_a                    39.8872
_cell_length_b                    7.6140
_cell_length_c                    23.5497
_cell_angle_alpha                 90.0000
_cell_angle_beta                  148.3541
_cell_angle_gamma                 90.0000
loop_
_atom_site_label
_atom_site_type_symbol
_atom_site_fract_x
_atom_site_fract_y
_atom_site_fract_z
_atom_site_U_iso_or_equiv
_atom_site_adp_type
_atom_site_occupancy
C1     C     0.30882   0.75825   0.93855   0.00000  Uiso   1.00
C2     C     0.33033   0.91342   0.00577   0.00000  Uiso   1.00
C3     C     0.36062   0.90237   0.10174   0.00000  Uiso   1.00
C4     C     0.37643   0.05954   0.15092   0.00000  Uiso   1.00
C5     C     0.41192   0.27580   0.26214   0.00000  Uiso   1.00
C6     C     0.23750   0.78433   0.82549   0.00000  Uiso   1.00
C7     C     0.18973   0.66472   0.76989   0.00000  Uiso   1.00
C8     C     0.12739   0.71322   0.66731   0.00000  Uiso   1.00
C9     C     0.01877   0.72901   0.49862   0.00000  Uiso   1.00
C10    C     0.34097   0.78174   0.92729   0.00000  Uiso   1.00
C11    C     0.38019   0.65994   0.95725   0.00000  Uiso   1.00
C12    C     0.40495   0.70624   0.94035   0.00000  Uiso   1.00
C13    C     0.45698   0.71801   0.92971   0.00000  Uiso   1.00
C14    C     0.28304   0.05703   0.85523   0.00000  Uiso   1.00
C15    C     0.31632   0.07571   0.96050   0.00000  Uiso   1.00
C16    C     0.33209   0.23294   0.00955   0.00000  Uiso   1.00
C17    C     0.36240   0.22212   0.10558   0.00000  Uiso   1.00
C18    C     0.22349   0.94661   0.78023   0.00000  Uiso   1.00
C19    C     0.16121   0.99529   0.67770   0.00000  Uiso   1.00
C20    C     0.11336   0.87580   0.62196   0.00000  Uiso   1.00
C21    C     0.32696   0.94403   0.88203   0.00000  Uiso   1.00
C22    C     0.35167   0.99052   0.86507   0.00000  Uiso   1.00
C23    C     0.39092   0.86882   0.89500   0.00000  Uiso   1.00
H24    H     0.31972   0.63189   0.97378   0.00000  Uiso   1.00
H25    H     0.37144   0.77675   0.13673   0.00000  Uiso   1.00
H26    H     0.20059   0.53914   0.80493   0.00000  Uiso   1.00
H27    H     0.39101   0.53436   0.99227   0.00000  Uiso   1.00
H28    H     0.42259   0.00892   0.29742   0.00000  Uiso   1.00
H29    H     0.06233   0.50787   0.59778   0.00000  Uiso   1.00
H30    H     0.46388   0.49780   0.99281   0.00000  Uiso   1.00
H31    H     0.27214   0.18339   0.81999   0.00000  Uiso   1.00
H32    H     0.32125   0.35851   0.97451   0.00000  Uiso   1.00
H33    H     0.15039   0.12089   0.64270   0.00000  Uiso   1.00
H34    H     0.34082   0.11612   0.83004   0.00000  Uiso   1.00
H35    H     0.38185   0.48110   0.16575   0.00000  Uiso   1.00
H36    H     0.02159   0.98004   0.46610   0.00000  Uiso   1.00
H37    H     0.42314   0.96998   0.86114   0.00000  Uiso   1.00
O38    O     0.43536   0.35026   0.33599   0.00000  Uiso   1.00
O39    O     0.96272   0.69289   0.41808   0.00000  Uiso   1.00
O40    O     0.48955   0.67968   0.93636   0.00000  Uiso   1.00
N41    N     0.40627   0.09601   0.24523   0.00000  Uiso   1.00
N42    N     0.06945   0.62757   0.59112   0.00000  Uiso   1.00
N43    N     0.44486   0.61814   0.96042   0.00000  Uiso   1.00
N44    N     0.38435   0.35009   0.17438   0.00000  Uiso   1.00
N45    N     0.04753   0.88165   0.52027   0.00000  Uiso   1.00
N46    N     0.42293   0.87221   0.88957   0.00000  Uiso   1.00
C47    C     0.69118   0.25825   0.56145   0.00000  Uiso   1.00
C48    C     0.66967   0.41342   0.49423   0.00000  Uiso   1.00
C49    C     0.63938   0.40237   0.39826   0.00000  Uiso   1.00
C50    C     0.62357   0.55954   0.34908   0.00000  Uiso   1.00
C51    C     0.58808   0.77580   0.23786   0.00000  Uiso   1.00
C52    C     0.76250   0.28433   0.67451   0.00000  Uiso   1.00
C53    C     0.81027   0.16472   0.73011   0.00000  Uiso   1.00
C54    C     0.87261   0.21322   0.83269   0.00000  Uiso   1.00
C55    C     0.98123   0.22901   0.00138   0.00000  Uiso   1.00
C56    C     0.65903   0.28174   0.57271   0.00000  Uiso   1.00
C57    C     0.61981   0.15994   0.54275   0.00000  Uiso   1.00
C58    C     0.59505   0.20624   0.55965   0.00000  Uiso   1.00
C59    C     0.54302   0.21801   0.57029   0.00000  Uiso   1.00
C60    C     0.71696   0.55703   0.64477   0.00000  Uiso   1.00
C61    C     0.68368   0.57571   0.53950   0.00000  Uiso   1.00
C62    C     0.66791   0.73294   0.49045   0.00000  Uiso   1.00
C63    C     0.63760   0.72212   0.39442   0.00000  Uiso   1.00
C64    C     0.77651   0.44661   0.71977   0.00000  Uiso   1.00
C65    C     0.83879   0.49529   0.82230   0.00000  Uiso   1.00
C66    C     0.88664   0.37580   0.87804   0.00000  Uiso   1.00
C67    C     0.67304   0.44403   0.61797   0.00000  Uiso   1.00
C68    C     0.64833   0.49052   0.63493   0.00000  Uiso   1.00
C69    C     0.60908   0.36882   0.60500   0.00000  Uiso   1.00
H70    H     0.68028   0.13189   0.52622   0.00000  Uiso   1.00
H71    H     0.62856   0.27675   0.36327   0.00000  Uiso   1.00
H72    H     0.79941   0.03914   0.69507   0.00000  Uiso   1.00
H73    H     0.60899   0.03436   0.50773   0.00000  Uiso   1.00
H74    H     0.57741   0.50892   0.20258   0.00000  Uiso   1.00
H75    H     0.93767   0.00787   0.90222   0.00000  Uiso   1.00
H76    H     0.53612   0.99780   0.50719   0.00000  Uiso   1.00
H77    H     0.72786   0.68339   0.68001   0.00000  Uiso   1.00
H78    H     0.67875   0.85851   0.52549   0.00000  Uiso   1.00
H79    H     0.84961   0.62089   0.85730   0.00000  Uiso   1.00
H80    H     0.65918   0.61612   0.66996   0.00000  Uiso   1.00
H81    H     0.61815   0.98110   0.33425   0.00000  Uiso   1.00
H82    H     0.97841   0.48004   0.03390   0.00000  Uiso   1.00
H83    H     0.57686   0.46998   0.63886   0.00000  Uiso   1.00
O84    O     0.56464   0.85026   0.16401   0.00000  Uiso   1.00
O85    O     0.03728   0.19289   0.08192   0.00000  Uiso   1.00
O86    O     0.51045   0.17968   0.56364   0.00000  Uiso   1.00
N87    N     0.59373   0.59601   0.25477   0.00000  Uiso   1.00
N88    N     0.93055   0.12757   0.90888   0.00000  Uiso   1.00
N89    N     0.55514   0.11814   0.53958   0.00000  Uiso   1.00
N90    N     0.61565   0.85009   0.32562   0.00000  Uiso   1.00
N91    N     0.95247   0.38165   0.97973   0.00000  Uiso   1.00
N92    N     0.57707   0.37221   0.61043   0.00000  Uiso   1.00
C93    C     0.69118   0.24175   0.06145   0.00000  Uiso   1.00
C94    C     0.66967   0.08658   0.99423   0.00000  Uiso   1.00
C95    C     0.63938   0.09763   0.89826   0.00000  Uiso   1.00
C96    C     0.62357   0.94046   0.84908   0.00000  Uiso   1.00
C97    C     0.58808   0.72420   0.73786   0.00000  Uiso   1.00
C98    C     0.76250   0.21567   0.17451   0.00000  Uiso   1.00
C99    C     0.81027   0.33528   0.23011   0.00000  Uiso   1.00
C100   C     0.87261   0.28678   0.33269   0.00000  Uiso   1.00
C101   C     0.98123   0.27099   0.50138   0.00000  Uiso   1.00
C102   C     0.65903   0.21826   0.07271   0.00000  Uiso   1.00
C103   C     0.61981   0.34006   0.04275   0.00000  Uiso   1.00
C104   C     0.59505   0.29376   0.05965   0.00000  Uiso   1.00
C105   C     0.54302   0.28199   0.07029   0.00000  Uiso   1.00
C106   C     0.71696   0.94297   0.14477   0.00000  Uiso   1.00
C107   C     0.68368   0.92429   0.03950   0.00000  Uiso   1.00
C108   C     0.66791   0.76706   0.99045   0.00000  Uiso   1.00
C109   C     0.63760   0.77788   0.89442   0.00000  Uiso   1.00
C110   C     0.77651   0.05339   0.21977   0.00000  Uiso   1.00
C111   C     0.83879   0.00471   0.32230   0.00000  Uiso   1.00
C112   C     0.88664   0.12420   0.37804   0.00000  Uiso   1.00
C113   C     0.67304   0.05597   0.11797   0.00000  Uiso   1.00
C114   C     0.64833   0.00948   0.13493   0.00000  Uiso   1.00
C115   C     0.60908   0.13118   0.10500   0.00000  Uiso   1.00
H116   H     0.68028   0.36811   0.02622   0.00000  Uiso   1.00
H117   H     0.62856   0.22325   0.86327   0.00000  Uiso   1.00
H118   H     0.79941   0.46086   0.19507   0.00000  Uiso   1.00
H119   H     0.60899   0.46564   0.00773   0.00000  Uiso   1.00
H120   H     0.57741   0.99108   0.70258   0.00000  Uiso   1.00
H121   H     0.93767   0.49213   0.40222   0.00000  Uiso   1.00
H122   H     0.53612   0.50220   0.00719   0.00000  Uiso   1.00
H123   H     0.72786   0.81661   0.18001   0.00000  Uiso   1.00
H124   H     0.67875   0.64149   0.02549   0.00000  Uiso   1.00
H125   H     0.84961   0.87911   0.35730   0.00000  Uiso   1.00
H126   H     0.65918   0.88388   0.16996   0.00000  Uiso   1.00
H127   H     0.61815   0.51890   0.83425   0.00000  Uiso   1.00
H128   H     0.97841   0.01996   0.53390   0.00000  Uiso   1.00
H129   H     0.57686   0.03002   0.13886   0.00000  Uiso   1.00
O130   O     0.56464   0.64974   0.66401   0.00000  Uiso   1.00
O131   O     0.03728   0.30711   0.58192   0.00000  Uiso   1.00
O132   O     0.51045   0.32032   0.06364   0.00000  Uiso   1.00
N133   N     0.59373   0.90399   0.75477   0.00000  Uiso   1.00
N134   N     0.93055   0.37243   0.40888   0.00000  Uiso   1.00
N135   N     0.55514   0.38186   0.03958   0.00000  Uiso   1.00
N136   N     0.61565   0.64991   0.82562   0.00000  Uiso   1.00
N137   N     0.95247   0.11835   0.47973   0.00000  Uiso   1.00
N138   N     0.57707   0.12779   0.11043   0.00000  Uiso   1.00
C139   C     0.30882   0.74175   0.43855   0.00000  Uiso   1.00
C140   C     0.33033   0.58658   0.50577   0.00000  Uiso   1.00
C141   C     0.36062   0.59763   0.60174   0.00000  Uiso   1.00
C142   C     0.37643   0.44046   0.65092   0.00000  Uiso   1.00
C143   C     0.41192   0.22420   0.76214   0.00000  Uiso   1.00
C144   C     0.23750   0.71567   0.32549   0.00000  Uiso   1.00
C145   C     0.18973   0.83528   0.26989   0.00000  Uiso   1.00
C146   C     0.12739   0.78678   0.16731   0.00000  Uiso   1.00
C147   C     0.01877   0.77099   0.99862   0.00000  Uiso   1.00
C148   C     0.34097   0.71826   0.42729   0.00000  Uiso   1.00
C149   C     0.38019   0.84006   0.45725   0.00000  Uiso   1.00
C150   C     0.40495   0.79376   0.44035   0.00000  Uiso   1.00
C151   C     0.45698   0.78199   0.42971   0.00000  Uiso   1.00
C152   C     0.28304   0.44297   0.35523   0.00000  Uiso   1.00
C153   C     0.31632   0.42429   0.46050   0.00000  Uiso   1.00
C154   C     0.33209   0.26706   0.50955   0.00000  Uiso   1.00
C155   C     0.36240   0.27788   0.60558   0.00000  Uiso   1.00
C156   C     0.22349   0.55339   0.28023   0.00000  Uiso   1.00
C157   C     0.16121   0.50471   0.17770   0.00000  Uiso   1.00
C158   C     0.11336   0.62420   0.12196   0.00000  Uiso   1.00
C159   C     0.32696   0.55597   0.38203   0.00000  Uiso   1.00
C160   C     0.35167   0.50948   0.36507   0.00000  Uiso   1.00
C161   C     0.39092   0.63118   0.39500   0.00000  Uiso   1.00
H162   H     0.31972   0.86811   0.47378   0.00000  Uiso   1.00
H163   H     0.37144   0.72325   0.63673   0.00000  Uiso   1.00
H164   H     0.20059   0.96086   0.30493   0.00000  Uiso   1.00
H165   H     0.39101   0.96564   0.49227   0.00000  Uiso   1.00
H166   H     0.42259   0.49108   0.79742   0.00000  Uiso   1.00
H167   H     0.06233   0.99213   0.09778   0.00000  Uiso   1.00
H168   H     0.46388   0.00220   0.49281   0.00000  Uiso   1.00
H169   H     0.27214   0.31661   0.31999   0.00000  Uiso   1.00
H170   H     0.32125   0.14149   0.47451   0.00000  Uiso   1.00
H171   H     0.15039   0.37911   0.14270   0.00000  Uiso   1.00
H172   H     0.34082   0.38388   0.33004   0.00000  Uiso   1.00
H173   H     0.38185   0.01890   0.66575   0.00000  Uiso   1.00
H174   H     0.02159   0.51996   0.96610   0.00000  Uiso   1.00
H175   H     0.42314   0.53002   0.36114   0.00000  Uiso   1.00
O176   O     0.43536   0.14974   0.83599   0.00000  Uiso   1.00
O177   O     0.96272   0.80711   0.91808   0.00000  Uiso   1.00
O178   O     0.48955   0.82032   0.43636   0.00000  Uiso   1.00
N179   N     0.40627   0.40399   0.74523   0.00000  Uiso   1.00
N180   N     0.06945   0.87243   0.09112   0.00000  Uiso   1.00
N181   N     0.44486   0.88186   0.46042   0.00000  Uiso   1.00
N182   N     0.38435   0.14991   0.67438   0.00000  Uiso   1.00
N183   N     0.04753   0.61835   0.02027   0.00000  Uiso   1.00
N184   N     0.42293   0.62779   0.38957   0.00000  Uiso   1.00
