data_job_05355
_audit_creation_date              2018-12-19
_audit_creation_method            'Materials Studio'
_symmetry_space_group_name_H-M    'P1'
_symmetry_Int_Tables_number       1
_symmetry_cell_setting            triclinic
loop_
_symmetry_equiv_pos_as_xyz
  x,y,z
_cell_length_a                    12.4351
_cell_length_b                    16.9435
_cell_length_c                    17.1989
_cell_angle_alpha                 90.0000
_cell_angle_beta                  86.3069
_cell_angle_gamma                 90.0000
loop_
_atom_site_label
_atom_site_type_symbol
_atom_site_fract_x
_atom_site_fract_y
_atom_site_fract_z
_atom_site_U_iso_or_equiv
_atom_site_adp_type
_atom_site_occupancy
C1     C     0.41511   0.55232   0.73378   0.00000  Uiso   1.00
C2     C     0.31191   0.51259   0.71058   0.00000  Uiso   1.00
C3     C     0.25611   0.53104   0.64565   0.00000  Uiso   1.00
C4     C     0.16340   0.48789   0.63464   0.00000  Uiso   1.00
C5     C     0.00853   0.43527   0.59070   0.00000  Uiso   1.00
C6     C     0.39102   0.58297   0.81644   0.00000  Uiso   1.00
C7     C     0.40175   0.66060   0.84052   0.00000  Uiso   1.00
C8     C     0.37566   0.67668   0.91862   0.00000  Uiso   1.00
C9     C     0.34368   0.73332   0.03905   0.00000  Uiso   1.00
C10    C     0.49758   0.48640   0.74005   0.00000  Uiso   1.00
C11    C     0.59793   0.48283   0.69992   0.00000  Uiso   1.00
C12    C     0.66157   0.41761   0.71373   0.00000  Uiso   1.00
C13    C     0.79505   0.32430   0.71555   0.00000  Uiso   1.00
C14    C     0.34971   0.44287   0.82967   0.00000  Uiso   1.00
C15    C     0.27639   0.45314   0.76266   0.00000  Uiso   1.00
C16    C     0.18375   0.40994   0.75174   0.00000  Uiso   1.00
C17    C     0.12782   0.42832   0.68681   0.00000  Uiso   1.00
C18    C     0.35550   0.52353   0.86852   0.00000  Uiso   1.00
C19    C     0.32939   0.53950   0.94661   0.00000  Uiso   1.00
C20    C     0.34007   0.61712   0.97080   0.00000  Uiso   1.00
C21    C     0.46206   0.42695   0.79213   0.00000  Uiso   1.00
C22    C     0.52556   0.36173   0.80601   0.00000  Uiso   1.00
C23    C     0.62598   0.35805   0.76591   0.00000  Uiso   1.00
H24    H     0.44277   0.59861   0.69324   0.00000  Uiso   1.00
H25    H     0.28362   0.57706   0.60536   0.00000  Uiso   1.00
H26    H     0.42925   0.70659   0.80020   0.00000  Uiso   1.00
H27    H     0.62539   0.52885   0.65963   0.00000  Uiso   1.00
H28    H     0.09148   0.52697   0.53092   0.00000  Uiso   1.00
H29    H     0.39859   0.80008   0.94175   0.00000  Uiso   1.00
H30    H     0.81220   0.42528   0.64532   0.00000  Uiso   1.00
H31    H     0.32206   0.39658   0.87022   0.00000  Uiso   1.00
H32    H     0.15628   0.36394   0.79206   0.00000  Uiso   1.00
H33    H     0.30191   0.49348   0.98689   0.00000  Uiso   1.00
H34    H     0.49805   0.31573   0.84632   0.00000  Uiso   1.00
H35    H     0.98812   0.35400   0.68245   0.00000  Uiso   1.00
H36    H     0.29524   0.62711   0.09328   0.00000  Uiso   1.00
H37    H     0.70884   0.25231   0.79685   0.00000  Uiso   1.00
O38    O     0.93291   0.42267   0.55209   0.00000  Uiso   1.00
O39    O     0.33584   0.78099   0.09108   0.00000  Uiso   1.00
O40    O     0.87848   0.28925   0.70217   0.00000  Uiso   1.00
N41    N     0.08992   0.49073   0.57730   0.00000  Uiso   1.00
N42    N     0.37703   0.74608   0.96140   0.00000  Uiso   1.00
N43    N     0.76373   0.39568   0.68428   0.00000  Uiso   1.00
N44    N     0.03430   0.39765   0.65884   0.00000  Uiso   1.00
N45    N     0.32142   0.65300   0.04294   0.00000  Uiso   1.00
N46    N     0.70812   0.30260   0.76581   0.00000  Uiso   1.00
C47    C     0.58489   0.05232   0.76622   0.00000  Uiso   1.00
C48    C     0.68809   0.01259   0.78942   0.00000  Uiso   1.00
C49    C     0.74389   0.03104   0.85435   0.00000  Uiso   1.00
C50    C     0.83660   0.98789   0.86536   0.00000  Uiso   1.00
C51    C     0.99147   0.93527   0.90930   0.00000  Uiso   1.00
C52    C     0.60898   0.08297   0.68356   0.00000  Uiso   1.00
C53    C     0.59825   0.16060   0.65948   0.00000  Uiso   1.00
C54    C     0.62434   0.17668   0.58138   0.00000  Uiso   1.00
C55    C     0.65632   0.23332   0.46095   0.00000  Uiso   1.00
C56    C     0.50242   0.98640   0.75995   0.00000  Uiso   1.00
C57    C     0.40207   0.98283   0.80008   0.00000  Uiso   1.00
C58    C     0.33843   0.91761   0.78627   0.00000  Uiso   1.00
C59    C     0.20495   0.82430   0.78445   0.00000  Uiso   1.00
C60    C     0.65029   0.94287   0.67033   0.00000  Uiso   1.00
C61    C     0.72361   0.95314   0.73734   0.00000  Uiso   1.00
C62    C     0.81625   0.90994   0.74826   0.00000  Uiso   1.00
C63    C     0.87218   0.92832   0.81319   0.00000  Uiso   1.00
C64    C     0.64450   0.02353   0.63148   0.00000  Uiso   1.00
C65    C     0.67061   0.03950   0.55339   0.00000  Uiso   1.00
C66    C     0.65993   0.11712   0.52920   0.00000  Uiso   1.00
C67    C     0.53794   0.92695   0.70787   0.00000  Uiso   1.00
C68    C     0.47444   0.86173   0.69399   0.00000  Uiso   1.00
C69    C     0.37402   0.85805   0.73409   0.00000  Uiso   1.00
H70    H     0.55723   0.09861   0.80676   0.00000  Uiso   1.00
H71    H     0.71638   0.07706   0.89464   0.00000  Uiso   1.00
H72    H     0.57075   0.20659   0.69980   0.00000  Uiso   1.00
H73    H     0.37461   0.02885   0.84037   0.00000  Uiso   1.00
H74    H     0.90852   0.02697   0.96908   0.00000  Uiso   1.00
H75    H     0.60141   0.30008   0.55825   0.00000  Uiso   1.00
H76    H     0.18780   0.92528   0.85468   0.00000  Uiso   1.00
H77    H     0.67794   0.89658   0.62978   0.00000  Uiso   1.00
H78    H     0.84372   0.86394   0.70794   0.00000  Uiso   1.00
H79    H     0.69809   0.99348   0.51311   0.00000  Uiso   1.00
H80    H     0.50195   0.81573   0.65368   0.00000  Uiso   1.00
H81    H     0.01188   0.85400   0.81755   0.00000  Uiso   1.00
H82    H     0.70476   0.12711   0.40672   0.00000  Uiso   1.00
H83    H     0.29116   0.75231   0.70315   0.00000  Uiso   1.00
O84    O     0.06709   0.92267   0.94791   0.00000  Uiso   1.00
O85    O     0.66416   0.28099   0.40892   0.00000  Uiso   1.00
O86    O     0.12152   0.78925   0.79783   0.00000  Uiso   1.00
N87    N     0.91008   0.99073   0.92270   0.00000  Uiso   1.00
N88    N     0.62297   0.24608   0.53860   0.00000  Uiso   1.00
N89    N     0.23627   0.89568   0.81572   0.00000  Uiso   1.00
N90    N     0.96570   0.89765   0.84116   0.00000  Uiso   1.00
N91    N     0.67858   0.15300   0.45706   0.00000  Uiso   1.00
N92    N     0.29188   0.80260   0.73419   0.00000  Uiso   1.00
C93    C     0.58489   0.44768   0.26622   0.00000  Uiso   1.00
C94    C     0.68809   0.48741   0.28942   0.00000  Uiso   1.00
C95    C     0.74389   0.46896   0.35435   0.00000  Uiso   1.00
C96    C     0.83660   0.51211   0.36536   0.00000  Uiso   1.00
C97    C     0.99147   0.56473   0.40930   0.00000  Uiso   1.00
C98    C     0.60898   0.41703   0.18356   0.00000  Uiso   1.00
C99    C     0.59825   0.33940   0.15948   0.00000  Uiso   1.00
C100   C     0.62434   0.32332   0.08138   0.00000  Uiso   1.00
C101   C     0.65632   0.26668   0.96095   0.00000  Uiso   1.00
C102   C     0.50242   0.51360   0.25995   0.00000  Uiso   1.00
C103   C     0.40207   0.51717   0.30008   0.00000  Uiso   1.00
C104   C     0.33843   0.58239   0.28627   0.00000  Uiso   1.00
C105   C     0.20495   0.67570   0.28445   0.00000  Uiso   1.00
C106   C     0.65029   0.55713   0.17033   0.00000  Uiso   1.00
C107   C     0.72361   0.54686   0.23734   0.00000  Uiso   1.00
C108   C     0.81625   0.59006   0.24826   0.00000  Uiso   1.00
C109   C     0.87218   0.57168   0.31319   0.00000  Uiso   1.00
C110   C     0.64450   0.47647   0.13148   0.00000  Uiso   1.00
C111   C     0.67061   0.46050   0.05339   0.00000  Uiso   1.00
C112   C     0.65993   0.38288   0.02920   0.00000  Uiso   1.00
C113   C     0.53794   0.57305   0.20787   0.00000  Uiso   1.00
C114   C     0.47444   0.63827   0.19399   0.00000  Uiso   1.00
C115   C     0.37402   0.64195   0.23409   0.00000  Uiso   1.00
H116   H     0.55723   0.40139   0.30676   0.00000  Uiso   1.00
H117   H     0.71638   0.42294   0.39464   0.00000  Uiso   1.00
H118   H     0.57075   0.29341   0.19980   0.00000  Uiso   1.00
H119   H     0.37461   0.47115   0.34037   0.00000  Uiso   1.00
H120   H     0.90852   0.47303   0.46908   0.00000  Uiso   1.00
H121   H     0.60141   0.19992   0.05825   0.00000  Uiso   1.00
H122   H     0.18780   0.57472   0.35468   0.00000  Uiso   1.00
H123   H     0.67794   0.60342   0.12978   0.00000  Uiso   1.00
H124   H     0.84372   0.63606   0.20794   0.00000  Uiso   1.00
H125   H     0.69809   0.50652   0.01311   0.00000  Uiso   1.00
H126   H     0.50195   0.68427   0.15368   0.00000  Uiso   1.00
H127   H     0.01188   0.64600   0.31755   0.00000  Uiso   1.00
H128   H     0.70476   0.37289   0.90672   0.00000  Uiso   1.00
H129   H     0.29116   0.74769   0.20315   0.00000  Uiso   1.00
O130   O     0.06709   0.57733   0.44791   0.00000  Uiso   1.00
O131   O     0.66416   0.21901   0.90892   0.00000  Uiso   1.00
O132   O     0.12152   0.71075   0.29783   0.00000  Uiso   1.00
N133   N     0.91008   0.50927   0.42270   0.00000  Uiso   1.00
N134   N     0.62297   0.25392   0.03860   0.00000  Uiso   1.00
N135   N     0.23627   0.60432   0.31572   0.00000  Uiso   1.00
N136   N     0.96570   0.60235   0.34116   0.00000  Uiso   1.00
N137   N     0.67858   0.34700   0.95706   0.00000  Uiso   1.00
N138   N     0.29188   0.69740   0.23419   0.00000  Uiso   1.00
C139   C     0.41511   0.94768   0.23378   0.00000  Uiso   1.00
C140   C     0.31191   0.98741   0.21058   0.00000  Uiso   1.00
C141   C     0.25611   0.96896   0.14565   0.00000  Uiso   1.00
C142   C     0.16340   0.01211   0.13464   0.00000  Uiso   1.00
C143   C     0.00853   0.06473   0.09070   0.00000  Uiso   1.00
C144   C     0.39102   0.91703   0.31644   0.00000  Uiso   1.00
C145   C     0.40175   0.83940   0.34052   0.00000  Uiso   1.00
C146   C     0.37566   0.82332   0.41862   0.00000  Uiso   1.00
C147   C     0.34368   0.76668   0.53905   0.00000  Uiso   1.00
C148   C     0.49758   0.01360   0.24005   0.00000  Uiso   1.00
C149   C     0.59793   0.01717   0.19992   0.00000  Uiso   1.00
C150   C     0.66157   0.08239   0.21373   0.00000  Uiso   1.00
C151   C     0.79505   0.17570   0.21555   0.00000  Uiso   1.00
C152   C     0.34971   0.05713   0.32967   0.00000  Uiso   1.00
C153   C     0.27639   0.04686   0.26266   0.00000  Uiso   1.00
C154   C     0.18375   0.09006   0.25174   0.00000  Uiso   1.00
C155   C     0.12782   0.07168   0.18681   0.00000  Uiso   1.00
C156   C     0.35550   0.97647   0.36852   0.00000  Uiso   1.00
C157   C     0.32939   0.96050   0.44661   0.00000  Uiso   1.00
C158   C     0.34007   0.88288   0.47080   0.00000  Uiso   1.00
C159   C     0.46206   0.07305   0.29213   0.00000  Uiso   1.00
C160   C     0.52556   0.13827   0.30601   0.00000  Uiso   1.00
C161   C     0.62598   0.14195   0.26591   0.00000  Uiso   1.00
H162   H     0.44277   0.90139   0.19324   0.00000  Uiso   1.00
H163   H     0.28362   0.92294   0.10536   0.00000  Uiso   1.00
H164   H     0.42925   0.79341   0.30020   0.00000  Uiso   1.00
H165   H     0.62539   0.97115   0.15963   0.00000  Uiso   1.00
H166   H     0.09148   0.97303   0.03092   0.00000  Uiso   1.00
H167   H     0.39859   0.69992   0.44175   0.00000  Uiso   1.00
H168   H     0.81220   0.07472   0.14532   0.00000  Uiso   1.00
H169   H     0.32206   0.10342   0.37022   0.00000  Uiso   1.00
H170   H     0.15628   0.13606   0.29206   0.00000  Uiso   1.00
H171   H     0.30191   0.00652   0.48689   0.00000  Uiso   1.00
H172   H     0.49805   0.18427   0.34632   0.00000  Uiso   1.00
H173   H     0.98812   0.14600   0.18245   0.00000  Uiso   1.00
H174   H     0.29524   0.87289   0.59328   0.00000  Uiso   1.00
H175   H     0.70884   0.24769   0.29685   0.00000  Uiso   1.00
O176   O     0.93291   0.07733   0.05209   0.00000  Uiso   1.00
O177   O     0.33584   0.71901   0.59108   0.00000  Uiso   1.00
O178   O     0.87848   0.21075   0.20217   0.00000  Uiso   1.00
N179   N     0.08992   0.00927   0.07730   0.00000  Uiso   1.00
N180   N     0.37703   0.75392   0.46140   0.00000  Uiso   1.00
N181   N     0.76373   0.10432   0.18428   0.00000  Uiso   1.00
N182   N     0.03430   0.10235   0.15884   0.00000  Uiso   1.00
N183   N     0.32142   0.84700   0.54294   0.00000  Uiso   1.00
N184   N     0.70812   0.19740   0.26581   0.00000  Uiso   1.00
