data_job_01378
_audit_creation_date              2018-12-19
_audit_creation_method            'Materials Studio'
_symmetry_space_group_name_H-M    'P1'
_symmetry_Int_Tables_number       1
_symmetry_cell_setting            triclinic
loop_
_symmetry_equiv_pos_as_xyz
  x,y,z
_cell_length_a                    8.1902
_cell_length_b                    11.0448
_cell_length_c                    14.3728
_cell_angle_alpha                 104.7296
_cell_angle_beta                  86.5870
_cell_angle_gamma                 73.0160
loop_
_atom_site_label
_atom_site_type_symbol
_atom_site_fract_x
_atom_site_fract_y
_atom_site_fract_z
_atom_site_U_iso_or_equiv
_atom_site_adp_type
_atom_site_occupancy
C1     C     0.06812   0.66437   0.80918   0.00000  Uiso   1.00
C2     C     0.12748   0.51588   0.79572   0.00000  Uiso   1.00
C3     C     0.02113   0.44116   0.80574   0.00000  Uiso   1.00
C4     C     0.10040   0.30675   0.79043   0.00000  Uiso   1.00
C5     C     0.16533   0.08492   0.77330   0.00000  Uiso   1.00
C6     C     0.16616   0.72181   0.88643   0.00000  Uiso   1.00
C7     C     0.09232   0.82025   0.97269   0.00000  Uiso   1.00
C8     C     0.20416   0.85921   0.03373   0.00000  Uiso   1.00
C9     C     0.32914   0.95717   0.15738   0.00000  Uiso   1.00
C10    C     0.13680   0.68291   0.71457   0.00000  Uiso   1.00
C11    C     0.03829   0.74867   0.65634   0.00000  Uiso   1.00
C12    C     0.12541   0.75490   0.57270   0.00000  Uiso   1.00
C13    C     0.20480   0.79246   0.42952   0.00000  Uiso   1.00
C14    C     0.39803   0.55854   0.76419   0.00000  Uiso   1.00
C15    C     0.30668   0.45840   0.77129   0.00000  Uiso   1.00
C16    C     0.38613   0.32406   0.75596   0.00000  Uiso   1.00
C17    C     0.27992   0.24915   0.76594   0.00000  Uiso   1.00
C18    C     0.34535   0.66433   0.86199   0.00000  Uiso   1.00
C19    C     0.45732   0.70316   0.92291   0.00000  Uiso   1.00
C20    C     0.38368   0.80162   0.00925   0.00000  Uiso   1.00
C21    C     0.31599   0.62542   0.69013   0.00000  Uiso   1.00
C22    C     0.40329   0.63157   0.60657   0.00000  Uiso   1.00
C23    C     0.30493   0.69731   0.54822   0.00000  Uiso   1.00
H24    H     0.92862   0.70913   0.82821   0.00000  Uiso   1.00
H25    H     0.88246   0.48568   0.82466   0.00000  Uiso   1.00
H26    H     0.95365   0.86472   0.99157   0.00000  Uiso   1.00
H27    H     0.89962   0.79314   0.67528   0.00000  Uiso   1.00
H28    H     0.91033   0.21260   0.80998   0.00000  Uiso   1.00
H29    H     0.06043   0.01186   0.16192   0.00000  Uiso   1.00
H30    H     0.94650   0.86093   0.49494   0.00000  Uiso   1.00
H31    H     0.53754   0.51379   0.74517   0.00000  Uiso   1.00
H32    H     0.52480   0.27961   0.73705   0.00000  Uiso   1.00
H33    H     0.59598   0.65866   0.90397   0.00000  Uiso   1.00
H34    H     0.54196   0.58707   0.58768   0.00000  Uiso   1.00
H35    H     0.43167   0.04534   0.73888   0.00000  Uiso   1.00
H36    H     0.58177   0.84462   0.09082   0.00000  Uiso   1.00
H37    H     0.46784   0.69367   0.42384   0.00000  Uiso   1.00
O38    O     0.15164   0.97846   0.77062   0.00000  Uiso   1.00
O39    O     0.34856   0.02708   0.23234   0.00000  Uiso   1.00
O40    O     0.19909   0.82904   0.35729   0.00000  Uiso   1.00
N41    N     0.03477   0.20537   0.79434   0.00000  Uiso   1.00
N42    N     0.17510   0.95262   0.12339   0.00000  Uiso   1.00
N43    N     0.06859   0.81154   0.49984   0.00000  Uiso   1.00
N44    N     0.31530   0.11537   0.75608   0.00000  Uiso   1.00
N45    N     0.45563   0.86262   0.08513   0.00000  Uiso   1.00
N46    N     0.34913   0.72154   0.46158   0.00000  Uiso   1.00
C47    C     0.93188   0.33563   0.19082   0.00000  Uiso   1.00
C48    C     0.87252   0.48412   0.20428   0.00000  Uiso   1.00
C49    C     0.97887   0.55884   0.19426   0.00000  Uiso   1.00
C50    C     0.89960   0.69325   0.20957   0.00000  Uiso   1.00
C51    C     0.83467   0.91508   0.22670   0.00000  Uiso   1.00
C52    C     0.83384   0.27819   0.11357   0.00000  Uiso   1.00
C53    C     0.90768   0.17975   0.02731   0.00000  Uiso   1.00
C54    C     0.79584   0.14079   0.96627   0.00000  Uiso   1.00
C55    C     0.67086   0.04283   0.84262   0.00000  Uiso   1.00
C56    C     0.86320   0.31709   0.28543   0.00000  Uiso   1.00
C57    C     0.96171   0.25133   0.34366   0.00000  Uiso   1.00
C58    C     0.87459   0.24510   0.42730   0.00000  Uiso   1.00
C59    C     0.79520   0.20754   0.57048   0.00000  Uiso   1.00
C60    C     0.60197   0.44146   0.23581   0.00000  Uiso   1.00
C61    C     0.69332   0.54160   0.22871   0.00000  Uiso   1.00
C62    C     0.61387   0.67594   0.24404   0.00000  Uiso   1.00
C63    C     0.72008   0.75085   0.23406   0.00000  Uiso   1.00
C64    C     0.65465   0.33567   0.13801   0.00000  Uiso   1.00
C65    C     0.54268   0.29684   0.07709   0.00000  Uiso   1.00
C66    C     0.61632   0.19838   0.99075   0.00000  Uiso   1.00
C67    C     0.68401   0.37458   0.30987   0.00000  Uiso   1.00
C68    C     0.59671   0.36843   0.39343   0.00000  Uiso   1.00
C69    C     0.69507   0.30269   0.45178   0.00000  Uiso   1.00
H70    H     0.07138   0.29087   0.17179   0.00000  Uiso   1.00
H71    H     0.11754   0.51432   0.17534   0.00000  Uiso   1.00
H72    H     0.04635   0.13528   0.00843   0.00000  Uiso   1.00
H73    H     0.10038   0.20686   0.32472   0.00000  Uiso   1.00
H74    H     0.08967   0.78740   0.19002   0.00000  Uiso   1.00
H75    H     0.93957   0.98814   0.83808   0.00000  Uiso   1.00
H76    H     0.05350   0.13907   0.50506   0.00000  Uiso   1.00
H77    H     0.46246   0.48621   0.25483   0.00000  Uiso   1.00
H78    H     0.47520   0.72039   0.26295   0.00000  Uiso   1.00
H79    H     0.40402   0.34134   0.09603   0.00000  Uiso   1.00
H80    H     0.45804   0.41293   0.41232   0.00000  Uiso   1.00
H81    H     0.56833   0.95466   0.26112   0.00000  Uiso   1.00
H82    H     0.41823   0.15538   0.90918   0.00000  Uiso   1.00
H83    H     0.53216   0.30633   0.57616   0.00000  Uiso   1.00
O84    O     0.84836   0.02154   0.22938   0.00000  Uiso   1.00
O85    O     0.65144   0.97292   0.76766   0.00000  Uiso   1.00
O86    O     0.80091   0.17096   0.64271   0.00000  Uiso   1.00
N87    N     0.96523   0.79463   0.20566   0.00000  Uiso   1.00
N88    N     0.82490   0.04738   0.87661   0.00000  Uiso   1.00
N89    N     0.93141   0.18846   0.50016   0.00000  Uiso   1.00
N90    N     0.68470   0.88463   0.24392   0.00000  Uiso   1.00
N91    N     0.54437   0.13738   0.91487   0.00000  Uiso   1.00
N92    N     0.65087   0.27846   0.53842   0.00000  Uiso   1.00
