data_job_02643
_audit_creation_date              2018-12-19
_audit_creation_method            'Materials Studio'
_symmetry_space_group_name_H-M    'P1'
_symmetry_Int_Tables_number       1
_symmetry_cell_setting            triclinic
loop_
_symmetry_equiv_pos_as_xyz
  x,y,z
_cell_length_a                    9.3170
_cell_length_b                    18.8159
_cell_length_c                    20.4902
_cell_angle_alpha                 90.0000
_cell_angle_beta                  127.3552
_cell_angle_gamma                 90.0000
loop_
_atom_site_label
_atom_site_type_symbol
_atom_site_fract_x
_atom_site_fract_y
_atom_site_fract_z
_atom_site_U_iso_or_equiv
_atom_site_adp_type
_atom_site_occupancy
C1     C     0.83991   0.89620   0.27072   0.00000  Uiso   1.00
C2     C     0.83592   0.96543   0.23095   0.00000  Uiso   1.00
C3     C     0.98144   0.99573   0.23874   0.00000  Uiso   1.00
C4     C     0.95017   0.05925   0.19755   0.00000  Uiso   1.00
C5     C     0.96996   0.16189   0.14302   0.00000  Uiso   1.00
C6     C     0.77366   0.91470   0.32083   0.00000  Uiso   1.00
C7     C     0.86684   0.90233   0.40419   0.00000  Uiso   1.00
C8     C     0.78315   0.92314   0.43865   0.00000  Uiso   1.00
C9     C     0.70624   0.94698   0.52365   0.00000  Uiso   1.00
C10    C     0.69477   0.84885   0.20074   0.00000  Uiso   1.00
C11    C     0.72159   0.78112   0.18314   0.00000  Uiso   1.00
C12    C     0.57147   0.74649   0.11650   0.00000  Uiso   1.00
C13    C     0.37206   0.66810   0.01504   0.00000  Uiso   1.00
C14    C     0.52561   0.95512   0.18368   0.00000  Uiso   1.00
C15    C     0.66520   0.99743   0.18367   0.00000  Uiso   1.00
C16    C     0.63370   0.06092   0.14244   0.00000  Uiso   1.00
C17    C     0.77915   0.09131   0.15018   0.00000  Uiso   1.00
C18    C     0.60296   0.94670   0.27355   0.00000  Uiso   1.00
C19    C     0.51910   0.96753   0.30789   0.00000  Uiso   1.00
C20    C     0.61213   0.95521   0.39129   0.00000  Uiso   1.00
C21    C     0.52405   0.88086   0.15346   0.00000  Uiso   1.00
C22    C     0.37386   0.84632   0.08684   0.00000  Uiso   1.00
C23    C     0.40044   0.77855   0.06914   0.00000  Uiso   1.00
H24    H     0.97282   0.87128   0.30753   0.00000  Uiso   1.00
H25    H     0.11354   0.97094   0.27534   0.00000  Uiso   1.00
H26    H     0.99894   0.87756   0.44076   0.00000  Uiso   1.00
H27    H     0.85372   0.75637   0.21974   0.00000  Uiso   1.00
H28    H     0.19428   0.09557   0.21884   0.00000  Uiso   1.00
H29    H     0.95262   0.89864   0.56762   0.00000  Uiso   1.00
H30    H     0.64639   0.64309   0.10156   0.00000  Uiso   1.00
H31    H     0.39269   0.98004   0.14687   0.00000  Uiso   1.00
H32    H     0.50158   0.08568   0.10586   0.00000  Uiso   1.00
H33    H     0.38699   0.99230   0.27129   0.00000  Uiso   1.00
H34    H     0.24177   0.87111   0.05027   0.00000  Uiso   1.00
H35    H     0.69759   0.18869   0.08129   0.00000  Uiso   1.00
H36    H     0.45594   0.99176   0.43007   0.00000  Uiso   1.00
H37    H     0.14971   0.73621   0.96401   0.00000  Uiso   1.00
O38    O     0.02804   0.20967   0.12601   0.00000  Uiso   1.00
O39    O     0.71099   0.95130   0.58360   0.00000  Uiso   1.00
O40    O     0.30923   0.61602   0.97213   0.00000  Uiso   1.00
N41    N     0.06243   0.10298   0.19208   0.00000  Uiso   1.00
N42    N     0.83651   0.91888   0.51817   0.00000  Uiso   1.00
N43    N     0.55020   0.67995   0.08246   0.00000  Uiso   1.00
N44    N     0.79517   0.15309   0.11806   0.00000  Uiso   1.00
N45    N     0.56925   0.96899   0.44416   0.00000  Uiso   1.00
N46    N     0.28294   0.73006   0.00844   0.00000  Uiso   1.00
C47    C     0.16009   0.39620   0.22928   0.00000  Uiso   1.00
C48    C     0.16408   0.46543   0.26905   0.00000  Uiso   1.00
C49    C     0.01856   0.49573   0.26126   0.00000  Uiso   1.00
C50    C     0.04983   0.55925   0.30245   0.00000  Uiso   1.00
C51    C     0.03004   0.66189   0.35698   0.00000  Uiso   1.00
C52    C     0.22634   0.41470   0.17917   0.00000  Uiso   1.00
C53    C     0.13316   0.40233   0.09581   0.00000  Uiso   1.00
C54    C     0.21685   0.42314   0.06135   0.00000  Uiso   1.00
C55    C     0.29376   0.44698   0.97635   0.00000  Uiso   1.00
C56    C     0.30523   0.34885   0.29926   0.00000  Uiso   1.00
C57    C     0.27841   0.28112   0.31686   0.00000  Uiso   1.00
C58    C     0.42853   0.24649   0.38350   0.00000  Uiso   1.00
C59    C     0.62794   0.16810   0.48496   0.00000  Uiso   1.00
C60    C     0.47439   0.45512   0.31632   0.00000  Uiso   1.00
C61    C     0.33480   0.49743   0.31633   0.00000  Uiso   1.00
C62    C     0.36630   0.56092   0.35756   0.00000  Uiso   1.00
C63    C     0.22085   0.59131   0.34982   0.00000  Uiso   1.00
C64    C     0.39704   0.44670   0.22645   0.00000  Uiso   1.00
C65    C     0.48090   0.46753   0.19211   0.00000  Uiso   1.00
C66    C     0.38787   0.45521   0.10871   0.00000  Uiso   1.00
C67    C     0.47595   0.38086   0.34654   0.00000  Uiso   1.00
C68    C     0.62614   0.34632   0.41316   0.00000  Uiso   1.00
C69    C     0.59956   0.27855   0.43086   0.00000  Uiso   1.00
H70    H     0.02718   0.37128   0.19247   0.00000  Uiso   1.00
H71    H     0.88646   0.47094   0.22466   0.00000  Uiso   1.00
H72    H     0.00106   0.37756   0.05924   0.00000  Uiso   1.00
H73    H     0.14628   0.25637   0.28026   0.00000  Uiso   1.00
H74    H     0.80572   0.59557   0.28116   0.00000  Uiso   1.00
H75    H     0.04738   0.39864   0.93238   0.00000  Uiso   1.00
H76    H     0.35361   0.14309   0.39844   0.00000  Uiso   1.00
H77    H     0.60731   0.48004   0.35313   0.00000  Uiso   1.00
H78    H     0.49842   0.58568   0.39414   0.00000  Uiso   1.00
H79    H     0.61301   0.49230   0.22871   0.00000  Uiso   1.00
H80    H     0.75823   0.37111   0.44973   0.00000  Uiso   1.00
H81    H     0.30241   0.68869   0.41871   0.00000  Uiso   1.00
H82    H     0.54406   0.49176   0.06993   0.00000  Uiso   1.00
H83    H     0.85029   0.23621   0.53599   0.00000  Uiso   1.00
O84    O     0.97196   0.70967   0.37399   0.00000  Uiso   1.00
O85    O     0.28901   0.45130   0.91640   0.00000  Uiso   1.00
O86    O     0.69077   0.11602   0.52787   0.00000  Uiso   1.00
N87    N     0.93757   0.60298   0.30792   0.00000  Uiso   1.00
N88    N     0.16349   0.41888   0.98183   0.00000  Uiso   1.00
N89    N     0.44980   0.17995   0.41754   0.00000  Uiso   1.00
N90    N     0.20483   0.65309   0.38194   0.00000  Uiso   1.00
N91    N     0.43075   0.46899   0.05584   0.00000  Uiso   1.00
N92    N     0.71706   0.23006   0.49156   0.00000  Uiso   1.00
C93    C     0.16009   0.10380   0.72928   0.00000  Uiso   1.00
C94    C     0.16408   0.03457   0.76905   0.00000  Uiso   1.00
C95    C     0.01856   0.00427   0.76126   0.00000  Uiso   1.00
C96    C     0.04983   0.94075   0.80245   0.00000  Uiso   1.00
C97    C     0.03004   0.83811   0.85698   0.00000  Uiso   1.00
C98    C     0.22634   0.08530   0.67917   0.00000  Uiso   1.00
C99    C     0.13316   0.09767   0.59581   0.00000  Uiso   1.00
C100   C     0.21685   0.07686   0.56135   0.00000  Uiso   1.00
C101   C     0.29376   0.05302   0.47635   0.00000  Uiso   1.00
C102   C     0.30523   0.15115   0.79926   0.00000  Uiso   1.00
C103   C     0.27841   0.21888   0.81686   0.00000  Uiso   1.00
C104   C     0.42853   0.25351   0.88350   0.00000  Uiso   1.00
C105   C     0.62794   0.33190   0.98496   0.00000  Uiso   1.00
C106   C     0.47439   0.04488   0.81632   0.00000  Uiso   1.00
C107   C     0.33480   0.00257   0.81633   0.00000  Uiso   1.00
C108   C     0.36630   0.93908   0.85756   0.00000  Uiso   1.00
C109   C     0.22085   0.90869   0.84982   0.00000  Uiso   1.00
C110   C     0.39704   0.05330   0.72645   0.00000  Uiso   1.00
C111   C     0.48090   0.03247   0.69211   0.00000  Uiso   1.00
C112   C     0.38787   0.04479   0.60871   0.00000  Uiso   1.00
C113   C     0.47595   0.11914   0.84654   0.00000  Uiso   1.00
C114   C     0.62614   0.15368   0.91316   0.00000  Uiso   1.00
C115   C     0.59956   0.22145   0.93086   0.00000  Uiso   1.00
H116   H     0.02718   0.12872   0.69247   0.00000  Uiso   1.00
H117   H     0.88646   0.02906   0.72466   0.00000  Uiso   1.00
H118   H     0.00106   0.12244   0.55924   0.00000  Uiso   1.00
H119   H     0.14628   0.24363   0.78026   0.00000  Uiso   1.00
H120   H     0.80572   0.90443   0.78116   0.00000  Uiso   1.00
H121   H     0.04738   0.10136   0.43238   0.00000  Uiso   1.00
H122   H     0.35361   0.35691   0.89844   0.00000  Uiso   1.00
H123   H     0.60731   0.01996   0.85313   0.00000  Uiso   1.00
H124   H     0.49842   0.91432   0.89414   0.00000  Uiso   1.00
H125   H     0.61301   0.00770   0.72871   0.00000  Uiso   1.00
H126   H     0.75823   0.12889   0.94973   0.00000  Uiso   1.00
H127   H     0.30241   0.81131   0.91871   0.00000  Uiso   1.00
H128   H     0.54406   0.00824   0.56993   0.00000  Uiso   1.00
H129   H     0.85029   0.26379   0.03599   0.00000  Uiso   1.00
O130   O     0.97196   0.79033   0.87399   0.00000  Uiso   1.00
O131   O     0.28901   0.04870   0.41640   0.00000  Uiso   1.00
O132   O     0.69077   0.38398   0.02787   0.00000  Uiso   1.00
N133   N     0.93757   0.89702   0.80792   0.00000  Uiso   1.00
N134   N     0.16349   0.08112   0.48183   0.00000  Uiso   1.00
N135   N     0.44980   0.32005   0.91754   0.00000  Uiso   1.00
N136   N     0.20483   0.84691   0.88194   0.00000  Uiso   1.00
N137   N     0.43075   0.03101   0.55584   0.00000  Uiso   1.00
N138   N     0.71706   0.26994   0.99156   0.00000  Uiso   1.00
C139   C     0.83991   0.60380   0.77072   0.00000  Uiso   1.00
C140   C     0.83592   0.53457   0.73095   0.00000  Uiso   1.00
C141   C     0.98144   0.50427   0.73874   0.00000  Uiso   1.00
C142   C     0.95017   0.44075   0.69755   0.00000  Uiso   1.00
C143   C     0.96996   0.33811   0.64302   0.00000  Uiso   1.00
C144   C     0.77366   0.58530   0.82083   0.00000  Uiso   1.00
C145   C     0.86684   0.59767   0.90419   0.00000  Uiso   1.00
C146   C     0.78315   0.57686   0.93865   0.00000  Uiso   1.00
C147   C     0.70624   0.55302   0.02365   0.00000  Uiso   1.00
C148   C     0.69477   0.65115   0.70074   0.00000  Uiso   1.00
C149   C     0.72159   0.71888   0.68314   0.00000  Uiso   1.00
C150   C     0.57147   0.75351   0.61650   0.00000  Uiso   1.00
C151   C     0.37206   0.83190   0.51504   0.00000  Uiso   1.00
C152   C     0.52561   0.54488   0.68368   0.00000  Uiso   1.00
C153   C     0.66520   0.50257   0.68367   0.00000  Uiso   1.00
C154   C     0.63370   0.43908   0.64244   0.00000  Uiso   1.00
C155   C     0.77915   0.40869   0.65018   0.00000  Uiso   1.00
C156   C     0.60296   0.55330   0.77355   0.00000  Uiso   1.00
C157   C     0.51910   0.53247   0.80789   0.00000  Uiso   1.00
C158   C     0.61213   0.54479   0.89129   0.00000  Uiso   1.00
C159   C     0.52405   0.61914   0.65346   0.00000  Uiso   1.00
C160   C     0.37386   0.65368   0.58684   0.00000  Uiso   1.00
C161   C     0.40044   0.72145   0.56914   0.00000  Uiso   1.00
H162   H     0.97282   0.62872   0.80753   0.00000  Uiso   1.00
H163   H     0.11354   0.52906   0.77534   0.00000  Uiso   1.00
H164   H     0.99894   0.62244   0.94076   0.00000  Uiso   1.00
H165   H     0.85372   0.74363   0.71974   0.00000  Uiso   1.00
H166   H     0.19428   0.40443   0.71884   0.00000  Uiso   1.00
H167   H     0.95262   0.60136   0.06762   0.00000  Uiso   1.00
H168   H     0.64639   0.85691   0.60156   0.00000  Uiso   1.00
H169   H     0.39269   0.51996   0.64687   0.00000  Uiso   1.00
H170   H     0.50158   0.41432   0.60586   0.00000  Uiso   1.00
H171   H     0.38699   0.50770   0.77129   0.00000  Uiso   1.00
H172   H     0.24177   0.62889   0.55027   0.00000  Uiso   1.00
H173   H     0.69759   0.31131   0.58129   0.00000  Uiso   1.00
H174   H     0.45594   0.50824   0.93007   0.00000  Uiso   1.00
H175   H     0.14971   0.76379   0.46401   0.00000  Uiso   1.00
O176   O     0.02804   0.29033   0.62601   0.00000  Uiso   1.00
O177   O     0.71099   0.54870   0.08360   0.00000  Uiso   1.00
O178   O     0.30923   0.88398   0.47213   0.00000  Uiso   1.00
N179   N     0.06243   0.39702   0.69208   0.00000  Uiso   1.00
N180   N     0.83651   0.58112   0.01817   0.00000  Uiso   1.00
N181   N     0.55020   0.82005   0.58246   0.00000  Uiso   1.00
N182   N     0.79517   0.34691   0.61806   0.00000  Uiso   1.00
N183   N     0.56925   0.53101   0.94416   0.00000  Uiso   1.00
N184   N     0.28294   0.76994   0.50844   0.00000  Uiso   1.00
