data_job_04045
_audit_creation_date              2018-12-19
_audit_creation_method            'Materials Studio'
_symmetry_space_group_name_H-M    'P1'
_symmetry_Int_Tables_number       1
_symmetry_cell_setting            triclinic
loop_
_symmetry_equiv_pos_as_xyz
  x,y,z
_cell_length_a                    10.2088
_cell_length_b                    10.2744
_cell_length_c                    14.7772
_cell_angle_alpha                 82.6771
_cell_angle_beta                  109.6562
_cell_angle_gamma                 106.3673
loop_
_atom_site_label
_atom_site_type_symbol
_atom_site_fract_x
_atom_site_fract_y
_atom_site_fract_z
_atom_site_U_iso_or_equiv
_atom_site_adp_type
_atom_site_occupancy
C1     C     0.26821   0.05748   0.85225   0.00000  Uiso   1.00
C2     C     0.23422   0.16412   0.89751   0.00000  Uiso   1.00
C3     C     0.25544   0.17154   0.99473   0.00000  Uiso   1.00
C4     C     0.21747   0.27672   0.02174   0.00000  Uiso   1.00
C5     C     0.17332   0.42792   0.10234   0.00000  Uiso   1.00
C6     C     0.12818   0.99155   0.77654   0.00000  Uiso   1.00
C7     C     0.06027   0.85388   0.77205   0.00000  Uiso   1.00
C8     C     0.93304   0.81379   0.69722   0.00000  Uiso   1.00
C9     C     0.72432   0.69706   0.58997   0.00000  Uiso   1.00
C10    C     0.37012   0.13573   0.79709   0.00000  Uiso   1.00
C11    C     0.50562   0.11926   0.80985   0.00000  Uiso   1.00
C12    C     0.58208   0.20053   0.75230   0.00000  Uiso   1.00
C13    C     0.74902   0.30766   0.67695   0.00000  Uiso   1.00
C14    C     0.16302   0.23107   0.72734   0.00000  Uiso   1.00
C15    C     0.17708   0.25840   0.82966   0.00000  Uiso   1.00
C16    C     0.13907   0.36360   0.85653   0.00000  Uiso   1.00
C17    C     0.16024   0.37118   0.95378   0.00000  Uiso   1.00
C18    C     0.07105   0.08583   0.70870   0.00000  Uiso   1.00
C19    C     0.94389   0.04593   0.63385   0.00000  Uiso   1.00
C20    C     0.87580   0.90824   0.62925   0.00000  Uiso   1.00
C21    C     0.31299   0.23002   0.72924   0.00000  Uiso   1.00
C22    C     0.38925   0.31132   0.67166   0.00000  Uiso   1.00
C23    C     0.52485   0.29499   0.68433   0.00000  Uiso   1.00
H24    H     0.31268   0.98407   0.90506   0.00000  Uiso   1.00
H25    H     0.29965   0.09855   0.04721   0.00000  Uiso   1.00
H26    H     0.10451   0.78094   0.82455   0.00000  Uiso   1.00
H27    H     0.54980   0.04629   0.86235   0.00000  Uiso   1.00
H28    H     0.25996   0.26702   0.17489   0.00000  Uiso   1.00
H29    H     0.84853   0.59731   0.70539   0.00000  Uiso   1.00
H30    H     0.78751   0.15684   0.78509   0.00000  Uiso   1.00
H31    H     0.11854   0.30448   0.67451   0.00000  Uiso   1.00
H32    H     0.09486   0.43655   0.80402   0.00000  Uiso   1.00
H33    H     0.89972   0.11893   0.58136   0.00000  Uiso   1.00
H34    H     0.34501   0.38428   0.61916   0.00000  Uiso   1.00
H35    H     0.09374   0.54135   0.97750   0.00000  Uiso   1.00
H36    H     0.68231   0.87163   0.50800   0.00000  Uiso   1.00
H37    H     0.62129   0.43117   0.58771   0.00000  Uiso   1.00
O38    O     0.16473   0.48526   0.16554   0.00000  Uiso   1.00
O39    O     0.62497   0.60662   0.54956   0.00000  Uiso   1.00
O40    O     0.85688   0.34072   0.65414   0.00000  Uiso   1.00
N41    N     0.22411   0.31348   0.11066   0.00000  Uiso   1.00
N42    N     0.83944   0.68734   0.67171   0.00000  Uiso   1.00
N43    N     0.71729   0.21043   0.74622   0.00000  Uiso   1.00
N44    N     0.13467   0.46109   0.00445   0.00000  Uiso   1.00
N45    N     0.75000   0.83495   0.56550   0.00000  Uiso   1.00
N46    N     0.62785   0.35804   0.64000   0.00000  Uiso   1.00
C47    C     0.73179   0.94252   0.14775   0.00000  Uiso   1.00
C48    C     0.76578   0.83588   0.10249   0.00000  Uiso   1.00
C49    C     0.74456   0.82846   0.00527   0.00000  Uiso   1.00
C50    C     0.78253   0.72328   0.97826   0.00000  Uiso   1.00
C51    C     0.82668   0.57208   0.89766   0.00000  Uiso   1.00
C52    C     0.87182   0.00845   0.22346   0.00000  Uiso   1.00
C53    C     0.93973   0.14612   0.22795   0.00000  Uiso   1.00
C54    C     0.06696   0.18621   0.30278   0.00000  Uiso   1.00
C55    C     0.27568   0.30294   0.41003   0.00000  Uiso   1.00
C56    C     0.62988   0.86427   0.20291   0.00000  Uiso   1.00
C57    C     0.49438   0.88074   0.19015   0.00000  Uiso   1.00
C58    C     0.41792   0.79947   0.24770   0.00000  Uiso   1.00
C59    C     0.25098   0.69234   0.32305   0.00000  Uiso   1.00
C60    C     0.83698   0.76893   0.27266   0.00000  Uiso   1.00
C61    C     0.82292   0.74160   0.17034   0.00000  Uiso   1.00
C62    C     0.86093   0.63640   0.14347   0.00000  Uiso   1.00
C63    C     0.83976   0.62882   0.04622   0.00000  Uiso   1.00
C64    C     0.92895   0.91417   0.29130   0.00000  Uiso   1.00
C65    C     0.05611   0.95407   0.36615   0.00000  Uiso   1.00
C66    C     0.12420   0.09176   0.37075   0.00000  Uiso   1.00
C67    C     0.68701   0.76998   0.27076   0.00000  Uiso   1.00
C68    C     0.61075   0.68868   0.32834   0.00000  Uiso   1.00
C69    C     0.47515   0.70501   0.31567   0.00000  Uiso   1.00
H70    H     0.68732   0.01593   0.09494   0.00000  Uiso   1.00
H71    H     0.70035   0.90145   0.95279   0.00000  Uiso   1.00
H72    H     0.89549   0.21906   0.17545   0.00000  Uiso   1.00
H73    H     0.45020   0.95371   0.13765   0.00000  Uiso   1.00
H74    H     0.74004   0.73298   0.82511   0.00000  Uiso   1.00
H75    H     0.15147   0.40269   0.29461   0.00000  Uiso   1.00
H76    H     0.21249   0.84316   0.21491   0.00000  Uiso   1.00
H77    H     0.88146   0.69552   0.32549   0.00000  Uiso   1.00
H78    H     0.90514   0.56345   0.19598   0.00000  Uiso   1.00
H79    H     0.10028   0.88107   0.41864   0.00000  Uiso   1.00
H80    H     0.65499   0.61572   0.38084   0.00000  Uiso   1.00
H81    H     0.90626   0.45865   0.02250   0.00000  Uiso   1.00
H82    H     0.31769   0.12837   0.49200   0.00000  Uiso   1.00
H83    H     0.37871   0.56883   0.41229   0.00000  Uiso   1.00
O84    O     0.83527   0.51474   0.83446   0.00000  Uiso   1.00
O85    O     0.37503   0.39338   0.45044   0.00000  Uiso   1.00
O86    O     0.14312   0.65928   0.34586   0.00000  Uiso   1.00
N87    N     0.77589   0.68652   0.88934   0.00000  Uiso   1.00
N88    N     0.16056   0.31266   0.32829   0.00000  Uiso   1.00
N89    N     0.28271   0.78957   0.25378   0.00000  Uiso   1.00
N90    N     0.86533   0.53891   0.99555   0.00000  Uiso   1.00
N91    N     0.25000   0.16505   0.43450   0.00000  Uiso   1.00
N92    N     0.37215   0.64196   0.36000   0.00000  Uiso   1.00
