data_job_03210
_audit_creation_date              2018-12-19
_audit_creation_method            'Materials Studio'
_symmetry_space_group_name_H-M    'P1'
_symmetry_Int_Tables_number       1
_symmetry_cell_setting            triclinic
loop_
_symmetry_equiv_pos_as_xyz
  x,y,z
_cell_length_a                    20.2675
_cell_length_b                    20.2675
_cell_length_c                    12.4932
_cell_angle_alpha                 90.0000
_cell_angle_beta                  90.0000
_cell_angle_gamma                 90.0000
loop_
_atom_site_label
_atom_site_type_symbol
_atom_site_fract_x
_atom_site_fract_y
_atom_site_fract_z
_atom_site_U_iso_or_equiv
_atom_site_adp_type
_atom_site_occupancy
C1     C     0.69454   0.05558   0.44299   0.00000  Uiso   1.00
C2     C     0.74937   0.04788   0.36034   0.00000  Uiso   1.00
C3     C     0.75430   0.08233   0.26467   0.00000  Uiso   1.00
C4     C     0.80817   0.06816   0.19999   0.00000  Uiso   1.00
C5     C     0.88610   0.06332   0.06707   0.00000  Uiso   1.00
C6     C     0.66515   0.98697   0.45829   0.00000  Uiso   1.00
C7     C     0.59926   0.97021   0.44501   0.00000  Uiso   1.00
C8     C     0.58223   0.90477   0.46280   0.00000  Uiso   1.00
C9     C     0.52941   0.80537   0.48203   0.00000  Uiso   1.00
C10    C     0.72866   0.07267   0.54818   0.00000  Uiso   1.00
C11    C     0.71617   0.12797   0.61049   0.00000  Uiso   1.00
C12    C     0.75260   0.13467   0.70397   0.00000  Uiso   1.00
C13    C     0.79839   0.16833   0.86276   0.00000  Uiso   1.00
C14    C     0.78146   0.96915   0.49823   0.00000  Uiso   1.00
C15    C     0.79658   0.00093   0.39034   0.00000  Uiso   1.00
C16    C     0.85046   0.98671   0.32579   0.00000  Uiso   1.00
C17    C     0.85546   0.02114   0.23005   0.00000  Uiso   1.00
C18    C     0.71235   0.94002   0.48830   0.00000  Uiso   1.00
C19    C     0.69542   0.87459   0.50612   0.00000  Uiso   1.00
C20    C     0.62953   0.85774   0.49286   0.00000  Uiso   1.00
C21    C     0.77587   0.02573   0.57818   0.00000  Uiso   1.00
C22    C     0.81233   0.03234   0.67159   0.00000  Uiso   1.00
C23    C     0.79990   0.08764   0.73403   0.00000  Uiso   1.00
H24    H     0.65778   0.09213   0.41963   0.00000  Uiso   1.00
H25    H     0.71775   0.11865   0.24148   0.00000  Uiso   1.00
H26    H     0.56274   0.00655   0.42180   0.00000  Uiso   1.00
H27    H     0.67963   0.16428   0.58724   0.00000  Uiso   1.00
H28    H     0.80503   0.12734   0.05718   0.00000  Uiso   1.00
H29    H     0.47818   0.89098   0.43742   0.00000  Uiso   1.00
H30    H     0.72467   0.22358   0.78631   0.00000  Uiso   1.00
H31    H     0.81821   0.93260   0.52159   0.00000  Uiso   1.00
H32    H     0.88698   0.95038   0.34903   0.00000  Uiso   1.00
H33    H     0.73197   0.83828   0.52934   0.00000  Uiso   1.00
H34    H     0.84886   0.99601   0.69479   0.00000  Uiso   1.00
H35    H     0.94239   0.99076   0.14446   0.00000  Uiso   1.00
H36    H     0.61553   0.75440   0.52472   0.00000  Uiso   1.00
H37    H     0.86202   0.08700   0.87359   0.00000  Uiso   1.00
O38    O     0.91604   0.07361   0.98545   0.00000  Uiso   1.00
O39    O     0.48722   0.76351   0.48434   0.00000  Uiso   1.00
O40    O     0.81061   0.19988   0.94205   0.00000  Uiso   1.00
N41    N     0.82793   0.09277   0.10141   0.00000  Uiso   1.00
N42    N     0.52234   0.87178   0.45690   0.00000  Uiso   1.00
N43    N     0.75278   0.18273   0.78309   0.00000  Uiso   1.00
N44    N     0.90184   0.01928   0.14838   0.00000  Uiso   1.00
N45    N     0.59625   0.79829   0.50387   0.00000  Uiso   1.00
N46    N     0.82669   0.10923   0.83006   0.00000  Uiso   1.00
C47    C     0.30546   0.94442   0.44299   0.00000  Uiso   1.00
C48    C     0.25063   0.95212   0.36034   0.00000  Uiso   1.00
C49    C     0.24570   0.91767   0.26467   0.00000  Uiso   1.00
C50    C     0.19183   0.93184   0.19999   0.00000  Uiso   1.00
C51    C     0.11390   0.93668   0.06707   0.00000  Uiso   1.00
C52    C     0.33485   0.01303   0.45829   0.00000  Uiso   1.00
C53    C     0.40074   0.02979   0.44501   0.00000  Uiso   1.00
C54    C     0.41777   0.09523   0.46280   0.00000  Uiso   1.00
C55    C     0.47059   0.19463   0.48203   0.00000  Uiso   1.00
C56    C     0.27134   0.92733   0.54818   0.00000  Uiso   1.00
C57    C     0.28383   0.87203   0.61049   0.00000  Uiso   1.00
C58    C     0.24740   0.86533   0.70397   0.00000  Uiso   1.00
C59    C     0.20161   0.83167   0.86276   0.00000  Uiso   1.00
C60    C     0.21854   0.03085   0.49823   0.00000  Uiso   1.00
C61    C     0.20342   0.99907   0.39034   0.00000  Uiso   1.00
C62    C     0.14954   0.01329   0.32579   0.00000  Uiso   1.00
C63    C     0.14454   0.97886   0.23005   0.00000  Uiso   1.00
C64    C     0.28765   0.05998   0.48830   0.00000  Uiso   1.00
C65    C     0.30458   0.12541   0.50612   0.00000  Uiso   1.00
C66    C     0.37047   0.14226   0.49286   0.00000  Uiso   1.00
C67    C     0.22413   0.97427   0.57818   0.00000  Uiso   1.00
C68    C     0.18767   0.96766   0.67159   0.00000  Uiso   1.00
C69    C     0.20010   0.91236   0.73403   0.00000  Uiso   1.00
H70    H     0.34222   0.90787   0.41963   0.00000  Uiso   1.00
H71    H     0.28225   0.88135   0.24148   0.00000  Uiso   1.00
H72    H     0.43726   0.99345   0.42180   0.00000  Uiso   1.00
H73    H     0.32037   0.83572   0.58724   0.00000  Uiso   1.00
H74    H     0.19497   0.87266   0.05718   0.00000  Uiso   1.00
H75    H     0.52182   0.10902   0.43742   0.00000  Uiso   1.00
H76    H     0.27533   0.77642   0.78631   0.00000  Uiso   1.00
H77    H     0.18179   0.06740   0.52159   0.00000  Uiso   1.00
H78    H     0.11302   0.04962   0.34903   0.00000  Uiso   1.00
H79    H     0.26803   0.16172   0.52934   0.00000  Uiso   1.00
H80    H     0.15114   0.00399   0.69479   0.00000  Uiso   1.00
H81    H     0.05761   0.00924   0.14446   0.00000  Uiso   1.00
H82    H     0.38447   0.24560   0.52472   0.00000  Uiso   1.00
H83    H     0.13798   0.91300   0.87359   0.00000  Uiso   1.00
O84    O     0.08396   0.92639   0.98545   0.00000  Uiso   1.00
O85    O     0.51278   0.23649   0.48434   0.00000  Uiso   1.00
O86    O     0.18939   0.80012   0.94205   0.00000  Uiso   1.00
N87    N     0.17207   0.90723   0.10141   0.00000  Uiso   1.00
N88    N     0.47766   0.12822   0.45690   0.00000  Uiso   1.00
N89    N     0.24722   0.81727   0.78309   0.00000  Uiso   1.00
N90    N     0.09816   0.98072   0.14838   0.00000  Uiso   1.00
N91    N     0.40375   0.20171   0.50387   0.00000  Uiso   1.00
N92    N     0.17331   0.89077   0.83006   0.00000  Uiso   1.00
C93    C     0.05558   0.30546   0.55701   0.00000  Uiso   1.00
C94    C     0.04788   0.25063   0.63966   0.00000  Uiso   1.00
C95    C     0.08233   0.24570   0.73533   0.00000  Uiso   1.00
C96    C     0.06816   0.19183   0.80001   0.00000  Uiso   1.00
C97    C     0.06332   0.11390   0.93293   0.00000  Uiso   1.00
C98    C     0.98697   0.33485   0.54171   0.00000  Uiso   1.00
C99    C     0.97021   0.40074   0.55499   0.00000  Uiso   1.00
C100   C     0.90477   0.41777   0.53720   0.00000  Uiso   1.00
C101   C     0.80537   0.47059   0.51797   0.00000  Uiso   1.00
C102   C     0.07267   0.27134   0.45182   0.00000  Uiso   1.00
C103   C     0.12797   0.28383   0.38951   0.00000  Uiso   1.00
C104   C     0.13467   0.24740   0.29603   0.00000  Uiso   1.00
C105   C     0.16833   0.20161   0.13724   0.00000  Uiso   1.00
C106   C     0.96915   0.21854   0.50177   0.00000  Uiso   1.00
C107   C     0.00093   0.20342   0.60966   0.00000  Uiso   1.00
C108   C     0.98671   0.14954   0.67421   0.00000  Uiso   1.00
C109   C     0.02114   0.14454   0.76995   0.00000  Uiso   1.00
C110   C     0.94002   0.28765   0.51170   0.00000  Uiso   1.00
C111   C     0.87459   0.30458   0.49388   0.00000  Uiso   1.00
C112   C     0.85774   0.37047   0.50714   0.00000  Uiso   1.00
C113   C     0.02573   0.22413   0.42182   0.00000  Uiso   1.00
C114   C     0.03234   0.18767   0.32841   0.00000  Uiso   1.00
C115   C     0.08764   0.20010   0.26597   0.00000  Uiso   1.00
H116   H     0.09213   0.34222   0.58037   0.00000  Uiso   1.00
H117   H     0.11865   0.28225   0.75852   0.00000  Uiso   1.00
H118   H     0.00655   0.43726   0.57820   0.00000  Uiso   1.00
H119   H     0.16428   0.32037   0.41276   0.00000  Uiso   1.00
H120   H     0.12734   0.19497   0.94282   0.00000  Uiso   1.00
H121   H     0.89098   0.52182   0.56258   0.00000  Uiso   1.00
H122   H     0.22358   0.27533   0.21369   0.00000  Uiso   1.00
H123   H     0.93260   0.18179   0.47841   0.00000  Uiso   1.00
H124   H     0.95038   0.11302   0.65097   0.00000  Uiso   1.00
H125   H     0.83828   0.26803   0.47066   0.00000  Uiso   1.00
H126   H     0.99601   0.15114   0.30521   0.00000  Uiso   1.00
H127   H     0.99076   0.05761   0.85554   0.00000  Uiso   1.00
H128   H     0.75440   0.38447   0.47528   0.00000  Uiso   1.00
H129   H     0.08700   0.13798   0.12641   0.00000  Uiso   1.00
O130   O     0.07361   0.08396   0.01455   0.00000  Uiso   1.00
O131   O     0.76351   0.51278   0.51566   0.00000  Uiso   1.00
O132   O     0.19988   0.18939   0.05795   0.00000  Uiso   1.00
N133   N     0.09277   0.17207   0.89859   0.00000  Uiso   1.00
N134   N     0.87178   0.47766   0.54310   0.00000  Uiso   1.00
N135   N     0.18273   0.24722   0.21691   0.00000  Uiso   1.00
N136   N     0.01928   0.09816   0.85162   0.00000  Uiso   1.00
N137   N     0.79829   0.40375   0.49613   0.00000  Uiso   1.00
N138   N     0.10923   0.17331   0.16994   0.00000  Uiso   1.00
C139   C     0.94442   0.69454   0.55701   0.00000  Uiso   1.00
C140   C     0.95212   0.74937   0.63966   0.00000  Uiso   1.00
C141   C     0.91767   0.75430   0.73533   0.00000  Uiso   1.00
C142   C     0.93184   0.80817   0.80001   0.00000  Uiso   1.00
C143   C     0.93668   0.88610   0.93293   0.00000  Uiso   1.00
C144   C     0.01303   0.66515   0.54171   0.00000  Uiso   1.00
C145   C     0.02979   0.59926   0.55499   0.00000  Uiso   1.00
C146   C     0.09523   0.58223   0.53720   0.00000  Uiso   1.00
C147   C     0.19463   0.52941   0.51797   0.00000  Uiso   1.00
C148   C     0.92733   0.72866   0.45182   0.00000  Uiso   1.00
C149   C     0.87203   0.71617   0.38951   0.00000  Uiso   1.00
C150   C     0.86533   0.75260   0.29603   0.00000  Uiso   1.00
C151   C     0.83167   0.79839   0.13724   0.00000  Uiso   1.00
C152   C     0.03085   0.78146   0.50177   0.00000  Uiso   1.00
C153   C     0.99907   0.79658   0.60966   0.00000  Uiso   1.00
C154   C     0.01329   0.85046   0.67421   0.00000  Uiso   1.00
C155   C     0.97886   0.85546   0.76995   0.00000  Uiso   1.00
C156   C     0.05998   0.71235   0.51170   0.00000  Uiso   1.00
C157   C     0.12541   0.69542   0.49388   0.00000  Uiso   1.00
C158   C     0.14226   0.62953   0.50714   0.00000  Uiso   1.00
C159   C     0.97427   0.77587   0.42182   0.00000  Uiso   1.00
C160   C     0.96766   0.81233   0.32841   0.00000  Uiso   1.00
C161   C     0.91236   0.79990   0.26597   0.00000  Uiso   1.00
H162   H     0.90787   0.65778   0.58037   0.00000  Uiso   1.00
H163   H     0.88135   0.71775   0.75852   0.00000  Uiso   1.00
H164   H     0.99345   0.56274   0.57820   0.00000  Uiso   1.00
H165   H     0.83572   0.67963   0.41276   0.00000  Uiso   1.00
H166   H     0.87266   0.80503   0.94282   0.00000  Uiso   1.00
H167   H     0.10902   0.47818   0.56258   0.00000  Uiso   1.00
H168   H     0.77642   0.72467   0.21369   0.00000  Uiso   1.00
H169   H     0.06740   0.81821   0.47841   0.00000  Uiso   1.00
H170   H     0.04962   0.88698   0.65097   0.00000  Uiso   1.00
H171   H     0.16172   0.73197   0.47066   0.00000  Uiso   1.00
H172   H     0.00399   0.84886   0.30521   0.00000  Uiso   1.00
H173   H     0.00924   0.94239   0.85554   0.00000  Uiso   1.00
H174   H     0.24560   0.61553   0.47528   0.00000  Uiso   1.00
H175   H     0.91300   0.86202   0.12641   0.00000  Uiso   1.00
O176   O     0.92639   0.91604   0.01455   0.00000  Uiso   1.00
O177   O     0.23649   0.48722   0.51566   0.00000  Uiso   1.00
O178   O     0.80012   0.81061   0.05795   0.00000  Uiso   1.00
N179   N     0.90723   0.82793   0.89859   0.00000  Uiso   1.00
N180   N     0.12822   0.52234   0.54310   0.00000  Uiso   1.00
N181   N     0.81727   0.75278   0.21691   0.00000  Uiso   1.00
N182   N     0.98072   0.90184   0.85162   0.00000  Uiso   1.00
N183   N     0.20171   0.59625   0.49613   0.00000  Uiso   1.00
N184   N     0.89077   0.82669   0.16994   0.00000  Uiso   1.00
C185   C     0.80546   0.55558   0.05701   0.00000  Uiso   1.00
C186   C     0.75063   0.54788   0.13966   0.00000  Uiso   1.00
C187   C     0.74570   0.58233   0.23533   0.00000  Uiso   1.00
C188   C     0.69183   0.56816   0.30001   0.00000  Uiso   1.00
C189   C     0.61390   0.56332   0.43293   0.00000  Uiso   1.00
C190   C     0.83485   0.48697   0.04171   0.00000  Uiso   1.00
C191   C     0.90074   0.47021   0.05499   0.00000  Uiso   1.00
C192   C     0.91777   0.40477   0.03720   0.00000  Uiso   1.00
C193   C     0.97059   0.30537   0.01797   0.00000  Uiso   1.00
C194   C     0.77134   0.57267   0.95182   0.00000  Uiso   1.00
C195   C     0.78383   0.62797   0.88951   0.00000  Uiso   1.00
C196   C     0.74740   0.63467   0.79603   0.00000  Uiso   1.00
C197   C     0.70161   0.66833   0.63724   0.00000  Uiso   1.00
C198   C     0.71854   0.46915   0.00177   0.00000  Uiso   1.00
C199   C     0.70342   0.50093   0.10966   0.00000  Uiso   1.00
C200   C     0.64954   0.48671   0.17421   0.00000  Uiso   1.00
C201   C     0.64454   0.52114   0.26995   0.00000  Uiso   1.00
C202   C     0.78765   0.44002   0.01170   0.00000  Uiso   1.00
C203   C     0.80458   0.37459   0.99388   0.00000  Uiso   1.00
C204   C     0.87047   0.35774   0.00714   0.00000  Uiso   1.00
C205   C     0.72413   0.52573   0.92182   0.00000  Uiso   1.00
C206   C     0.68767   0.53234   0.82841   0.00000  Uiso   1.00
C207   C     0.70010   0.58764   0.76597   0.00000  Uiso   1.00
H208   H     0.84222   0.59213   0.08037   0.00000  Uiso   1.00
H209   H     0.78225   0.61865   0.25852   0.00000  Uiso   1.00
H210   H     0.93726   0.50655   0.07820   0.00000  Uiso   1.00
H211   H     0.82037   0.66428   0.91276   0.00000  Uiso   1.00
H212   H     0.69497   0.62734   0.44282   0.00000  Uiso   1.00
H213   H     0.02182   0.39098   0.06258   0.00000  Uiso   1.00
H214   H     0.77533   0.72358   0.71369   0.00000  Uiso   1.00
H215   H     0.68179   0.43260   0.97841   0.00000  Uiso   1.00
H216   H     0.61302   0.45038   0.15097   0.00000  Uiso   1.00
H217   H     0.76803   0.33828   0.97066   0.00000  Uiso   1.00
H218   H     0.65114   0.49601   0.80521   0.00000  Uiso   1.00
H219   H     0.55761   0.49076   0.35554   0.00000  Uiso   1.00
H220   H     0.88447   0.25440   0.97528   0.00000  Uiso   1.00
H221   H     0.63798   0.58700   0.62641   0.00000  Uiso   1.00
O222   O     0.58396   0.57361   0.51455   0.00000  Uiso   1.00
O223   O     0.01278   0.26351   0.01566   0.00000  Uiso   1.00
O224   O     0.68939   0.69988   0.55795   0.00000  Uiso   1.00
N225   N     0.67207   0.59277   0.39859   0.00000  Uiso   1.00
N226   N     0.97766   0.37178   0.04310   0.00000  Uiso   1.00
N227   N     0.74722   0.68273   0.71691   0.00000  Uiso   1.00
N228   N     0.59816   0.51928   0.35162   0.00000  Uiso   1.00
N229   N     0.90375   0.29829   0.99613   0.00000  Uiso   1.00
N230   N     0.67331   0.60923   0.66994   0.00000  Uiso   1.00
C231   C     0.19454   0.44442   0.05701   0.00000  Uiso   1.00
C232   C     0.24937   0.45212   0.13966   0.00000  Uiso   1.00
C233   C     0.25430   0.41767   0.23533   0.00000  Uiso   1.00
C234   C     0.30817   0.43184   0.30001   0.00000  Uiso   1.00
C235   C     0.38610   0.43668   0.43293   0.00000  Uiso   1.00
C236   C     0.16515   0.51303   0.04171   0.00000  Uiso   1.00
C237   C     0.09926   0.52979   0.05499   0.00000  Uiso   1.00
C238   C     0.08223   0.59523   0.03720   0.00000  Uiso   1.00
C239   C     0.02941   0.69463   0.01797   0.00000  Uiso   1.00
C240   C     0.22866   0.42733   0.95182   0.00000  Uiso   1.00
C241   C     0.21617   0.37203   0.88951   0.00000  Uiso   1.00
C242   C     0.25260   0.36533   0.79603   0.00000  Uiso   1.00
C243   C     0.29839   0.33167   0.63724   0.00000  Uiso   1.00
C244   C     0.28146   0.53085   0.00177   0.00000  Uiso   1.00
C245   C     0.29658   0.49907   0.10966   0.00000  Uiso   1.00
C246   C     0.35046   0.51329   0.17421   0.00000  Uiso   1.00
C247   C     0.35546   0.47886   0.26995   0.00000  Uiso   1.00
C248   C     0.21235   0.55998   0.01170   0.00000  Uiso   1.00
C249   C     0.19542   0.62541   0.99388   0.00000  Uiso   1.00
C250   C     0.12953   0.64226   0.00714   0.00000  Uiso   1.00
C251   C     0.27587   0.47427   0.92182   0.00000  Uiso   1.00
C252   C     0.31233   0.46766   0.82841   0.00000  Uiso   1.00
C253   C     0.29990   0.41236   0.76597   0.00000  Uiso   1.00
H254   H     0.15778   0.40787   0.08037   0.00000  Uiso   1.00
H255   H     0.21775   0.38135   0.25852   0.00000  Uiso   1.00
H256   H     0.06274   0.49345   0.07820   0.00000  Uiso   1.00
H257   H     0.17963   0.33572   0.91276   0.00000  Uiso   1.00
H258   H     0.30503   0.37266   0.44282   0.00000  Uiso   1.00
H259   H     0.97818   0.60902   0.06258   0.00000  Uiso   1.00
H260   H     0.22467   0.27642   0.71369   0.00000  Uiso   1.00
H261   H     0.31821   0.56740   0.97841   0.00000  Uiso   1.00
H262   H     0.38698   0.54962   0.15097   0.00000  Uiso   1.00
H263   H     0.23197   0.66172   0.97066   0.00000  Uiso   1.00
H264   H     0.34886   0.50399   0.80521   0.00000  Uiso   1.00
H265   H     0.44239   0.50924   0.35554   0.00000  Uiso   1.00
H266   H     0.11553   0.74560   0.97528   0.00000  Uiso   1.00
H267   H     0.36202   0.41300   0.62641   0.00000  Uiso   1.00
O268   O     0.41604   0.42639   0.51455   0.00000  Uiso   1.00
O269   O     0.98722   0.73649   0.01566   0.00000  Uiso   1.00
O270   O     0.31061   0.30012   0.55795   0.00000  Uiso   1.00
N271   N     0.32793   0.40723   0.39859   0.00000  Uiso   1.00
N272   N     0.02234   0.62822   0.04310   0.00000  Uiso   1.00
N273   N     0.25278   0.31727   0.71691   0.00000  Uiso   1.00
N274   N     0.40184   0.48072   0.35162   0.00000  Uiso   1.00
N275   N     0.09625   0.70171   0.99613   0.00000  Uiso   1.00
N276   N     0.32669   0.39077   0.66994   0.00000  Uiso   1.00
C277   C     0.44442   0.80546   0.94299   0.00000  Uiso   1.00
C278   C     0.45212   0.75063   0.86034   0.00000  Uiso   1.00
C279   C     0.41767   0.74570   0.76467   0.00000  Uiso   1.00
C280   C     0.43184   0.69183   0.69999   0.00000  Uiso   1.00
C281   C     0.43668   0.61390   0.56707   0.00000  Uiso   1.00
C282   C     0.51303   0.83485   0.95829   0.00000  Uiso   1.00
C283   C     0.52979   0.90074   0.94501   0.00000  Uiso   1.00
C284   C     0.59523   0.91777   0.96280   0.00000  Uiso   1.00
C285   C     0.69463   0.97059   0.98203   0.00000  Uiso   1.00
C286   C     0.42733   0.77134   0.04818   0.00000  Uiso   1.00
C287   C     0.37203   0.78383   0.11049   0.00000  Uiso   1.00
C288   C     0.36533   0.74740   0.20397   0.00000  Uiso   1.00
C289   C     0.33167   0.70161   0.36276   0.00000  Uiso   1.00
C290   C     0.53085   0.71854   0.99823   0.00000  Uiso   1.00
C291   C     0.49907   0.70342   0.89034   0.00000  Uiso   1.00
C292   C     0.51329   0.64954   0.82579   0.00000  Uiso   1.00
C293   C     0.47886   0.64454   0.73005   0.00000  Uiso   1.00
C294   C     0.55998   0.78765   0.98830   0.00000  Uiso   1.00
C295   C     0.62541   0.80458   0.00612   0.00000  Uiso   1.00
C296   C     0.64226   0.87047   0.99286   0.00000  Uiso   1.00
C297   C     0.47427   0.72413   0.07818   0.00000  Uiso   1.00
C298   C     0.46766   0.68767   0.17159   0.00000  Uiso   1.00
C299   C     0.41236   0.70010   0.23403   0.00000  Uiso   1.00
H300   H     0.40787   0.84222   0.91963   0.00000  Uiso   1.00
H301   H     0.38135   0.78225   0.74148   0.00000  Uiso   1.00
H302   H     0.49345   0.93726   0.92180   0.00000  Uiso   1.00
H303   H     0.33572   0.82037   0.08724   0.00000  Uiso   1.00
H304   H     0.37266   0.69497   0.55718   0.00000  Uiso   1.00
H305   H     0.60902   0.02182   0.93742   0.00000  Uiso   1.00
H306   H     0.27642   0.77533   0.28631   0.00000  Uiso   1.00
H307   H     0.56740   0.68179   0.02159   0.00000  Uiso   1.00
H308   H     0.54962   0.61302   0.84903   0.00000  Uiso   1.00
H309   H     0.66172   0.76803   0.02934   0.00000  Uiso   1.00
H310   H     0.50399   0.65114   0.19479   0.00000  Uiso   1.00
H311   H     0.50924   0.55761   0.64446   0.00000  Uiso   1.00
H312   H     0.74560   0.88447   0.02472   0.00000  Uiso   1.00
H313   H     0.41300   0.63798   0.37359   0.00000  Uiso   1.00
O314   O     0.42639   0.58396   0.48545   0.00000  Uiso   1.00
O315   O     0.73649   0.01278   0.98434   0.00000  Uiso   1.00
O316   O     0.30012   0.68939   0.44205   0.00000  Uiso   1.00
N317   N     0.40723   0.67207   0.60141   0.00000  Uiso   1.00
N318   N     0.62822   0.97766   0.95690   0.00000  Uiso   1.00
N319   N     0.31727   0.74722   0.28309   0.00000  Uiso   1.00
N320   N     0.48072   0.59816   0.64838   0.00000  Uiso   1.00
N321   N     0.70171   0.90375   0.00387   0.00000  Uiso   1.00
N322   N     0.39077   0.67331   0.33006   0.00000  Uiso   1.00
C323   C     0.55558   0.19454   0.94299   0.00000  Uiso   1.00
C324   C     0.54788   0.24937   0.86034   0.00000  Uiso   1.00
C325   C     0.58233   0.25430   0.76467   0.00000  Uiso   1.00
C326   C     0.56816   0.30817   0.69999   0.00000  Uiso   1.00
C327   C     0.56332   0.38610   0.56707   0.00000  Uiso   1.00
C328   C     0.48697   0.16515   0.95829   0.00000  Uiso   1.00
C329   C     0.47021   0.09926   0.94501   0.00000  Uiso   1.00
C330   C     0.40477   0.08223   0.96280   0.00000  Uiso   1.00
C331   C     0.30537   0.02941   0.98203   0.00000  Uiso   1.00
C332   C     0.57267   0.22866   0.04818   0.00000  Uiso   1.00
C333   C     0.62797   0.21617   0.11049   0.00000  Uiso   1.00
C334   C     0.63467   0.25260   0.20397   0.00000  Uiso   1.00
C335   C     0.66833   0.29839   0.36276   0.00000  Uiso   1.00
C336   C     0.46915   0.28146   0.99823   0.00000  Uiso   1.00
C337   C     0.50093   0.29658   0.89034   0.00000  Uiso   1.00
C338   C     0.48671   0.35046   0.82579   0.00000  Uiso   1.00
C339   C     0.52114   0.35546   0.73005   0.00000  Uiso   1.00
C340   C     0.44002   0.21235   0.98830   0.00000  Uiso   1.00
C341   C     0.37459   0.19542   0.00612   0.00000  Uiso   1.00
C342   C     0.35774   0.12953   0.99286   0.00000  Uiso   1.00
C343   C     0.52573   0.27587   0.07818   0.00000  Uiso   1.00
C344   C     0.53234   0.31233   0.17159   0.00000  Uiso   1.00
C345   C     0.58764   0.29990   0.23403   0.00000  Uiso   1.00
H346   H     0.59213   0.15778   0.91963   0.00000  Uiso   1.00
H347   H     0.61865   0.21775   0.74148   0.00000  Uiso   1.00
H348   H     0.50655   0.06274   0.92180   0.00000  Uiso   1.00
H349   H     0.66428   0.17963   0.08724   0.00000  Uiso   1.00
H350   H     0.62734   0.30503   0.55718   0.00000  Uiso   1.00
H351   H     0.39098   0.97818   0.93742   0.00000  Uiso   1.00
H352   H     0.72358   0.22467   0.28631   0.00000  Uiso   1.00
H353   H     0.43260   0.31821   0.02159   0.00000  Uiso   1.00
H354   H     0.45038   0.38698   0.84903   0.00000  Uiso   1.00
H355   H     0.33828   0.23197   0.02934   0.00000  Uiso   1.00
H356   H     0.49601   0.34886   0.19479   0.00000  Uiso   1.00
H357   H     0.49076   0.44239   0.64446   0.00000  Uiso   1.00
H358   H     0.25440   0.11553   0.02472   0.00000  Uiso   1.00
H359   H     0.58700   0.36202   0.37359   0.00000  Uiso   1.00
O360   O     0.57361   0.41604   0.48545   0.00000  Uiso   1.00
O361   O     0.26351   0.98722   0.98434   0.00000  Uiso   1.00
O362   O     0.69988   0.31061   0.44205   0.00000  Uiso   1.00
N363   N     0.59277   0.32793   0.60141   0.00000  Uiso   1.00
N364   N     0.37178   0.02234   0.95690   0.00000  Uiso   1.00
N365   N     0.68273   0.25278   0.28309   0.00000  Uiso   1.00
N366   N     0.51928   0.40184   0.64838   0.00000  Uiso   1.00
N367   N     0.29829   0.09625   0.00387   0.00000  Uiso   1.00
N368   N     0.60923   0.32669   0.33006   0.00000  Uiso   1.00
