data_job_04209
_audit_creation_date              2018-12-19
_audit_creation_method            'Materials Studio'
_symmetry_space_group_name_H-M    'P1'
_symmetry_Int_Tables_number       1
_symmetry_cell_setting            triclinic
loop_
_symmetry_equiv_pos_as_xyz
  x,y,z
_cell_length_a                    22.1276
_cell_length_b                    8.9833
_cell_length_c                    37.6512
_cell_angle_alpha                 90.0000
_cell_angle_beta                  148.2436
_cell_angle_gamma                 90.0000
loop_
_atom_site_label
_atom_site_type_symbol
_atom_site_fract_x
_atom_site_fract_y
_atom_site_fract_z
_atom_site_U_iso_or_equiv
_atom_site_adp_type
_atom_site_occupancy
C1     C     0.96125   0.51135   0.62024   0.00000  Uiso   1.00
C2     C     0.84470   0.45427   0.57446   0.00000  Uiso   1.00
C3     C     0.78375   0.50667   0.57310   0.00000  Uiso   1.00
C4     C     0.67869   0.43976   0.52761   0.00000  Uiso   1.00
C5     C     0.50420   0.36858   0.46301   0.00000  Uiso   1.00
C6     C     0.04038   0.37615   0.65899   0.00000  Uiso   1.00
C7     C     0.14397   0.36290   0.72870   0.00000  Uiso   1.00
C8     C     0.20365   0.23024   0.75435   0.00000  Uiso   1.00
C9     C     0.33301   0.03784   0.82098   0.00000  Uiso   1.00
C10    C     0.94508   0.55835   0.57357   0.00000  Uiso   1.00
C11    C     0.96857   0.69828   0.57148   0.00000  Uiso   1.00
C12    C     0.94804   0.71901   0.52523   0.00000  Uiso   1.00
C13    C     0.92943   0.80950   0.45925   0.00000  Uiso   1.00
C14    C     0.88305   0.29936   0.54185   0.00000  Uiso   1.00
C15    C     0.80223   0.33911   0.53188   0.00000  Uiso   1.00
C16    C     0.69723   0.27212   0.48637   0.00000  Uiso   1.00
C17    C     0.63614   0.32441   0.48495   0.00000  Uiso   1.00
C18    C     0.99791   0.26101   0.61641   0.00000  Uiso   1.00
C19    C     0.05746   0.12835   0.64196   0.00000  Uiso   1.00
C20    C     0.16110   0.11488   0.71169   0.00000  Uiso   1.00
C21    C     0.90261   0.44321   0.53099   0.00000  Uiso   1.00
C22    C     0.88205   0.46373   0.48474   0.00000  Uiso   1.00
C23    C     0.90549   0.60366   0.48258   0.00000  Uiso   1.00
H24    H     0.99432   0.60100   0.65340   0.00000  Uiso   1.00
H25    H     0.81665   0.59577   0.60607   0.00000  Uiso   1.00
H26    H     0.17682   0.45203   0.76163   0.00000  Uiso   1.00
H27    H     0.00144   0.78736   0.60444   0.00000  Uiso   1.00
H28    H     0.60096   0.53916   0.53483   0.00000  Uiso   1.00
H29    H     0.36042   0.23609   0.86285   0.00000  Uiso   1.00
H30    H     0.99060   0.94320   0.53138   0.00000  Uiso   1.00
H31    H     0.84999   0.20970   0.50870   0.00000  Uiso   1.00
H32    H     0.66439   0.18301   0.45343   0.00000  Uiso   1.00
H33    H     0.02457   0.03927   0.60900   0.00000  Uiso   1.00
H34    H     0.84918   0.37459   0.45180   0.00000  Uiso   1.00
H35    H     0.47738   0.20414   0.41095   0.00000  Uiso   1.00
H36    H     0.23685   0.90108   0.73897   0.00000  Uiso   1.00
H37    H     0.86702   0.60818   0.40749   0.00000  Uiso   1.00
O38    O     0.41970   0.36112   0.43916   0.00000  Uiso   1.00
O39    O     0.41610   0.96352   0.86950   0.00000  Uiso   1.00
O40    O     0.93089   0.89123   0.43461   0.00000  Uiso   1.00
N41    N     0.59734   0.46400   0.51325   0.00000  Uiso   1.00
N42    N     0.30738   0.18064   0.81993   0.00000  Uiso   1.00
N43    N     0.96165   0.84171   0.51004   0.00000  Uiso   1.00
N44    N     0.53084   0.28373   0.44659   0.00000  Uiso   1.00
N45    N     0.24088   0.00037   0.75327   0.00000  Uiso   1.00
N46    N     0.89515   0.66145   0.44338   0.00000  Uiso   1.00
C47    C     0.03875   0.51135   0.87976   0.00000  Uiso   1.00
C48    C     0.15530   0.45427   0.92554   0.00000  Uiso   1.00
C49    C     0.21625   0.50667   0.92690   0.00000  Uiso   1.00
C50    C     0.32131   0.43976   0.97239   0.00000  Uiso   1.00
C51    C     0.49580   0.36858   0.03699   0.00000  Uiso   1.00
C52    C     0.95962   0.37615   0.84101   0.00000  Uiso   1.00
C53    C     0.85603   0.36290   0.77130   0.00000  Uiso   1.00
C54    C     0.79635   0.23024   0.74565   0.00000  Uiso   1.00
C55    C     0.66699   0.03784   0.67902   0.00000  Uiso   1.00
C56    C     0.05492   0.55835   0.92643   0.00000  Uiso   1.00
C57    C     0.03143   0.69828   0.92852   0.00000  Uiso   1.00
C58    C     0.05196   0.71901   0.97477   0.00000  Uiso   1.00
C59    C     0.07057   0.80950   0.04075   0.00000  Uiso   1.00
C60    C     0.11695   0.29936   0.95815   0.00000  Uiso   1.00
C61    C     0.19777   0.33911   0.96812   0.00000  Uiso   1.00
C62    C     0.30277   0.27212   0.01363   0.00000  Uiso   1.00
C63    C     0.36386   0.32441   0.01505   0.00000  Uiso   1.00
C64    C     0.00209   0.26101   0.88359   0.00000  Uiso   1.00
C65    C     0.94254   0.12835   0.85804   0.00000  Uiso   1.00
C66    C     0.83890   0.11488   0.78831   0.00000  Uiso   1.00
C67    C     0.09739   0.44321   0.96901   0.00000  Uiso   1.00
C68    C     0.11795   0.46373   0.01526   0.00000  Uiso   1.00
C69    C     0.09451   0.60366   0.01742   0.00000  Uiso   1.00
H70    H     0.00568   0.60100   0.84660   0.00000  Uiso   1.00
H71    H     0.18335   0.59577   0.89393   0.00000  Uiso   1.00
H72    H     0.82318   0.45203   0.73837   0.00000  Uiso   1.00
H73    H     0.99856   0.78736   0.89556   0.00000  Uiso   1.00
H74    H     0.39904   0.53916   0.96517   0.00000  Uiso   1.00
H75    H     0.63958   0.23609   0.63715   0.00000  Uiso   1.00
H76    H     0.00940   0.94320   0.96862   0.00000  Uiso   1.00
H77    H     0.15001   0.20970   0.99130   0.00000  Uiso   1.00
H78    H     0.33561   0.18301   0.04657   0.00000  Uiso   1.00
H79    H     0.97543   0.03927   0.89100   0.00000  Uiso   1.00
H80    H     0.15082   0.37459   0.04820   0.00000  Uiso   1.00
H81    H     0.52262   0.20414   0.08905   0.00000  Uiso   1.00
H82    H     0.76315   0.90108   0.76103   0.00000  Uiso   1.00
H83    H     0.13298   0.60818   0.09251   0.00000  Uiso   1.00
O84    O     0.58030   0.36112   0.06084   0.00000  Uiso   1.00
O85    O     0.58390   0.96352   0.63050   0.00000  Uiso   1.00
O86    O     0.06911   0.89123   0.06539   0.00000  Uiso   1.00
N87    N     0.40266   0.46400   0.98675   0.00000  Uiso   1.00
N88    N     0.69262   0.18064   0.68007   0.00000  Uiso   1.00
N89    N     0.03835   0.84171   0.98996   0.00000  Uiso   1.00
N90    N     0.46916   0.28373   0.05341   0.00000  Uiso   1.00
N91    N     0.75912   0.00037   0.74673   0.00000  Uiso   1.00
N92    N     0.10485   0.66145   0.05662   0.00000  Uiso   1.00
C93    C     0.03875   0.48865   0.37976   0.00000  Uiso   1.00
C94    C     0.15530   0.54573   0.42554   0.00000  Uiso   1.00
C95    C     0.21625   0.49333   0.42690   0.00000  Uiso   1.00
C96    C     0.32131   0.56024   0.47239   0.00000  Uiso   1.00
C97    C     0.49580   0.63142   0.53699   0.00000  Uiso   1.00
C98    C     0.95962   0.62385   0.34101   0.00000  Uiso   1.00
C99    C     0.85603   0.63710   0.27130   0.00000  Uiso   1.00
C100   C     0.79635   0.76976   0.24565   0.00000  Uiso   1.00
C101   C     0.66699   0.96216   0.17902   0.00000  Uiso   1.00
C102   C     0.05492   0.44165   0.42643   0.00000  Uiso   1.00
C103   C     0.03143   0.30172   0.42852   0.00000  Uiso   1.00
C104   C     0.05196   0.28099   0.47477   0.00000  Uiso   1.00
C105   C     0.07057   0.19050   0.54075   0.00000  Uiso   1.00
C106   C     0.11695   0.70064   0.45815   0.00000  Uiso   1.00
C107   C     0.19777   0.66089   0.46812   0.00000  Uiso   1.00
C108   C     0.30277   0.72788   0.51363   0.00000  Uiso   1.00
C109   C     0.36386   0.67559   0.51505   0.00000  Uiso   1.00
C110   C     0.00209   0.73899   0.38359   0.00000  Uiso   1.00
C111   C     0.94254   0.87165   0.35804   0.00000  Uiso   1.00
C112   C     0.83890   0.88512   0.28831   0.00000  Uiso   1.00
C113   C     0.09739   0.55679   0.46901   0.00000  Uiso   1.00
C114   C     0.11795   0.53627   0.51526   0.00000  Uiso   1.00
C115   C     0.09451   0.39634   0.51742   0.00000  Uiso   1.00
H116   H     0.00568   0.39900   0.34660   0.00000  Uiso   1.00
H117   H     0.18335   0.40423   0.39393   0.00000  Uiso   1.00
H118   H     0.82318   0.54797   0.23837   0.00000  Uiso   1.00
H119   H     0.99856   0.21264   0.39556   0.00000  Uiso   1.00
H120   H     0.39904   0.46084   0.46517   0.00000  Uiso   1.00
H121   H     0.63958   0.76391   0.13715   0.00000  Uiso   1.00
H122   H     0.00940   0.05680   0.46862   0.00000  Uiso   1.00
H123   H     0.15001   0.79030   0.49130   0.00000  Uiso   1.00
H124   H     0.33561   0.81699   0.54657   0.00000  Uiso   1.00
H125   H     0.97543   0.96073   0.39100   0.00000  Uiso   1.00
H126   H     0.15082   0.62541   0.54820   0.00000  Uiso   1.00
H127   H     0.52262   0.79586   0.58905   0.00000  Uiso   1.00
H128   H     0.76315   0.09892   0.26103   0.00000  Uiso   1.00
H129   H     0.13298   0.39182   0.59251   0.00000  Uiso   1.00
O130   O     0.58030   0.63888   0.56084   0.00000  Uiso   1.00
O131   O     0.58390   0.03648   0.13050   0.00000  Uiso   1.00
O132   O     0.06911   0.10877   0.56539   0.00000  Uiso   1.00
N133   N     0.40266   0.53600   0.48675   0.00000  Uiso   1.00
N134   N     0.69262   0.81936   0.18007   0.00000  Uiso   1.00
N135   N     0.03835   0.15829   0.48996   0.00000  Uiso   1.00
N136   N     0.46916   0.71627   0.55341   0.00000  Uiso   1.00
N137   N     0.75912   0.99963   0.24673   0.00000  Uiso   1.00
N138   N     0.10485   0.33855   0.55662   0.00000  Uiso   1.00
C139   C     0.96125   0.48865   0.12024   0.00000  Uiso   1.00
C140   C     0.84470   0.54573   0.07446   0.00000  Uiso   1.00
C141   C     0.78375   0.49333   0.07310   0.00000  Uiso   1.00
C142   C     0.67869   0.56024   0.02761   0.00000  Uiso   1.00
C143   C     0.50420   0.63142   0.96301   0.00000  Uiso   1.00
C144   C     0.04038   0.62385   0.15899   0.00000  Uiso   1.00
C145   C     0.14397   0.63710   0.22870   0.00000  Uiso   1.00
C146   C     0.20365   0.76976   0.25435   0.00000  Uiso   1.00
C147   C     0.33301   0.96216   0.32098   0.00000  Uiso   1.00
C148   C     0.94508   0.44165   0.07357   0.00000  Uiso   1.00
C149   C     0.96857   0.30172   0.07148   0.00000  Uiso   1.00
C150   C     0.94804   0.28099   0.02523   0.00000  Uiso   1.00
C151   C     0.92943   0.19050   0.95925   0.00000  Uiso   1.00
C152   C     0.88305   0.70064   0.04185   0.00000  Uiso   1.00
C153   C     0.80223   0.66089   0.03188   0.00000  Uiso   1.00
C154   C     0.69723   0.72788   0.98637   0.00000  Uiso   1.00
C155   C     0.63614   0.67559   0.98495   0.00000  Uiso   1.00
C156   C     0.99791   0.73899   0.11641   0.00000  Uiso   1.00
C157   C     0.05746   0.87165   0.14196   0.00000  Uiso   1.00
C158   C     0.16110   0.88512   0.21169   0.00000  Uiso   1.00
C159   C     0.90261   0.55679   0.03099   0.00000  Uiso   1.00
C160   C     0.88205   0.53627   0.98474   0.00000  Uiso   1.00
C161   C     0.90549   0.39634   0.98258   0.00000  Uiso   1.00
H162   H     0.99432   0.39900   0.15340   0.00000  Uiso   1.00
H163   H     0.81665   0.40423   0.10607   0.00000  Uiso   1.00
H164   H     0.17682   0.54797   0.26163   0.00000  Uiso   1.00
H165   H     0.00144   0.21264   0.10444   0.00000  Uiso   1.00
H166   H     0.60096   0.46084   0.03483   0.00000  Uiso   1.00
H167   H     0.36042   0.76391   0.36285   0.00000  Uiso   1.00
H168   H     0.99060   0.05680   0.03138   0.00000  Uiso   1.00
H169   H     0.84999   0.79030   0.00870   0.00000  Uiso   1.00
H170   H     0.66439   0.81699   0.95343   0.00000  Uiso   1.00
H171   H     0.02457   0.96073   0.10900   0.00000  Uiso   1.00
H172   H     0.84918   0.62541   0.95180   0.00000  Uiso   1.00
H173   H     0.47738   0.79586   0.91095   0.00000  Uiso   1.00
H174   H     0.23685   0.09892   0.23897   0.00000  Uiso   1.00
H175   H     0.86702   0.39182   0.90749   0.00000  Uiso   1.00
O176   O     0.41970   0.63888   0.93916   0.00000  Uiso   1.00
O177   O     0.41610   0.03648   0.36950   0.00000  Uiso   1.00
O178   O     0.93089   0.10877   0.93461   0.00000  Uiso   1.00
N179   N     0.59734   0.53600   0.01325   0.00000  Uiso   1.00
N180   N     0.30738   0.81936   0.31993   0.00000  Uiso   1.00
N181   N     0.96165   0.15829   0.01004   0.00000  Uiso   1.00
N182   N     0.53084   0.71627   0.94659   0.00000  Uiso   1.00
N183   N     0.24088   0.99963   0.25327   0.00000  Uiso   1.00
N184   N     0.89515   0.33855   0.94338   0.00000  Uiso   1.00
