data_job_05812
_audit_creation_date              2018-12-19
_audit_creation_method            'Materials Studio'
_symmetry_space_group_name_H-M    'P1'
_symmetry_Int_Tables_number       1
_symmetry_cell_setting            triclinic
loop_
_symmetry_equiv_pos_as_xyz
  x,y,z
_cell_length_a                    15.8661
_cell_length_b                    10.6785
_cell_length_c                    16.6359
_cell_angle_alpha                 90.0000
_cell_angle_beta                  111.0130
_cell_angle_gamma                 90.0000
loop_
_atom_site_label
_atom_site_type_symbol
_atom_site_fract_x
_atom_site_fract_y
_atom_site_fract_z
_atom_site_U_iso_or_equiv
_atom_site_adp_type
_atom_site_occupancy
C1     C     0.77183   0.58006   0.68151   0.00000  Uiso   1.00
C2     C     0.70647   0.47126   0.64741   0.00000  Uiso   1.00
C3     C     0.67108   0.43166   0.56237   0.00000  Uiso   1.00
C4     C     0.61237   0.33035   0.54422   0.00000  Uiso   1.00
C5     C     0.51425   0.17049   0.48142   0.00000  Uiso   1.00
C6     C     0.72680   0.66815   0.72610   0.00000  Uiso   1.00
C7     C     0.70853   0.79409   0.70723   0.00000  Uiso   1.00
C8     C     0.66695   0.85852   0.75534   0.00000  Uiso   1.00
C9     C     0.60047   0.00436   0.81476   0.00000  Uiso   1.00
C10    C     0.85389   0.52575   0.75258   0.00000  Uiso   1.00
C11    C     0.94248   0.53199   0.75598   0.00000  Uiso   1.00
C12    C     0.00790   0.47656   0.82639   0.00000  Uiso   1.00
C13    C     0.13874   0.40130   0.92691   0.00000  Uiso   1.00
C14    C     0.73050   0.47055   0.80051   0.00000  Uiso   1.00
C15    C     0.68402   0.41178   0.71205   0.00000  Uiso   1.00
C16    C     0.62535   0.31050   0.69402   0.00000  Uiso   1.00
C17    C     0.58988   0.27075   0.60897   0.00000  Uiso   1.00
C18    C     0.70435   0.60867   0.79074   0.00000  Uiso   1.00
C19    C     0.66280   0.67293   0.83889   0.00000  Uiso   1.00
C20    C     0.64445   0.79893   0.82009   0.00000  Uiso   1.00
C21    C     0.83144   0.46626   0.81721   0.00000  Uiso   1.00
C22    C     0.89674   0.41082   0.88763   0.00000  Uiso   1.00
C23    C     0.98541   0.41697   0.89114   0.00000  Uiso   1.00
H24    H     0.78931   0.62638   0.63120   0.00000  Uiso   1.00
H25    H     0.68846   0.47773   0.51237   0.00000  Uiso   1.00
H26    H     0.72592   0.84010   0.65722   0.00000  Uiso   1.00
H27    H     0.95983   0.57803   0.70595   0.00000  Uiso   1.00
H28    H     0.56673   0.28671   0.40912   0.00000  Uiso   1.00
H29    H     0.64573   0.05081   0.71456   0.00000  Uiso   1.00
H30    H     0.13898   0.49819   0.81733   0.00000  Uiso   1.00
H31    H     0.71302   0.42424   0.85083   0.00000  Uiso   1.00
H32    H     0.60798   0.26448   0.74405   0.00000  Uiso   1.00
H33    H     0.64544   0.62687   0.88890   0.00000  Uiso   1.00
H34    H     0.87934   0.36480   0.93764   0.00000  Uiso   1.00
H35    H     0.50141   0.11364   0.59716   0.00000  Uiso   1.00
H36    H     0.58041   0.87775   0.90261   0.00000  Uiso   1.00
H37    H     0.07365   0.32512   0.00538   0.00000  Uiso   1.00
O38    O     0.46633   0.09876   0.42893   0.00000  Uiso   1.00
O39    O     0.56999   0.10123   0.82967   0.00000  Uiso   1.00
O40    O     0.21711   0.37620   0.96449   0.00000  Uiso   1.00
N41    N     0.56578   0.26789   0.46803   0.00000  Uiso   1.00
N42    N     0.63963   0.98227   0.75360   0.00000  Uiso   1.00
N43    N     0.10078   0.46565   0.84969   0.00000  Uiso   1.00
N44    N     0.53064   0.17476   0.56922   0.00000  Uiso   1.00
N45    N     0.60448   0.88914   0.85478   0.00000  Uiso   1.00
N46    N     0.06563   0.37252   0.95087   0.00000  Uiso   1.00
C47    C     0.22817   0.08006   0.81849   0.00000  Uiso   1.00
C48    C     0.29353   0.97126   0.85259   0.00000  Uiso   1.00
C49    C     0.32892   0.93166   0.93763   0.00000  Uiso   1.00
C50    C     0.38763   0.83035   0.95578   0.00000  Uiso   1.00
C51    C     0.48575   0.67049   0.01858   0.00000  Uiso   1.00
C52    C     0.27320   0.16815   0.77390   0.00000  Uiso   1.00
C53    C     0.29147   0.29409   0.79277   0.00000  Uiso   1.00
C54    C     0.33305   0.35852   0.74466   0.00000  Uiso   1.00
C55    C     0.39953   0.50436   0.68524   0.00000  Uiso   1.00
C56    C     0.14611   0.02575   0.74742   0.00000  Uiso   1.00
C57    C     0.05752   0.03199   0.74402   0.00000  Uiso   1.00
C58    C     0.99210   0.97656   0.67361   0.00000  Uiso   1.00
C59    C     0.86126   0.90130   0.57309   0.00000  Uiso   1.00
C60    C     0.26950   0.97055   0.69949   0.00000  Uiso   1.00
C61    C     0.31598   0.91178   0.78795   0.00000  Uiso   1.00
C62    C     0.37465   0.81050   0.80598   0.00000  Uiso   1.00
C63    C     0.41012   0.77075   0.89103   0.00000  Uiso   1.00
C64    C     0.29565   0.10867   0.70926   0.00000  Uiso   1.00
C65    C     0.33720   0.17293   0.66111   0.00000  Uiso   1.00
C66    C     0.35555   0.29893   0.67991   0.00000  Uiso   1.00
C67    C     0.16856   0.96626   0.68279   0.00000  Uiso   1.00
C68    C     0.10326   0.91082   0.61237   0.00000  Uiso   1.00
C69    C     0.01459   0.91697   0.60886   0.00000  Uiso   1.00
H70    H     0.21069   0.12638   0.86880   0.00000  Uiso   1.00
H71    H     0.31154   0.97773   0.98763   0.00000  Uiso   1.00
H72    H     0.27408   0.34010   0.84278   0.00000  Uiso   1.00
H73    H     0.04017   0.07803   0.79405   0.00000  Uiso   1.00
H74    H     0.43327   0.78671   0.09088   0.00000  Uiso   1.00
H75    H     0.35427   0.55081   0.78544   0.00000  Uiso   1.00
H76    H     0.86102   0.99819   0.68267   0.00000  Uiso   1.00
H77    H     0.28698   0.92424   0.64917   0.00000  Uiso   1.00
H78    H     0.39202   0.76448   0.75595   0.00000  Uiso   1.00
H79    H     0.35456   0.12687   0.61110   0.00000  Uiso   1.00
H80    H     0.12066   0.86480   0.56236   0.00000  Uiso   1.00
H81    H     0.49859   0.61364   0.90284   0.00000  Uiso   1.00
H82    H     0.41959   0.37775   0.59739   0.00000  Uiso   1.00
H83    H     0.92635   0.82512   0.49462   0.00000  Uiso   1.00
O84    O     0.53367   0.59876   0.07107   0.00000  Uiso   1.00
O85    O     0.43001   0.60123   0.67033   0.00000  Uiso   1.00
O86    O     0.78289   0.87620   0.53551   0.00000  Uiso   1.00
N87    N     0.43422   0.76789   0.03197   0.00000  Uiso   1.00
N88    N     0.36037   0.48227   0.74640   0.00000  Uiso   1.00
N89    N     0.89922   0.96565   0.65031   0.00000  Uiso   1.00
N90    N     0.46936   0.67476   0.93078   0.00000  Uiso   1.00
N91    N     0.39552   0.38914   0.64522   0.00000  Uiso   1.00
N92    N     0.93437   0.87252   0.54913   0.00000  Uiso   1.00
C93    C     0.22817   0.41994   0.31849   0.00000  Uiso   1.00
C94    C     0.29353   0.52874   0.35259   0.00000  Uiso   1.00
C95    C     0.32892   0.56834   0.43763   0.00000  Uiso   1.00
C96    C     0.38763   0.66965   0.45578   0.00000  Uiso   1.00
C97    C     0.48575   0.82951   0.51858   0.00000  Uiso   1.00
C98    C     0.27320   0.33185   0.27390   0.00000  Uiso   1.00
C99    C     0.29147   0.20591   0.29277   0.00000  Uiso   1.00
C100   C     0.33305   0.14148   0.24466   0.00000  Uiso   1.00
C101   C     0.39953   0.99564   0.18524   0.00000  Uiso   1.00
C102   C     0.14611   0.47425   0.24742   0.00000  Uiso   1.00
C103   C     0.05752   0.46801   0.24402   0.00000  Uiso   1.00
C104   C     0.99210   0.52344   0.17361   0.00000  Uiso   1.00
C105   C     0.86126   0.59870   0.07309   0.00000  Uiso   1.00
C106   C     0.26950   0.52945   0.19949   0.00000  Uiso   1.00
C107   C     0.31598   0.58822   0.28795   0.00000  Uiso   1.00
C108   C     0.37465   0.68950   0.30598   0.00000  Uiso   1.00
C109   C     0.41012   0.72925   0.39103   0.00000  Uiso   1.00
C110   C     0.29565   0.39133   0.20926   0.00000  Uiso   1.00
C111   C     0.33720   0.32707   0.16111   0.00000  Uiso   1.00
C112   C     0.35555   0.20107   0.17991   0.00000  Uiso   1.00
C113   C     0.16856   0.53374   0.18279   0.00000  Uiso   1.00
C114   C     0.10326   0.58918   0.11237   0.00000  Uiso   1.00
C115   C     0.01459   0.58303   0.10886   0.00000  Uiso   1.00
H116   H     0.21069   0.37362   0.36880   0.00000  Uiso   1.00
H117   H     0.31154   0.52227   0.48763   0.00000  Uiso   1.00
H118   H     0.27408   0.15990   0.34278   0.00000  Uiso   1.00
H119   H     0.04017   0.42197   0.29405   0.00000  Uiso   1.00
H120   H     0.43327   0.71329   0.59088   0.00000  Uiso   1.00
H121   H     0.35427   0.94919   0.28544   0.00000  Uiso   1.00
H122   H     0.86102   0.50181   0.18267   0.00000  Uiso   1.00
H123   H     0.28698   0.57576   0.14917   0.00000  Uiso   1.00
H124   H     0.39202   0.73552   0.25595   0.00000  Uiso   1.00
H125   H     0.35456   0.37313   0.11110   0.00000  Uiso   1.00
H126   H     0.12066   0.63520   0.06236   0.00000  Uiso   1.00
H127   H     0.49859   0.88636   0.40284   0.00000  Uiso   1.00
H128   H     0.41959   0.12225   0.09739   0.00000  Uiso   1.00
H129   H     0.92635   0.67488   0.99462   0.00000  Uiso   1.00
O130   O     0.53367   0.90124   0.57107   0.00000  Uiso   1.00
O131   O     0.43001   0.89877   0.17033   0.00000  Uiso   1.00
O132   O     0.78289   0.62380   0.03551   0.00000  Uiso   1.00
N133   N     0.43422   0.73211   0.53197   0.00000  Uiso   1.00
N134   N     0.36037   0.01773   0.24640   0.00000  Uiso   1.00
N135   N     0.89922   0.53435   0.15031   0.00000  Uiso   1.00
N136   N     0.46936   0.82524   0.43078   0.00000  Uiso   1.00
N137   N     0.39552   0.11086   0.14522   0.00000  Uiso   1.00
N138   N     0.93437   0.62748   0.04913   0.00000  Uiso   1.00
C139   C     0.77183   0.91994   0.18151   0.00000  Uiso   1.00
C140   C     0.70647   0.02874   0.14741   0.00000  Uiso   1.00
C141   C     0.67108   0.06834   0.06237   0.00000  Uiso   1.00
C142   C     0.61237   0.16965   0.04422   0.00000  Uiso   1.00
C143   C     0.51425   0.32951   0.98142   0.00000  Uiso   1.00
C144   C     0.72680   0.83185   0.22610   0.00000  Uiso   1.00
C145   C     0.70853   0.70591   0.20723   0.00000  Uiso   1.00
C146   C     0.66695   0.64148   0.25534   0.00000  Uiso   1.00
C147   C     0.60047   0.49564   0.31476   0.00000  Uiso   1.00
C148   C     0.85389   0.97425   0.25258   0.00000  Uiso   1.00
C149   C     0.94248   0.96801   0.25598   0.00000  Uiso   1.00
C150   C     0.00790   0.02344   0.32639   0.00000  Uiso   1.00
C151   C     0.13874   0.09870   0.42691   0.00000  Uiso   1.00
C152   C     0.73050   0.02945   0.30051   0.00000  Uiso   1.00
C153   C     0.68402   0.08822   0.21205   0.00000  Uiso   1.00
C154   C     0.62535   0.18950   0.19402   0.00000  Uiso   1.00
C155   C     0.58988   0.22925   0.10897   0.00000  Uiso   1.00
C156   C     0.70435   0.89133   0.29074   0.00000  Uiso   1.00
C157   C     0.66280   0.82707   0.33889   0.00000  Uiso   1.00
C158   C     0.64445   0.70107   0.32009   0.00000  Uiso   1.00
C159   C     0.83144   0.03374   0.31721   0.00000  Uiso   1.00
C160   C     0.89674   0.08918   0.38763   0.00000  Uiso   1.00
C161   C     0.98541   0.08303   0.39114   0.00000  Uiso   1.00
H162   H     0.78931   0.87362   0.13120   0.00000  Uiso   1.00
H163   H     0.68846   0.02227   0.01237   0.00000  Uiso   1.00
H164   H     0.72592   0.65990   0.15722   0.00000  Uiso   1.00
H165   H     0.95983   0.92197   0.20595   0.00000  Uiso   1.00
H166   H     0.56673   0.21329   0.90912   0.00000  Uiso   1.00
H167   H     0.64573   0.44919   0.21456   0.00000  Uiso   1.00
H168   H     0.13898   0.00181   0.31733   0.00000  Uiso   1.00
H169   H     0.71302   0.07576   0.35083   0.00000  Uiso   1.00
H170   H     0.60798   0.23552   0.24405   0.00000  Uiso   1.00
H171   H     0.64544   0.87313   0.38890   0.00000  Uiso   1.00
H172   H     0.87934   0.13520   0.43764   0.00000  Uiso   1.00
H173   H     0.50141   0.38636   0.09716   0.00000  Uiso   1.00
H174   H     0.58041   0.62225   0.40261   0.00000  Uiso   1.00
H175   H     0.07365   0.17488   0.50538   0.00000  Uiso   1.00
O176   O     0.46633   0.40124   0.92893   0.00000  Uiso   1.00
O177   O     0.56999   0.39877   0.32967   0.00000  Uiso   1.00
O178   O     0.21711   0.12380   0.46449   0.00000  Uiso   1.00
N179   N     0.56578   0.23211   0.96803   0.00000  Uiso   1.00
N180   N     0.63963   0.51773   0.25360   0.00000  Uiso   1.00
N181   N     0.10078   0.03435   0.34969   0.00000  Uiso   1.00
N182   N     0.53064   0.32524   0.06922   0.00000  Uiso   1.00
N183   N     0.60448   0.61086   0.35478   0.00000  Uiso   1.00
N184   N     0.06563   0.12748   0.45087   0.00000  Uiso   1.00
