data_job_06500
_audit_creation_date              2018-12-19
_audit_creation_method            'Materials Studio'
_symmetry_space_group_name_H-M    'P1'
_symmetry_Int_Tables_number       1
_symmetry_cell_setting            triclinic
loop_
_symmetry_equiv_pos_as_xyz
  x,y,z
_cell_length_a                    20.0095
_cell_length_b                    21.4040
_cell_length_c                    23.6702
_cell_angle_alpha                 116.2310
_cell_angle_beta                  85.1591
_cell_angle_gamma                 67.5319
loop_
_atom_site_label
_atom_site_type_symbol
_atom_site_fract_x
_atom_site_fract_y
_atom_site_fract_z
_atom_site_U_iso_or_equiv
_atom_site_adp_type
_atom_site_occupancy
C1     C     0.70178   0.61759   0.48906   0.00000  Uiso   1.00
C2     C     0.66229   0.66601   0.56346   0.00000  Uiso   1.00
C3     C     0.69823   0.67585   0.61205   0.00000  Uiso   1.00
C4     C     0.65202   0.72239   0.67730   0.00000  Uiso   1.00
C5     C     0.60276   0.79216   0.79038   0.00000  Uiso   1.00
C6     C     0.67245   0.55765   0.46026   0.00000  Uiso   1.00
C7     C     0.71694   0.47638   0.42208   0.00000  Uiso   1.00
C8     C     0.67928   0.43170   0.40044   0.00000  Uiso   1.00
C9     C     0.64579   0.33323   0.35326   0.00000  Uiso   1.00
C10    C     0.67056   0.67376   0.46367   0.00000  Uiso   1.00
C11    C     0.71347   0.69010   0.42833   0.00000  Uiso   1.00
C12    C     0.67422   0.74317   0.40955   0.00000  Uiso   1.00
C13    C     0.63781   0.82499   0.36767   0.00000  Uiso   1.00
C14    C     0.55579   0.68275   0.51853   0.00000  Uiso   1.00
C15    C     0.58299   0.70140   0.57947   0.00000  Uiso   1.00
C16    C     0.53671   0.74794   0.64466   0.00000  Uiso   1.00
C17    C     0.57258   0.75785   0.69334   0.00000  Uiso   1.00
C18    C     0.59315   0.59304   0.47627   0.00000  Uiso   1.00
C19    C     0.55541   0.54847   0.45468   0.00000  Uiso   1.00
C20    C     0.59983   0.46715   0.41648   0.00000  Uiso   1.00
C21    C     0.59126   0.70916   0.47968   0.00000  Uiso   1.00
C22    C     0.55194   0.76220   0.46094   0.00000  Uiso   1.00
C23    C     0.59478   0.77862   0.42559   0.00000  Uiso   1.00
H24    H     0.76352   0.59003   0.47660   0.00000  Uiso   1.00
H25    H     0.75960   0.64844   0.59964   0.00000  Uiso   1.00
H26    H     0.77830   0.44900   0.40969   0.00000  Uiso   1.00
H27    H     0.77483   0.66270   0.41595   0.00000  Uiso   1.00
H28    H     0.72029   0.72879   0.74312   0.00000  Uiso   1.00
H29    H     0.75973   0.30826   0.34258   0.00000  Uiso   1.00
H30    H     0.75241   0.75888   0.35577   0.00000  Uiso   1.00
H31    H     0.49405   0.71031   0.53100   0.00000  Uiso   1.00
H32    H     0.47534   0.77532   0.65703   0.00000  Uiso   1.00
H33    H     0.49405   0.57588   0.46707   0.00000  Uiso   1.00
H34    H     0.49057   0.78958   0.47334   0.00000  Uiso   1.00
H35    H     0.48957   0.83177   0.78970   0.00000  Uiso   1.00
H36    H     0.52901   0.41124   0.38915   0.00000  Uiso   1.00
H37    H     0.52169   0.86186   0.40235   0.00000  Uiso   1.00
O38    O     0.59749   0.82085   0.84833   0.00000  Uiso   1.00
O39    O     0.64923   0.26914   0.32282   0.00000  Uiso   1.00
O40    O     0.63963   0.86035   0.34015   0.00000  Uiso   1.00
N41    N     0.66856   0.74411   0.73679   0.00000  Uiso   1.00
N42    N     0.70543   0.35095   0.36231   0.00000  Uiso   1.00
N43    N     0.69859   0.77222   0.37463   0.00000  Uiso   1.00
N44    N     0.54441   0.79953   0.76185   0.00000  Uiso   1.00
N45    N     0.58128   0.40636   0.38737   0.00000  Uiso   1.00
N46    N     0.57444   0.82763   0.39970   0.00000  Uiso   1.00
C47    C     0.10473   0.23038   0.43216   0.00000  Uiso   1.00
C48    C     0.09604   0.30712   0.48894   0.00000  Uiso   1.00
C49    C     0.03990   0.35493   0.54972   0.00000  Uiso   1.00
C50    C     0.04173   0.42268   0.59508   0.00000  Uiso   1.00
C51    C     0.01969   0.53895   0.68551   0.00000  Uiso   1.00
C52    C     0.10393   0.24080   0.37248   0.00000  Uiso   1.00
C53    C     0.05444   0.23284   0.33534   0.00000  Uiso   1.00
C54    C     0.06291   0.24475   0.28264   0.00000  Uiso   1.00
C55    C     0.05316   0.25800   0.19223   0.00000  Uiso   1.00
C56    C     0.18485   0.16740   0.41618   0.00000  Uiso   1.00
C57    C     0.20340   0.09771   0.41577   0.00000  Uiso   1.00
C58    C     0.28001   0.04782   0.39986   0.00000  Uiso   1.00
C59    C     0.39589   0.94711   0.37731   0.00000  Uiso   1.00
C60    C     0.20779   0.26568   0.40462   0.00000  Uiso   1.00
C61    C     0.15201   0.32629   0.47398   0.00000  Uiso   1.00
C62    C     0.15393   0.39399   0.51926   0.00000  Uiso   1.00
C63    C     0.09781   0.44189   0.58010   0.00000  Uiso   1.00
C64    C     0.15990   0.25997   0.35752   0.00000  Uiso   1.00
C65    C     0.16846   0.27189   0.30487   0.00000  Uiso   1.00
C66    C     0.11899   0.26396   0.26766   0.00000  Uiso   1.00
C67    C     0.24082   0.18658   0.40123   0.00000  Uiso   1.00
C68    C     0.31742   0.13678   0.38531   0.00000  Uiso   1.00
C69    C     0.33608   0.06703   0.38488   0.00000  Uiso   1.00
H70    H     0.06115   0.21545   0.44380   0.00000  Uiso   1.00
H71    H     0.99659   0.34008   0.56128   0.00000  Uiso   1.00
H72    H     0.01113   0.21799   0.34692   0.00000  Uiso   1.00
H73    H     0.16006   0.08290   0.42735   0.00000  Uiso   1.00
H74    H     0.94968   0.48672   0.68492   0.00000  Uiso   1.00
H75    H     0.98035   0.22928   0.23292   0.00000  Uiso   1.00
H76    H     0.29442   0.94439   0.40251   0.00000  Uiso   1.00
H77    H     0.25137   0.28060   0.39297   0.00000  Uiso   1.00
H78    H     0.19725   0.40881   0.50767   0.00000  Uiso   1.00
H79    H     0.21179   0.28673   0.29331   0.00000  Uiso   1.00
H80    H     0.36072   0.15163   0.37374   0.00000  Uiso   1.00
H81    H     0.11255   0.54251   0.64140   0.00000  Uiso   1.00
H82    H     0.14322   0.28506   0.18940   0.00000  Uiso   1.00
H83    H     0.45728   0.00018   0.35900   0.00000  Uiso   1.00
O84    O     0.99207   0.59779   0.73952   0.00000  Uiso   1.00
O85    O     0.03231   0.26002   0.14650   0.00000  Uiso   1.00
O86    O     0.44435   0.88627   0.36902   0.00000  Uiso   1.00
N87    N     0.99545   0.48225   0.65894   0.00000  Uiso   1.00
N88    N     0.02412   0.24156   0.23635   0.00000  Uiso   1.00
N89    N     0.31774   0.97521   0.39490   0.00000  Uiso   1.00
N90    N     0.08309   0.51226   0.63553   0.00000  Uiso   1.00
N91    N     0.11175   0.27158   0.21294   0.00000  Uiso   1.00
N92    N     0.40537   0.00523   0.37148   0.00000  Uiso   1.00
C93    C     0.85939   0.16730   0.43728   0.00000  Uiso   1.00
C94    C     0.83330   0.20790   0.51248   0.00000  Uiso   1.00
C95    C     0.81555   0.28540   0.55674   0.00000  Uiso   1.00
C96    C     0.79282   0.31144   0.62361   0.00000  Uiso   1.00
C97    C     0.75308   0.38204   0.73708   0.00000  Uiso   1.00
C98    C     0.93526   0.09433   0.41337   0.00000  Uiso   1.00
C99    C     0.00322   0.07634   0.37428   0.00000  Uiso   1.00
C100   C     0.06631   0.00679   0.35771   0.00000  Uiso   1.00
C101   C     0.18485   0.90104   0.31725   0.00000  Uiso   1.00
C102   C     0.80358   0.13692   0.41344   0.00000  Uiso   1.00
C103   C     0.76084   0.15471   0.37439   0.00000  Uiso   1.00
C104   C     0.71309   0.12099   0.35786   0.00000  Uiso   1.00
C105   C     0.62717   0.08137   0.31751   0.00000  Uiso   1.00
C106   C     0.85059   0.07574   0.47733   0.00000  Uiso   1.00
C107   C     0.82852   0.15817   0.53424   0.00000  Uiso   1.00
C108   C     0.80581   0.18410   0.60106   0.00000  Uiso   1.00
C109   C     0.78803   0.26163   0.64541   0.00000  Uiso   1.00
C110   C     0.93048   0.04460   0.43512   0.00000  Uiso   1.00
C111   C     0.99348   0.97505   0.41859   0.00000  Uiso   1.00
C112   C     0.06153   0.95697   0.37950   0.00000  Uiso   1.00
C113   C     0.79880   0.08719   0.43519   0.00000  Uiso   1.00
C114   C     0.75110   0.05343   0.41871   0.00000  Uiso   1.00
C115   C     0.70830   0.07117   0.37966   0.00000  Uiso   1.00
H116   H     0.86311   0.20601   0.42034   0.00000  Uiso   1.00
H117   H     0.81926   0.32386   0.53989   0.00000  Uiso   1.00
H118   H     0.00690   0.11483   0.35745   0.00000  Uiso   1.00
H119   H     0.76456   0.19320   0.35757   0.00000  Uiso   1.00
H120   H     0.76856   0.43258   0.68202   0.00000  Uiso   1.00
H121   H     0.16420   0.99183   0.29732   0.00000  Uiso   1.00
H122   H     0.65318   0.15707   0.29757   0.00000  Uiso   1.00
H123   H     0.84687   0.03702   0.49427   0.00000  Uiso   1.00
H124   H     0.80212   0.14561   0.61788   0.00000  Uiso   1.00
H125   H     0.98976   0.93658   0.43544   0.00000  Uiso   1.00
H126   H     0.74742   0.01495   0.43555   0.00000  Uiso   1.00
H127   H     0.75465   0.28790   0.74532   0.00000  Uiso   1.00
H128   H     0.15030   0.84715   0.36062   0.00000  Uiso   1.00
H129   H     0.63927   0.01239   0.36087   0.00000  Uiso   1.00
O130   O     0.73249   0.43471   0.79365   0.00000  Uiso   1.00
O131   O     0.25155   0.85646   0.28893   0.00000  Uiso   1.00
O132   O     0.58110   0.07325   0.28925   0.00000  Uiso   1.00
N133   N     0.77141   0.38363   0.67996   0.00000  Uiso   1.00
N134   N     0.14132   0.97156   0.32029   0.00000  Uiso   1.00
N135   N     0.66357   0.12603   0.32051   0.00000  Uiso   1.00
N136   N     0.76393   0.30579   0.71402   0.00000  Uiso   1.00
N137   N     0.13383   0.89372   0.35435   0.00000  Uiso   1.00
N138   N     0.65608   0.04819   0.35457   0.00000  Uiso   1.00
C139   C     0.22957   0.36001   0.99292   0.00000  Uiso   1.00
C140   C     0.21734   0.38425   0.06551   0.00000  Uiso   1.00
C141   C     0.25860   0.41280   0.10460   0.00000  Uiso   1.00
C142   C     0.23863   0.43169   0.16983   0.00000  Uiso   1.00
C143   C     0.22860   0.47080   0.27873   0.00000  Uiso   1.00
C144   C     0.15341   0.40908   0.98885   0.00000  Uiso   1.00
C145   C     0.14093   0.45849   0.96349   0.00000  Uiso   1.00
C146   C     0.06715   0.49828   0.96418   0.00000  Uiso   1.00
C147   C     0.95788   0.57589   0.95403   0.00000  Uiso   1.00
C148   C     0.24337   0.27491   0.95613   0.00000  Uiso   1.00
C149   C     0.30652   0.21150   0.90324   0.00000  Uiso   1.00
C150   C     0.30847   0.13832   0.87638   0.00000  Uiso   1.00
C151   C     0.33888   0.00760   0.81543   0.00000  Uiso   1.00
C152   C     0.12073   0.34280   0.03924   0.00000  Uiso   1.00
C153   C     0.15822   0.37491   0.09067   0.00000  Uiso   1.00
C154   C     0.13818   0.39376   0.15586   0.00000  Uiso   1.00
C155   C     0.17941   0.42233   0.19504   0.00000  Uiso   1.00
C156   C     0.09430   0.39974   0.01402   0.00000  Uiso   1.00
C157   C     0.02052   0.43946   0.01474   0.00000  Uiso   1.00
C158   C     0.00792   0.48892   0.98939   0.00000  Uiso   1.00
C159   C     0.18426   0.26556   0.98130   0.00000  Uiso   1.00
C160   C     0.18610   0.19247   0.95451   0.00000  Uiso   1.00
C161   C     0.24924   0.12896   0.90159   0.00000  Uiso   1.00
H162   H     0.27559   0.36729   0.97332   0.00000  Uiso   1.00
H163   H     0.30434   0.42003   0.08511   0.00000  Uiso   1.00
H164   H     0.18669   0.46571   0.94401   0.00000  Uiso   1.00
H165   H     0.35226   0.21875   0.88379   0.00000  Uiso   1.00
H166   H     0.31012   0.47441   0.22016   0.00000  Uiso   1.00
H167   H     0.06206   0.57071   0.92262   0.00000  Uiso   1.00
H168   H     0.41118   0.04996   0.79561   0.00000  Uiso   1.00
H169   H     0.07471   0.33553   0.05883   0.00000  Uiso   1.00
H170   H     0.09243   0.38653   0.17532   0.00000  Uiso   1.00
H171   H     0.97478   0.43221   0.03422   0.00000  Uiso   1.00
H172   H     0.14035   0.18526   0.97399   0.00000  Uiso   1.00
H173   H     0.13813   0.44722   0.29337   0.00000  Uiso   1.00
H174   H     0.89006   0.54352   0.99583   0.00000  Uiso   1.00
H175   H     0.23919   0.02277   0.86883   0.00000  Uiso   1.00
O176   O     0.23939   0.49496   0.33185   0.00000  Uiso   1.00
O177   O     0.91395   0.62129   0.94148   0.00000  Uiso   1.00
O178   O     0.37199   0.93808   0.77486   0.00000  Uiso   1.00
N179   N     0.26722   0.46099   0.22140   0.00000  Uiso   1.00
N180   N     0.03529   0.55104   0.94323   0.00000  Uiso   1.00
N181   N     0.36169   0.06419   0.82448   0.00000  Uiso   1.00
N182   N     0.17467   0.44636   0.26079   0.00000  Uiso   1.00
N183   N     0.94275   0.53641   0.98262   0.00000  Uiso   1.00
N184   N     0.26914   0.04956   0.86387   0.00000  Uiso   1.00
C185   C     0.52359   0.16869   0.99896   0.00000  Uiso   1.00
C186   C     0.52218   0.20915   0.07099   0.00000  Uiso   1.00
C187   C     0.47886   0.28899   0.11739   0.00000  Uiso   1.00
C188   C     0.48556   0.31446   0.18068   0.00000  Uiso   1.00
C189   C     0.47600   0.38526   0.29006   0.00000  Uiso   1.00
C190   C     0.50313   0.10356   0.98879   0.00000  Uiso   1.00
C191   C     0.44379   0.09461   0.96608   0.00000  Uiso   1.00
C192   C     0.43447   0.03118   0.96017   0.00000  Uiso   1.00
C193   C     0.39537   0.93801   0.94189   0.00000  Uiso   1.00
C194   C     0.60640   0.12708   0.95760   0.00000  Uiso   1.00
C195   C     0.63390   0.13789   0.90863   0.00000  Uiso   1.00
C196   C     0.71153   0.09424   0.87645   0.00000  Uiso   1.00
C197   C     0.83277   0.03760   0.80973   0.00000  Uiso   1.00
C198   C     0.61255   0.07195   0.02886   0.00000  Uiso   1.00
C199   C     0.57050   0.15660   0.08722   0.00000  Uiso   1.00
C200   C     0.57728   0.18195   0.15046   0.00000  Uiso   1.00
C201   C     0.53397   0.26181   0.19695   0.00000  Uiso   1.00
C202   C     0.55145   0.05101   0.00503   0.00000  Uiso   1.00
C203   C     0.54222   0.98757   0.99915   0.00000  Uiso   1.00
C204   C     0.48288   0.97853   0.97643   0.00000  Uiso   1.00
C205   C     0.65473   0.07453   0.97383   0.00000  Uiso   1.00
C206   C     0.73233   0.03085   0.94171   0.00000  Uiso   1.00
C207   C     0.75994   0.04160   0.89271   0.00000  Uiso   1.00
H208   H     0.48597   0.20960   0.98632   0.00000  Uiso   1.00
H209   H     0.44146   0.32964   0.10481   0.00000  Uiso   1.00
H210   H     0.40641   0.13528   0.95351   0.00000  Uiso   1.00
H211   H     0.59649   0.17855   0.89608   0.00000  Uiso   1.00
H212   H     0.41341   0.43954   0.24334   0.00000  Uiso   1.00
H213   H     0.33952   0.02971   0.92430   0.00000  Uiso   1.00
H214   H     0.74034   0.12096   0.80320   0.00000  Uiso   1.00
H215   H     0.65017   0.03103   0.04150   0.00000  Uiso   1.00
H216   H     0.61468   0.14127   0.16301   0.00000  Uiso   1.00
H217   H     0.57963   0.94692   0.01171   0.00000  Uiso   1.00
H218   H     0.76970   0.99019   0.95429   0.00000  Uiso   1.00
H219   H     0.55400   0.28665   0.29058   0.00000  Uiso   1.00
H220   H     0.48011   0.87682   0.97154   0.00000  Uiso   1.00
H221   H     0.88092   0.96808   0.85044   0.00000  Uiso   1.00
O222   O     0.45737   0.43883   0.34590   0.00000  Uiso   1.00
O223   O     0.36045   0.90115   0.92733   0.00000  Uiso   1.00
O224   O     0.88630   0.02087   0.76845   0.00000  Uiso   1.00
N225   N     0.45138   0.38843   0.23778   0.00000  Uiso   1.00
N226   N     0.38229   0.00527   0.93950   0.00000  Uiso   1.00
N227   N     0.75702   0.09057   0.82627   0.00000  Uiso   1.00
N228   N     0.52703   0.30616   0.26320   0.00000  Uiso   1.00
N229   N     0.45794   0.92301   0.96492   0.00000  Uiso   1.00
N230   N     0.83267   0.00831   0.85169   0.00000  Uiso   1.00
C231   C     0.29422   0.57330   0.94057   0.00000  Uiso   1.00
C232   C     0.27479   0.61496   0.01570   0.00000  Uiso   1.00
C233   C     0.22385   0.61285   0.05753   0.00000  Uiso   1.00
C234   C     0.21399   0.65487   0.12478   0.00000  Uiso   1.00
C235   C     0.17781   0.71304   0.23771   0.00000  Uiso   1.00
C236   C     0.38013   0.52130   0.91351   0.00000  Uiso   1.00
C237   C     0.41774   0.44044   0.86941   0.00000  Uiso   1.00
C238   C     0.49656   0.40363   0.85063   0.00000  Uiso   1.00
C239   C     0.62391   0.31641   0.80488   0.00000  Uiso   1.00
C240   C     0.27783   0.63736   0.92337   0.00000  Uiso   1.00
C241   C     0.22946   0.65407   0.88754   0.00000  Uiso   1.00
C242   C     0.22216   0.71495   0.87705   0.00000  Uiso   1.00
C243   C     0.19069   0.80792   0.84661   0.00000  Uiso   1.00
C244   C     0.36730   0.65169   0.98562   0.00000  Uiso   1.00
C245   C     0.31449   0.65753   0.04017   0.00000  Uiso   1.00
C246   C     0.30470   0.69957   0.10738   0.00000  Uiso   1.00
C247   C     0.25375   0.69752   0.14930   0.00000  Uiso   1.00
C248   C     0.41982   0.56388   0.93798   0.00000  Uiso   1.00
C249   C     0.49860   0.52717   0.91926   0.00000  Uiso   1.00
C250   C     0.53632   0.44628   0.87515   0.00000  Uiso   1.00
C251   C     0.31753   0.67994   0.94784   0.00000  Uiso   1.00
C252   C     0.31031   0.74080   0.93740   0.00000  Uiso   1.00
C253   C     0.26193   0.75760   0.90157   0.00000  Uiso   1.00
H254   H     0.26332   0.54015   0.92151   0.00000  Uiso   1.00
H255   H     0.19314   0.57988   0.03857   0.00000  Uiso   1.00
H256   H     0.38701   0.40751   0.85048   0.00000  Uiso   1.00
H257   H     0.19875   0.62111   0.86861   0.00000  Uiso   1.00
H258   H     0.13287   0.64269   0.17913   0.00000  Uiso   1.00
H259   H     0.54164   0.27924   0.78252   0.00000  Uiso   1.00
H260   H     0.14466   0.72964   0.82076   0.00000  Uiso   1.00
H261   H     0.39821   0.68484   0.00467   0.00000  Uiso   1.00
H262   H     0.33543   0.73252   0.12630   0.00000  Uiso   1.00
H263   H     0.52930   0.56014   0.93821   0.00000  Uiso   1.00
H264   H     0.34104   0.77373   0.95634   0.00000  Uiso   1.00
H265   H     0.24835   0.76656   0.25034   0.00000  Uiso   1.00
H266   H     0.65713   0.40311   0.85372   0.00000  Uiso   1.00
H267   H     0.26015   0.85352   0.89196   0.00000  Uiso   1.00
O268   O     0.14690   0.73336   0.29324   0.00000  Uiso   1.00
O269   O     0.68319   0.25653   0.77289   0.00000  Uiso   1.00
O270   O     0.16236   0.84745   0.82306   0.00000  Uiso   1.00
N271   N     0.16865   0.66531   0.17920   0.00000  Uiso   1.00
N272   N     0.55083   0.32551   0.80840   0.00000  Uiso   1.00
N273   N     0.17970   0.74658   0.84413   0.00000  Uiso   1.00
N274   N     0.23079   0.73197   0.21752   0.00000  Uiso   1.00
N275   N     0.61297   0.39216   0.84671   0.00000  Uiso   1.00
N276   N     0.24185   0.81324   0.88245   0.00000  Uiso   1.00
C277   C     0.36605   0.48354   0.56029   0.00000  Uiso   1.00
C278   C     0.38113   0.41253   0.49398   0.00000  Uiso   1.00
C279   C     0.35674   0.41555   0.44164   0.00000  Uiso   1.00
C280   C     0.37640   0.34402   0.38516   0.00000  Uiso   1.00
C281   C     0.39339   0.24471   0.28277   0.00000  Uiso   1.00
C282   C     0.44375   0.47188   0.56900   0.00000  Uiso   1.00
C283   C     0.47200   0.52480   0.57976   0.00000  Uiso   1.00
C284   C     0.54438   0.50323   0.58644   0.00000  Uiso   1.00
C285   C     0.65856   0.49608   0.60058   0.00000  Uiso   1.00
C286   C     0.32692   0.47546   0.61295   0.00000  Uiso   1.00
C287   C     0.25694   0.53140   0.66066   0.00000  Uiso   1.00
C288   C     0.23096   0.51285   0.70436   0.00000  Uiso   1.00
C289   C     0.16374   0.51126   0.78673   0.00000  Uiso   1.00
C290   C     0.44435   0.35113   0.55306   0.00000  Uiso   1.00
C291   C     0.42366   0.34062   0.49005   0.00000  Uiso   1.00
C292   C     0.44337   0.26906   0.43364   0.00000  Uiso   1.00
C293   C     0.41900   0.27197   0.38122   0.00000  Uiso   1.00
C294   C     0.48628   0.39996   0.56507   0.00000  Uiso   1.00
C295   C     0.55863   0.37831   0.57175   0.00000  Uiso   1.00
C296   C     0.58698   0.43118   0.58251   0.00000  Uiso   1.00
C297   C     0.36945   0.40354   0.60902   0.00000  Uiso   1.00
C298   C     0.34357   0.38491   0.65266   0.00000  Uiso   1.00
C299   C     0.27357   0.44080   0.70042   0.00000  Uiso   1.00
H300   H     0.33294   0.53953   0.56335   0.00000  Uiso   1.00
H301   H     0.32383   0.47122   0.44469   0.00000  Uiso   1.00
H302   H     0.43907   0.58045   0.58280   0.00000  Uiso   1.00
H303   H     0.22405   0.58705   0.66368   0.00000  Uiso   1.00
H304   H     0.33251   0.36377   0.31140   0.00000  Uiso   1.00
H305   H     0.57550   0.59411   0.60262   0.00000  Uiso   1.00
H306   H     0.12207   0.60802   0.77319   0.00000  Uiso   1.00
H307   H     0.47746   0.29514   0.55001   0.00000  Uiso   1.00
H308   H     0.47628   0.21342   0.43061   0.00000  Uiso   1.00
H309   H     0.59152   0.32265   0.56872   0.00000  Uiso   1.00
H310   H     0.37650   0.32925   0.64960   0.00000  Uiso   1.00
H311   H     0.45625   0.15453   0.29997   0.00000  Uiso   1.00
H312   H     0.69923   0.38487   0.59119   0.00000  Uiso   1.00
H313   H     0.24581   0.39877   0.76176   0.00000  Uiso   1.00
O314   O     0.39102   0.20980   0.22737   0.00000  Uiso   1.00
O315   O     0.70980   0.51200   0.60946   0.00000  Uiso   1.00
O316   O     0.11492   0.53025   0.83324   0.00000  Uiso   1.00
N317   N     0.36178   0.32574   0.32510   0.00000  Uiso   1.00
N318   N     0.58896   0.54109   0.59736   0.00000  Uiso   1.00
N319   N     0.16506   0.55410   0.75684   0.00000  Uiso   1.00
N320   N     0.42836   0.21315   0.31895   0.00000  Uiso   1.00
N321   N     0.65555   0.42850   0.59121   0.00000  Uiso   1.00
N322   N     0.23164   0.44151   0.75069   0.00000  Uiso   1.00
C323   C     0.93320   0.87315   0.58688   0.00000  Uiso   1.00
C324   C     0.94799   0.81080   0.51586   0.00000  Uiso   1.00
C325   C     0.99467   0.79590   0.45976   0.00000  Uiso   1.00
C326   C     0.00071   0.73638   0.39930   0.00000  Uiso   1.00
C327   C     0.02967   0.64609   0.28965   0.00000  Uiso   1.00
C328   C     0.95477   0.82928   0.62404   0.00000  Uiso   1.00
C329   C     0.00714   0.82993   0.65890   0.00000  Uiso   1.00
C330   C     0.01887   0.78596   0.68950   0.00000  Uiso   1.00
C331   C     0.05831   0.72441   0.74784   0.00000  Uiso   1.00
C332   C     0.84733   0.92506   0.61552   0.00000  Uiso   1.00
C333   C     0.80935   0.00624   0.64324   0.00000  Uiso   1.00
C334   C     0.73063   0.04292   0.66668   0.00000  Uiso   1.00
C335   C     0.60325   0.13008   0.71180   0.00000  Uiso   1.00
C336   C     0.86092   0.79393   0.57925   0.00000  Uiso   1.00
C337   C     0.90873   0.76778   0.51172   0.00000  Uiso   1.00
C338   C     0.91469   0.70826   0.45132   0.00000  Uiso   1.00
C339   C     0.96137   0.69327   0.39514   0.00000  Uiso   1.00
C340   C     0.91551   0.78626   0.61989   0.00000  Uiso   1.00
C341   C     0.92716   0.74228   0.65045   0.00000  Uiso   1.00
C342   C     0.97954   0.74286   0.68535   0.00000  Uiso   1.00
C343   C     0.80806   0.88204   0.61137   0.00000  Uiso   1.00
C344   C     0.72938   0.91860   0.63479   0.00000  Uiso   1.00
C345   C     0.69129   0.99982   0.66253   0.00000  Uiso   1.00
H346   H     0.96377   0.90664   0.59011   0.00000  Uiso   1.00
H347   H     0.02505   0.82921   0.46299   0.00000  Uiso   1.00
H348   H     0.03751   0.86324   0.66210   0.00000  Uiso   1.00
H349   H     0.83976   0.03952   0.64643   0.00000  Uiso   1.00
H350   H     0.07570   0.72436   0.32023   0.00000  Uiso   1.00
H351   H     0.10194   0.79613   0.74008   0.00000  Uiso   1.00
H352   H     0.68494   0.16787   0.70705   0.00000  Uiso   1.00
H353   H     0.83035   0.76043   0.57603   0.00000  Uiso   1.00
H354   H     0.88430   0.67497   0.44813   0.00000  Uiso   1.00
H355   H     0.89676   0.70900   0.64724   0.00000  Uiso   1.00
H356   H     0.69901   0.88528   0.63157   0.00000  Uiso   1.00
H357   H     0.96146   0.59917   0.30817   0.00000  Uiso   1.00
H358   H     0.98771   0.67095   0.72802   0.00000  Uiso   1.00
H359   H     0.57071   0.04268   0.69499   0.00000  Uiso   1.00
O360   O     0.05650   0.60817   0.23032   0.00000  Uiso   1.00
O361   O     0.09093   0.70234   0.78116   0.00000  Uiso   1.00
O362   O     0.54383   0.19005   0.73782   0.00000  Uiso   1.00
N363   N     0.04139   0.70664   0.33494   0.00000  Uiso   1.00
N364   N     0.06594   0.77373   0.72747   0.00000  Uiso   1.00
N365   N     0.67609   0.12127   0.69660   0.00000  Uiso   1.00
N366   N     0.97992   0.63928   0.32845   0.00000  Uiso   1.00
N367   N     0.00448   0.70637   0.72098   0.00000  Uiso   1.00
N368   N     0.61462   0.05391   0.69011   0.00000  Uiso   1.00
C369   C     0.24621   0.85799   0.58058   0.00000  Uiso   1.00
C370   C     0.26889   0.80167   0.50628   0.00000  Uiso   1.00
C371   C     0.28746   0.72243   0.47563   0.00000  Uiso   1.00
C372   C     0.30664   0.68100   0.40711   0.00000  Uiso   1.00
C373   C     0.34174   0.58799   0.29728   0.00000  Uiso   1.00
C374   C     0.16882   0.92640   0.59872   0.00000  Uiso   1.00
C375   C     0.10326   0.95205   0.64579   0.00000  Uiso   1.00
C376   C     0.03820   0.01563   0.65509   0.00000  Uiso   1.00
C377   C     0.91795   0.11632   0.68882   0.00000  Uiso   1.00
C378   C     0.30162   0.89202   0.59072   0.00000  Uiso   1.00
C379   C     0.34769   0.88878   0.63109   0.00000  Uiso   1.00
C380   C     0.39442   0.92343   0.63367   0.00000  Uiso   1.00
C381   C     0.48036   0.97074   0.65497   0.00000  Uiso   1.00
C382   C     0.24725   0.92530   0.51341   0.00000  Uiso   1.00
C383   C     0.26945   0.83823   0.46979   0.00000  Uiso   1.00
C384   C     0.28861   0.79691   0.40130   0.00000  Uiso   1.00
C385   C     0.30721   0.71762   0.37055   0.00000  Uiso   1.00
C386   C     0.16939   0.96297   0.56223   0.00000  Uiso   1.00
C387   C     0.10441   0.02653   0.57147   0.00000  Uiso   1.00
C388   C     0.03877   0.05226   0.61854   0.00000  Uiso   1.00
C389   C     0.30218   0.92859   0.55423   0.00000  Uiso   1.00
C390   C     0.34885   0.96326   0.55676   0.00000  Uiso   1.00
C391   C     0.39499   0.96007   0.59711   0.00000  Uiso   1.00
H392   H     0.24576   0.82952   0.60899   0.00000  Uiso   1.00
H393   H     0.28701   0.69416   0.50388   0.00000  Uiso   1.00
H394   H     0.10284   0.92374   0.67402   0.00000  Uiso   1.00
H395   H     0.34724   0.86048   0.65931   0.00000  Uiso   1.00
H396   H     0.33296   0.56021   0.37125   0.00000  Uiso   1.00
H397   H     0.94464   0.04432   0.73003   0.00000  Uiso   1.00
H398   H     0.46000   0.91093   0.69901   0.00000  Uiso   1.00
H399   H     0.24769   0.95378   0.48500   0.00000  Uiso   1.00
H400   H     0.28905   0.82522   0.37308   0.00000  Uiso   1.00
H401   H     0.10487   0.05481   0.54323   0.00000  Uiso   1.00
H402   H     0.34927   0.99155   0.52852   0.00000  Uiso   1.00
H403   H     0.33461   0.66659   0.26509   0.00000  Uiso   1.00
H404   H     0.94628   0.15071   0.62387   0.00000  Uiso   1.00
H405   H     0.46164   0.01731   0.59285   0.00000  Uiso   1.00
O406   O     0.36093   0.52660   0.24679   0.00000  Uiso   1.00
O407   O     0.85147   0.16175   0.71749   0.00000  Uiso   1.00
O408   O     0.52761   0.98673   0.67680   0.00000  Uiso   1.00
N409   N     0.32769   0.60288   0.36163   0.00000  Uiso   1.00
N410   N     0.96462   0.05549   0.69705   0.00000  Uiso   1.00
N411   N     0.44643   0.93080   0.66807   0.00000  Uiso   1.00
N412   N     0.32858   0.66013   0.30450   0.00000  Uiso   1.00
N413   N     0.96551   0.11274   0.63993   0.00000  Uiso   1.00
N414   N     0.44732   0.98804   0.61094   0.00000  Uiso   1.00
C415   C     0.77104   0.92323   0.11595   0.00000  Uiso   1.00
C416   C     0.79440   0.87070   0.04099   0.00000  Uiso   1.00
C417   C     0.74551   0.86906   0.00274   0.00000  Uiso   1.00
C418   C     0.77802   0.81685   0.93499   0.00000  Uiso   1.00
C419   C     0.80234   0.74268   0.82293   0.00000  Uiso   1.00
C420   C     0.80237   0.86779   0.14201   0.00000  Uiso   1.00
C421   C     0.76018   0.86371   0.18870   0.00000  Uiso   1.00
C422   C     0.79941   0.80906   0.20600   0.00000  Uiso   1.00
C423   C     0.83611   0.73041   0.25080   0.00000  Uiso   1.00
C424   C     0.81550   0.96966   0.12901   0.00000  Uiso   1.00
C425   C     0.78434   0.05123   0.16478   0.00000  Uiso   1.00
C426   C     0.83463   0.08235   0.17114   0.00000  Uiso   1.00
C427   C     0.89171   0.16187   0.19576   0.00000  Uiso   1.00
C428   C     0.91573   0.83344   0.06366   0.00000  Uiso   1.00
C429   C     0.87300   0.82193   0.01259   0.00000  Uiso   1.00
C430   C     0.90560   0.76972   0.94488   0.00000  Uiso   1.00
C431   C     0.85676   0.76800   0.90654   0.00000  Uiso   1.00
C432   C     0.88096   0.81902   0.11361   0.00000  Uiso   1.00
C433   C     0.92027   0.76437   0.13084   0.00000  Uiso   1.00
C434   C     0.87814   0.76020   0.17754   0.00000  Uiso   1.00
C435   C     0.89409   0.92089   0.10060   0.00000  Uiso   1.00
C436   C     0.94443   0.95189   0.10692   0.00000  Uiso   1.00
C437   C     0.91336   0.03349   0.14269   0.00000  Uiso   1.00
H438   H     0.70985   0.96119   0.13806   0.00000  Uiso   1.00
H439   H     0.68469   0.90680   0.02474   0.00000  Uiso   1.00
H440   H     0.69936   0.90146   0.21068   0.00000  Uiso   1.00
H441   H     0.72352   0.08895   0.18675   0.00000  Uiso   1.00
H442   H     0.69145   0.82497   0.88658   0.00000  Uiso   1.00
H443   H     0.72239   0.81372   0.27865   0.00000  Uiso   1.00
H444   H     0.77333   0.20908   0.22821   0.00000  Uiso   1.00
H445   H     0.97692   0.79548   0.04154   0.00000  Uiso   1.00
H446   H     0.96642   0.73199   0.92292   0.00000  Uiso   1.00
H447   H     0.98109   0.72665   0.10886   0.00000  Uiso   1.00
H448   H     0.00525   0.91414   0.08493   0.00000  Uiso   1.00
H449   H     0.92011   0.68309   0.80393   0.00000  Uiso   1.00
H450   H     0.95105   0.67184   0.19601   0.00000  Uiso   1.00
H451   H     0.00200   0.06720   0.14557   0.00000  Uiso   1.00
O452   O     0.79404   0.71524   0.76896   0.00000  Uiso   1.00
O453   O     0.83464   0.70049   0.28336   0.00000  Uiso   1.00
O454   O     0.90148   0.21920   0.21718   0.00000  Uiso   1.00
N455   N     0.74671   0.80030   0.88340   0.00000  Uiso   1.00
N456   N     0.77563   0.78978   0.24996   0.00000  Uiso   1.00
N457   N     0.82326   0.15941   0.20282   0.00000  Uiso   1.00
N458   N     0.86975   0.72396   0.83893   0.00000  Uiso   1.00
N459   N     0.89867   0.71343   0.20549   0.00000  Uiso   1.00
N460   N     0.94631   0.08306   0.15835   0.00000  Uiso   1.00
C461   C     0.58751   0.81034   0.10854   0.00000  Uiso   1.00
C462   C     0.63018   0.74736   0.03591   0.00000  Uiso   1.00
C463   C     0.70393   0.72371   0.00305   0.00000  Uiso   1.00
C464   C     0.73275   0.66521   0.93662   0.00000  Uiso   1.00
C465   C     0.80560   0.57257   0.82876   0.00000  Uiso   1.00
C466   C     0.51480   0.87084   0.10941   0.00000  Uiso   1.00
C467   C     0.49153   0.95099   0.13835   0.00000  Uiso   1.00
C468   C     0.42321   0.99643   0.13380   0.00000  Uiso   1.00
C469   C     0.31690   0.09549   0.14008   0.00000  Uiso   1.00
C470   C     0.56275   0.77046   0.13948   0.00000  Uiso   1.00
C471   C     0.57979   0.76623   0.19373   0.00000  Uiso   1.00
C472   C     0.55183   0.72717   0.21450   0.00000  Uiso   1.00
C473   C     0.51998   0.67038   0.26749   0.00000  Uiso   1.00
C474   C     0.50755   0.74852   0.04898   0.00000  Uiso   1.00
C475   C     0.58675   0.71379   0.00356   0.00000  Uiso   1.00
C476   C     0.61546   0.65531   0.93716   0.00000  Uiso   1.00
C477   C     0.68924   0.63157   0.90421   0.00000  Uiso   1.00
C478   C     0.47137   0.83726   0.07706   0.00000  Uiso   1.00
C479   C     0.40306   0.88260   0.07246   0.00000  Uiso   1.00
C480   C     0.37970   0.96280   0.10139   0.00000  Uiso   1.00
C481   C     0.51932   0.73688   0.10713   0.00000  Uiso   1.00
C482   C     0.49133   0.69783   0.12783   0.00000  Uiso   1.00
C483   C     0.50832   0.69354   0.18210   0.00000  Uiso   1.00
H484   H     0.62132   0.83648   0.13372   0.00000  Uiso   1.00
H485   H     0.73752   0.74971   0.02810   0.00000  Uiso   1.00
H486   H     0.52515   0.97696   0.16339   0.00000  Uiso   1.00
H487   H     0.61340   0.79222   0.21875   0.00000  Uiso   1.00
H488   H     0.84719   0.63872   0.89673   0.00000  Uiso   1.00
H489   H     0.39938   0.11789   0.18201   0.00000  Uiso   1.00
H490   H     0.58547   0.72834   0.29875   0.00000  Uiso   1.00
H491   H     0.47373   0.72238   0.02380   0.00000  Uiso   1.00
H492   H     0.58184   0.62934   0.91214   0.00000  Uiso   1.00
H493   H     0.36947   0.85659   0.04743   0.00000  Uiso   1.00
H494   H     0.45772   0.67186   0.10279   0.00000  Uiso   1.00
H495   H     0.72083   0.54103   0.80261   0.00000  Uiso   1.00
H496   H     0.27302   0.02020   0.08789   0.00000  Uiso   1.00
H497   H     0.45911   0.63064   0.20463   0.00000  Uiso   1.00
O498   O     0.85778   0.53075   0.77820   0.00000  Uiso   1.00
O499   O     0.27026   0.15940   0.15248   0.00000  Uiso   1.00
O500   O     0.51441   0.64831   0.30564   0.00000  Uiso   1.00
N501   N     0.80262   0.62849   0.88990   0.00000  Uiso   1.00
N502   N     0.38395   0.07648   0.15661   0.00000  Uiso   1.00
N503   N     0.55791   0.71230   0.26577   0.00000  Uiso   1.00
N504   N     0.73463   0.57592   0.83926   0.00000  Uiso   1.00
N505   N     0.31596   0.02391   0.10597   0.00000  Uiso   1.00
N506   N     0.48992   0.65973   0.21512   0.00000  Uiso   1.00
C507   C     0.76360   0.47430   0.00973   0.00000  Uiso   1.00
C508   C     0.82094   0.41943   0.94065   0.00000  Uiso   1.00
C509   C     0.83730   0.44198   0.89676   0.00000  Uiso   1.00
C510   C     0.89154   0.38291   0.83594   0.00000  Uiso   1.00
C511   C     0.97499   0.30969   0.73113   0.00000  Uiso   1.00
C512   C     0.70841   0.44139   0.01108   0.00000  Uiso   1.00
C513   C     0.63015   0.48241   0.02643   0.00000  Uiso   1.00
C514   C     0.58966   0.44183   0.02490   0.00000  Uiso   1.00
C515   C     0.49840   0.40271   0.02949   0.00000  Uiso   1.00
C516   C     0.80752   0.46271   0.05692   0.00000  Uiso   1.00
C517   C     0.81258   0.52166   0.11081   0.00000  Uiso   1.00
C518   C     0.85551   0.49902   0.14789   0.00000  Uiso   1.00
C519   C     0.91813   0.49300   0.22364   0.00000  Uiso   1.00
C520   C     0.83083   0.32929   0.97975   0.00000  Uiso   1.00
C521   C     0.85746   0.34067   0.92437   0.00000  Uiso   1.00
C522   C     0.91169   0.28154   0.86359   0.00000  Uiso   1.00
C523   C     0.92812   0.30400   0.81962   0.00000  Uiso   1.00
C524   C     0.74492   0.36263   0.99480   0.00000  Uiso   1.00
C525   C     0.70454   0.32197   0.99326   0.00000  Uiso   1.00
C526   C     0.62624   0.36292   0.00859   0.00000  Uiso   1.00
C527   C     0.84404   0.38394   0.04064   0.00000  Uiso   1.00
C528   C     0.88697   0.36121   0.07764   0.00000  Uiso   1.00
C529   C     0.89209   0.42011   0.13157   0.00000  Uiso   1.00
H530   H     0.73517   0.53563   0.02241   0.00000  Uiso   1.00
H531   H     0.80902   0.50295   0.90938   0.00000  Uiso   1.00
H532   H     0.60191   0.54337   0.03903   0.00000  Uiso   1.00
H533   H     0.78431   0.58260   0.12340   0.00000  Uiso   1.00
H534   H     0.90699   0.43197   0.77688   0.00000  Uiso   1.00
H535   H     0.47027   0.51722   0.05027   0.00000  Uiso   1.00
H536   H     0.85490   0.59995   0.22818   0.00000  Uiso   1.00
H537   H     0.85926   0.26796   0.96708   0.00000  Uiso   1.00
H538   H     0.93994   0.22059   0.85101   0.00000  Uiso   1.00
H539   H     0.73281   0.26102   0.98065   0.00000  Uiso   1.00
H540   H     0.91522   0.30025   0.06502   0.00000  Uiso   1.00
H541   H     0.01324   0.20281   0.72949   0.00000  Uiso   1.00
H542   H     0.57652   0.28805   0.00289   0.00000  Uiso   1.00
H543   H     0.96115   0.37078   0.18080   0.00000  Uiso   1.00
O544   O     0.01093   0.29105   0.67782   0.00000  Uiso   1.00
O545   O     0.43797   0.40290   0.03652   0.00000  Uiso   1.00
O546   O     0.94259   0.51144   0.26992   0.00000  Uiso   1.00
N547   N     0.92094   0.38454   0.78166   0.00000  Uiso   1.00
N548   N     0.51263   0.46424   0.03726   0.00000  Uiso   1.00
N549   N     0.87221   0.54159   0.20360   0.00000  Uiso   1.00
N550   N     0.97811   0.26123   0.75616   0.00000  Uiso   1.00
N551   N     0.56981   0.34093   0.01176   0.00000  Uiso   1.00
N552   N     0.92938   0.41827   0.17810   0.00000  Uiso   1.00
