data_job_02059
_audit_creation_date              2018-12-19
_audit_creation_method            'Materials Studio'
_symmetry_space_group_name_H-M    'P1'
_symmetry_Int_Tables_number       1
_symmetry_cell_setting            triclinic
loop_
_symmetry_equiv_pos_as_xyz
  x,y,z
_cell_length_a                    10.2836
_cell_length_b                    31.5916
_cell_length_c                    13.6288
_cell_angle_alpha                 90.0000
_cell_angle_beta                  90.0000
_cell_angle_gamma                 90.0000
loop_
_atom_site_label
_atom_site_type_symbol
_atom_site_fract_x
_atom_site_fract_y
_atom_site_fract_z
_atom_site_U_iso_or_equiv
_atom_site_adp_type
_atom_site_occupancy
C1     C     0.35755   0.60972   0.99729   0.00000  Uiso   1.00
C2     C     0.45592   0.61561   0.07989   0.00000  Uiso   1.00
C3     C     0.58917   0.62041   0.06826   0.00000  Uiso   1.00
C4     C     0.66252   0.62540   0.15300   0.00000  Uiso   1.00
C5     C     0.82409   0.63451   0.26711   0.00000  Uiso   1.00
C6     C     0.28562   0.56865   0.01995   0.00000  Uiso   1.00
C7     C     0.27568   0.53397   0.95791   0.00000  Uiso   1.00
C8     C     0.20566   0.49942   0.99219   0.00000  Uiso   1.00
C9     C     0.10276   0.43563   0.01322   0.00000  Uiso   1.00
C10    C     0.25798   0.64510   0.00935   0.00000  Uiso   1.00
C11    C     0.22475   0.67469   0.93838   0.00000  Uiso   1.00
C12    C     0.13142   0.70451   0.96373   0.00000  Uiso   1.00
C13    C     0.98560   0.75943   0.96830   0.00000  Uiso   1.00
C14    C     0.25085   0.61004   0.16848   0.00000  Uiso   1.00
C15    C     0.39796   0.61579   0.17288   0.00000  Uiso   1.00
C16    C     0.47112   0.62077   0.25766   0.00000  Uiso   1.00
C17    C     0.60446   0.62558   0.24615   0.00000  Uiso   1.00
C18    C     0.22767   0.56883   0.11293   0.00000  Uiso   1.00
C19    C     0.15764   0.53433   0.14731   0.00000  Uiso   1.00
C20    C     0.14760   0.49960   0.08534   0.00000  Uiso   1.00
C21    C     0.20002   0.64528   0.10234   0.00000  Uiso   1.00
C22    C     0.10671   0.67506   0.12779   0.00000  Uiso   1.00
C23    C     0.07336   0.70469   0.05688   0.00000  Uiso   1.00
H24    H     0.40266   0.60957   0.92490   0.00000  Uiso   1.00
H25    H     0.63399   0.62027   0.99628   0.00000  Uiso   1.00
H26    H     0.32053   0.53384   0.88595   0.00000  Uiso   1.00
H27    H     0.26962   0.67455   0.86644   0.00000  Uiso   1.00
H28    H     0.86490   0.63219   0.11643   0.00000  Uiso   1.00
H29    H     0.20393   0.44995   0.88378   0.00000  Uiso   1.00
H30    H     0.09657   0.74666   0.84262   0.00000  Uiso   1.00
H31    H     0.20572   0.61018   0.24088   0.00000  Uiso   1.00
H32    H     0.42625   0.62091   0.32961   0.00000  Uiso   1.00
H33    H     0.11279   0.53448   0.21927   0.00000  Uiso   1.00
H34    H     0.06189   0.67519   0.19976   0.00000  Uiso   1.00
H35    H     0.69629   0.63270   0.38697   0.00000  Uiso   1.00
H36    H     0.03532   0.45047   0.15431   0.00000  Uiso   1.00
H37    H     0.92796   0.74718   0.11316   0.00000  Uiso   1.00
O38    O     0.92922   0.63948   0.30437   0.00000  Uiso   1.00
O39    O     0.06204   0.40040   0.99913   0.00000  Uiso   1.00
O40    O     0.92119   0.78967   0.94514   0.00000  Uiso   1.00
N41    N     0.79495   0.63084   0.16793   0.00000  Uiso   1.00
N42    N     0.17700   0.46046   0.95042   0.00000  Uiso   1.00
N43    N     0.07660   0.73785   0.91193   0.00000  Uiso   1.00
N44    N     0.70423   0.63112   0.31350   0.00000  Uiso   1.00
N45    N     0.08628   0.46074   0.09599   0.00000  Uiso   1.00
N46    N     0.98588   0.73813   0.05750   0.00000  Uiso   1.00
C47    C     0.14245   0.89028   0.99729   0.00000  Uiso   1.00
C48    C     0.04408   0.88439   0.07989   0.00000  Uiso   1.00
C49    C     0.91083   0.87959   0.06826   0.00000  Uiso   1.00
C50    C     0.83748   0.87460   0.15300   0.00000  Uiso   1.00
C51    C     0.67591   0.86549   0.26711   0.00000  Uiso   1.00
C52    C     0.21438   0.93135   0.01995   0.00000  Uiso   1.00
C53    C     0.22432   0.96603   0.95791   0.00000  Uiso   1.00
C54    C     0.29434   0.00058   0.99219   0.00000  Uiso   1.00
C55    C     0.39724   0.06437   0.01322   0.00000  Uiso   1.00
C56    C     0.24202   0.85490   0.00935   0.00000  Uiso   1.00
C57    C     0.27525   0.82531   0.93838   0.00000  Uiso   1.00
C58    C     0.36858   0.79549   0.96373   0.00000  Uiso   1.00
C59    C     0.51440   0.74057   0.96830   0.00000  Uiso   1.00
C60    C     0.24915   0.88996   0.16848   0.00000  Uiso   1.00
C61    C     0.10204   0.88421   0.17288   0.00000  Uiso   1.00
C62    C     0.02888   0.87923   0.25766   0.00000  Uiso   1.00
C63    C     0.89554   0.87442   0.24615   0.00000  Uiso   1.00
C64    C     0.27233   0.93117   0.11293   0.00000  Uiso   1.00
C65    C     0.34236   0.96567   0.14731   0.00000  Uiso   1.00
C66    C     0.35240   0.00040   0.08534   0.00000  Uiso   1.00
C67    C     0.29998   0.85472   0.10234   0.00000  Uiso   1.00
C68    C     0.39329   0.82494   0.12779   0.00000  Uiso   1.00
C69    C     0.42664   0.79531   0.05688   0.00000  Uiso   1.00
H70    H     0.09734   0.89043   0.92490   0.00000  Uiso   1.00
H71    H     0.86601   0.87973   0.99628   0.00000  Uiso   1.00
H72    H     0.17947   0.96616   0.88595   0.00000  Uiso   1.00
H73    H     0.23038   0.82545   0.86644   0.00000  Uiso   1.00
H74    H     0.63510   0.86781   0.11643   0.00000  Uiso   1.00
H75    H     0.29607   0.05005   0.88378   0.00000  Uiso   1.00
H76    H     0.40343   0.75334   0.84262   0.00000  Uiso   1.00
H77    H     0.29428   0.88982   0.24088   0.00000  Uiso   1.00
H78    H     0.07375   0.87909   0.32961   0.00000  Uiso   1.00
H79    H     0.38721   0.96552   0.21927   0.00000  Uiso   1.00
H80    H     0.43811   0.82481   0.19976   0.00000  Uiso   1.00
H81    H     0.80371   0.86730   0.38697   0.00000  Uiso   1.00
H82    H     0.46468   0.04953   0.15431   0.00000  Uiso   1.00
H83    H     0.57204   0.75282   0.11316   0.00000  Uiso   1.00
O84    O     0.57078   0.86052   0.30437   0.00000  Uiso   1.00
O85    O     0.43796   0.09960   0.99913   0.00000  Uiso   1.00
O86    O     0.57881   0.71033   0.94514   0.00000  Uiso   1.00
N87    N     0.70505   0.86916   0.16793   0.00000  Uiso   1.00
N88    N     0.32300   0.03954   0.95042   0.00000  Uiso   1.00
N89    N     0.42340   0.76215   0.91193   0.00000  Uiso   1.00
N90    N     0.79577   0.86888   0.31350   0.00000  Uiso   1.00
N91    N     0.41372   0.03926   0.09599   0.00000  Uiso   1.00
N92    N     0.51412   0.76187   0.05750   0.00000  Uiso   1.00
C93    C     0.64245   0.10972   0.50271   0.00000  Uiso   1.00
C94    C     0.54408   0.11561   0.42011   0.00000  Uiso   1.00
C95    C     0.41083   0.12041   0.43174   0.00000  Uiso   1.00
C96    C     0.33748   0.12540   0.34700   0.00000  Uiso   1.00
C97    C     0.17591   0.13451   0.23289   0.00000  Uiso   1.00
C98    C     0.71438   0.06865   0.48005   0.00000  Uiso   1.00
C99    C     0.72432   0.03397   0.54209   0.00000  Uiso   1.00
C100   C     0.79434   0.99942   0.50781   0.00000  Uiso   1.00
C101   C     0.89724   0.93563   0.48678   0.00000  Uiso   1.00
C102   C     0.74202   0.14510   0.49065   0.00000  Uiso   1.00
C103   C     0.77525   0.17469   0.56162   0.00000  Uiso   1.00
C104   C     0.86858   0.20451   0.53627   0.00000  Uiso   1.00
C105   C     0.01440   0.25943   0.53170   0.00000  Uiso   1.00
C106   C     0.74915   0.11004   0.33152   0.00000  Uiso   1.00
C107   C     0.60204   0.11579   0.32712   0.00000  Uiso   1.00
C108   C     0.52888   0.12077   0.24234   0.00000  Uiso   1.00
C109   C     0.39554   0.12558   0.25385   0.00000  Uiso   1.00
C110   C     0.77233   0.06883   0.38707   0.00000  Uiso   1.00
C111   C     0.84236   0.03433   0.35269   0.00000  Uiso   1.00
C112   C     0.85240   0.99960   0.41466   0.00000  Uiso   1.00
C113   C     0.79998   0.14528   0.39766   0.00000  Uiso   1.00
C114   C     0.89329   0.17506   0.37221   0.00000  Uiso   1.00
C115   C     0.92664   0.20469   0.44312   0.00000  Uiso   1.00
H116   H     0.59734   0.10957   0.57510   0.00000  Uiso   1.00
H117   H     0.36601   0.12027   0.50372   0.00000  Uiso   1.00
H118   H     0.67947   0.03384   0.61405   0.00000  Uiso   1.00
H119   H     0.73038   0.17455   0.63356   0.00000  Uiso   1.00
H120   H     0.13510   0.13219   0.38357   0.00000  Uiso   1.00
H121   H     0.79607   0.94995   0.61622   0.00000  Uiso   1.00
H122   H     0.90343   0.24666   0.65738   0.00000  Uiso   1.00
H123   H     0.79428   0.11018   0.25912   0.00000  Uiso   1.00
H124   H     0.57375   0.12091   0.17039   0.00000  Uiso   1.00
H125   H     0.88721   0.03448   0.28073   0.00000  Uiso   1.00
H126   H     0.93811   0.17519   0.30024   0.00000  Uiso   1.00
H127   H     0.30371   0.13270   0.11303   0.00000  Uiso   1.00
H128   H     0.96468   0.95047   0.34569   0.00000  Uiso   1.00
H129   H     0.07204   0.24718   0.38684   0.00000  Uiso   1.00
O130   O     0.07078   0.13948   0.19563   0.00000  Uiso   1.00
O131   O     0.93796   0.90040   0.50087   0.00000  Uiso   1.00
O132   O     0.07881   0.28967   0.55486   0.00000  Uiso   1.00
N133   N     0.20505   0.13084   0.33207   0.00000  Uiso   1.00
N134   N     0.82300   0.96046   0.54958   0.00000  Uiso   1.00
N135   N     0.92340   0.23785   0.58807   0.00000  Uiso   1.00
N136   N     0.29577   0.13112   0.18650   0.00000  Uiso   1.00
N137   N     0.91372   0.96074   0.40401   0.00000  Uiso   1.00
N138   N     0.01412   0.23813   0.44250   0.00000  Uiso   1.00
C139   C     0.85755   0.39028   0.50271   0.00000  Uiso   1.00
C140   C     0.95592   0.38439   0.42011   0.00000  Uiso   1.00
C141   C     0.08917   0.37959   0.43174   0.00000  Uiso   1.00
C142   C     0.16252   0.37460   0.34700   0.00000  Uiso   1.00
C143   C     0.32409   0.36549   0.23289   0.00000  Uiso   1.00
C144   C     0.78562   0.43135   0.48005   0.00000  Uiso   1.00
C145   C     0.77568   0.46603   0.54209   0.00000  Uiso   1.00
C146   C     0.70566   0.50058   0.50781   0.00000  Uiso   1.00
C147   C     0.60276   0.56437   0.48678   0.00000  Uiso   1.00
C148   C     0.75798   0.35490   0.49065   0.00000  Uiso   1.00
C149   C     0.72475   0.32531   0.56162   0.00000  Uiso   1.00
C150   C     0.63142   0.29549   0.53627   0.00000  Uiso   1.00
C151   C     0.48560   0.24057   0.53170   0.00000  Uiso   1.00
C152   C     0.75085   0.38996   0.33152   0.00000  Uiso   1.00
C153   C     0.89796   0.38421   0.32712   0.00000  Uiso   1.00
C154   C     0.97112   0.37923   0.24234   0.00000  Uiso   1.00
C155   C     0.10446   0.37442   0.25385   0.00000  Uiso   1.00
C156   C     0.72767   0.43117   0.38707   0.00000  Uiso   1.00
C157   C     0.65764   0.46567   0.35269   0.00000  Uiso   1.00
C158   C     0.64760   0.50040   0.41466   0.00000  Uiso   1.00
C159   C     0.70002   0.35472   0.39766   0.00000  Uiso   1.00
C160   C     0.60671   0.32494   0.37221   0.00000  Uiso   1.00
C161   C     0.57336   0.29531   0.44312   0.00000  Uiso   1.00
H162   H     0.90266   0.39043   0.57510   0.00000  Uiso   1.00
H163   H     0.13399   0.37973   0.50372   0.00000  Uiso   1.00
H164   H     0.82053   0.46616   0.61405   0.00000  Uiso   1.00
H165   H     0.76962   0.32545   0.63356   0.00000  Uiso   1.00
H166   H     0.36490   0.36781   0.38357   0.00000  Uiso   1.00
H167   H     0.70393   0.55005   0.61622   0.00000  Uiso   1.00
H168   H     0.59657   0.25334   0.65738   0.00000  Uiso   1.00
H169   H     0.70572   0.38982   0.25912   0.00000  Uiso   1.00
H170   H     0.92625   0.37909   0.17039   0.00000  Uiso   1.00
H171   H     0.61279   0.46552   0.28073   0.00000  Uiso   1.00
H172   H     0.56189   0.32481   0.30024   0.00000  Uiso   1.00
H173   H     0.19629   0.36730   0.11303   0.00000  Uiso   1.00
H174   H     0.53532   0.54953   0.34569   0.00000  Uiso   1.00
H175   H     0.42796   0.25282   0.38684   0.00000  Uiso   1.00
O176   O     0.42922   0.36052   0.19563   0.00000  Uiso   1.00
O177   O     0.56204   0.59960   0.50087   0.00000  Uiso   1.00
O178   O     0.42119   0.21033   0.55486   0.00000  Uiso   1.00
N179   N     0.29495   0.36916   0.33207   0.00000  Uiso   1.00
N180   N     0.67700   0.53954   0.54958   0.00000  Uiso   1.00
N181   N     0.57660   0.26215   0.58807   0.00000  Uiso   1.00
N182   N     0.20423   0.36888   0.18650   0.00000  Uiso   1.00
N183   N     0.58628   0.53926   0.40401   0.00000  Uiso   1.00
N184   N     0.48588   0.26187   0.44250   0.00000  Uiso   1.00
C185   C     0.64245   0.39028   0.00271   0.00000  Uiso   1.00
C186   C     0.54408   0.38439   0.92011   0.00000  Uiso   1.00
C187   C     0.41083   0.37959   0.93174   0.00000  Uiso   1.00
C188   C     0.33748   0.37460   0.84700   0.00000  Uiso   1.00
C189   C     0.17591   0.36549   0.73289   0.00000  Uiso   1.00
C190   C     0.71438   0.43135   0.98005   0.00000  Uiso   1.00
C191   C     0.72432   0.46603   0.04209   0.00000  Uiso   1.00
C192   C     0.79434   0.50058   0.00781   0.00000  Uiso   1.00
C193   C     0.89724   0.56437   0.98678   0.00000  Uiso   1.00
C194   C     0.74202   0.35490   0.99065   0.00000  Uiso   1.00
C195   C     0.77525   0.32531   0.06162   0.00000  Uiso   1.00
C196   C     0.86858   0.29549   0.03627   0.00000  Uiso   1.00
C197   C     0.01440   0.24057   0.03170   0.00000  Uiso   1.00
C198   C     0.74915   0.38996   0.83152   0.00000  Uiso   1.00
C199   C     0.60204   0.38421   0.82712   0.00000  Uiso   1.00
C200   C     0.52888   0.37923   0.74234   0.00000  Uiso   1.00
C201   C     0.39554   0.37442   0.75385   0.00000  Uiso   1.00
C202   C     0.77233   0.43117   0.88707   0.00000  Uiso   1.00
C203   C     0.84236   0.46567   0.85269   0.00000  Uiso   1.00
C204   C     0.85240   0.50040   0.91466   0.00000  Uiso   1.00
C205   C     0.79998   0.35472   0.89766   0.00000  Uiso   1.00
C206   C     0.89329   0.32494   0.87221   0.00000  Uiso   1.00
C207   C     0.92664   0.29531   0.94312   0.00000  Uiso   1.00
H208   H     0.59734   0.39043   0.07510   0.00000  Uiso   1.00
H209   H     0.36601   0.37973   0.00372   0.00000  Uiso   1.00
H210   H     0.67947   0.46616   0.11405   0.00000  Uiso   1.00
H211   H     0.73038   0.32545   0.13356   0.00000  Uiso   1.00
H212   H     0.13510   0.36781   0.88357   0.00000  Uiso   1.00
H213   H     0.79607   0.55005   0.11622   0.00000  Uiso   1.00
H214   H     0.90343   0.25334   0.15738   0.00000  Uiso   1.00
H215   H     0.79428   0.38982   0.75912   0.00000  Uiso   1.00
H216   H     0.57375   0.37909   0.67039   0.00000  Uiso   1.00
H217   H     0.88721   0.46552   0.78073   0.00000  Uiso   1.00
H218   H     0.93811   0.32481   0.80024   0.00000  Uiso   1.00
H219   H     0.30371   0.36730   0.61303   0.00000  Uiso   1.00
H220   H     0.96468   0.54953   0.84569   0.00000  Uiso   1.00
H221   H     0.07204   0.25282   0.88684   0.00000  Uiso   1.00
O222   O     0.07078   0.36052   0.69563   0.00000  Uiso   1.00
O223   O     0.93796   0.59960   0.00087   0.00000  Uiso   1.00
O224   O     0.07881   0.21033   0.05486   0.00000  Uiso   1.00
N225   N     0.20505   0.36916   0.83207   0.00000  Uiso   1.00
N226   N     0.82300   0.53954   0.04958   0.00000  Uiso   1.00
N227   N     0.92340   0.26215   0.08807   0.00000  Uiso   1.00
N228   N     0.29577   0.36888   0.68650   0.00000  Uiso   1.00
N229   N     0.91372   0.53926   0.90401   0.00000  Uiso   1.00
N230   N     0.01412   0.26187   0.94250   0.00000  Uiso   1.00
C231   C     0.85755   0.10972   0.00271   0.00000  Uiso   1.00
C232   C     0.95592   0.11561   0.92011   0.00000  Uiso   1.00
C233   C     0.08917   0.12041   0.93174   0.00000  Uiso   1.00
C234   C     0.16252   0.12540   0.84700   0.00000  Uiso   1.00
C235   C     0.32409   0.13451   0.73289   0.00000  Uiso   1.00
C236   C     0.78562   0.06865   0.98005   0.00000  Uiso   1.00
C237   C     0.77568   0.03397   0.04209   0.00000  Uiso   1.00
C238   C     0.70566   0.99942   0.00781   0.00000  Uiso   1.00
C239   C     0.60276   0.93563   0.98678   0.00000  Uiso   1.00
C240   C     0.75798   0.14510   0.99065   0.00000  Uiso   1.00
C241   C     0.72475   0.17469   0.06162   0.00000  Uiso   1.00
C242   C     0.63142   0.20451   0.03627   0.00000  Uiso   1.00
C243   C     0.48560   0.25943   0.03170   0.00000  Uiso   1.00
C244   C     0.75085   0.11004   0.83152   0.00000  Uiso   1.00
C245   C     0.89796   0.11579   0.82712   0.00000  Uiso   1.00
C246   C     0.97112   0.12077   0.74234   0.00000  Uiso   1.00
C247   C     0.10446   0.12558   0.75385   0.00000  Uiso   1.00
C248   C     0.72767   0.06883   0.88707   0.00000  Uiso   1.00
C249   C     0.65764   0.03433   0.85269   0.00000  Uiso   1.00
C250   C     0.64760   0.99960   0.91466   0.00000  Uiso   1.00
C251   C     0.70002   0.14528   0.89766   0.00000  Uiso   1.00
C252   C     0.60671   0.17506   0.87221   0.00000  Uiso   1.00
C253   C     0.57336   0.20469   0.94312   0.00000  Uiso   1.00
H254   H     0.90266   0.10957   0.07510   0.00000  Uiso   1.00
H255   H     0.13399   0.12027   0.00372   0.00000  Uiso   1.00
H256   H     0.82053   0.03384   0.11405   0.00000  Uiso   1.00
H257   H     0.76962   0.17455   0.13356   0.00000  Uiso   1.00
H258   H     0.36490   0.13219   0.88357   0.00000  Uiso   1.00
H259   H     0.70393   0.94995   0.11622   0.00000  Uiso   1.00
H260   H     0.59657   0.24666   0.15738   0.00000  Uiso   1.00
H261   H     0.70572   0.11018   0.75912   0.00000  Uiso   1.00
H262   H     0.92625   0.12091   0.67039   0.00000  Uiso   1.00
H263   H     0.61279   0.03448   0.78073   0.00000  Uiso   1.00
H264   H     0.56189   0.17519   0.80024   0.00000  Uiso   1.00
H265   H     0.19629   0.13270   0.61303   0.00000  Uiso   1.00
H266   H     0.53532   0.95047   0.84569   0.00000  Uiso   1.00
H267   H     0.42796   0.24718   0.88684   0.00000  Uiso   1.00
O268   O     0.42922   0.13948   0.69563   0.00000  Uiso   1.00
O269   O     0.56204   0.90040   0.00087   0.00000  Uiso   1.00
O270   O     0.42119   0.28967   0.05486   0.00000  Uiso   1.00
N271   N     0.29495   0.13084   0.83207   0.00000  Uiso   1.00
N272   N     0.67700   0.96046   0.04958   0.00000  Uiso   1.00
N273   N     0.57660   0.23785   0.08807   0.00000  Uiso   1.00
N274   N     0.20423   0.13112   0.68650   0.00000  Uiso   1.00
N275   N     0.58628   0.96074   0.90401   0.00000  Uiso   1.00
N276   N     0.48588   0.23813   0.94250   0.00000  Uiso   1.00
C277   C     0.35755   0.89028   0.49729   0.00000  Uiso   1.00
C278   C     0.45592   0.88439   0.57989   0.00000  Uiso   1.00
C279   C     0.58917   0.87959   0.56826   0.00000  Uiso   1.00
C280   C     0.66252   0.87460   0.65300   0.00000  Uiso   1.00
C281   C     0.82409   0.86549   0.76711   0.00000  Uiso   1.00
C282   C     0.28562   0.93135   0.51995   0.00000  Uiso   1.00
C283   C     0.27568   0.96603   0.45791   0.00000  Uiso   1.00
C284   C     0.20566   0.00058   0.49219   0.00000  Uiso   1.00
C285   C     0.10276   0.06437   0.51322   0.00000  Uiso   1.00
C286   C     0.25798   0.85490   0.50935   0.00000  Uiso   1.00
C287   C     0.22475   0.82531   0.43838   0.00000  Uiso   1.00
C288   C     0.13142   0.79549   0.46373   0.00000  Uiso   1.00
C289   C     0.98560   0.74057   0.46830   0.00000  Uiso   1.00
C290   C     0.25085   0.88996   0.66848   0.00000  Uiso   1.00
C291   C     0.39796   0.88421   0.67288   0.00000  Uiso   1.00
C292   C     0.47112   0.87923   0.75766   0.00000  Uiso   1.00
C293   C     0.60446   0.87442   0.74615   0.00000  Uiso   1.00
C294   C     0.22767   0.93117   0.61293   0.00000  Uiso   1.00
C295   C     0.15764   0.96567   0.64731   0.00000  Uiso   1.00
C296   C     0.14760   0.00040   0.58534   0.00000  Uiso   1.00
C297   C     0.20002   0.85472   0.60234   0.00000  Uiso   1.00
C298   C     0.10671   0.82494   0.62779   0.00000  Uiso   1.00
C299   C     0.07336   0.79531   0.55688   0.00000  Uiso   1.00
H300   H     0.40266   0.89043   0.42490   0.00000  Uiso   1.00
H301   H     0.63399   0.87973   0.49628   0.00000  Uiso   1.00
H302   H     0.32053   0.96616   0.38595   0.00000  Uiso   1.00
H303   H     0.26962   0.82545   0.36644   0.00000  Uiso   1.00
H304   H     0.86490   0.86781   0.61643   0.00000  Uiso   1.00
H305   H     0.20393   0.05005   0.38378   0.00000  Uiso   1.00
H306   H     0.09657   0.75334   0.34262   0.00000  Uiso   1.00
H307   H     0.20572   0.88982   0.74088   0.00000  Uiso   1.00
H308   H     0.42625   0.87909   0.82961   0.00000  Uiso   1.00
H309   H     0.11279   0.96552   0.71927   0.00000  Uiso   1.00
H310   H     0.06189   0.82481   0.69976   0.00000  Uiso   1.00
H311   H     0.69629   0.86730   0.88697   0.00000  Uiso   1.00
H312   H     0.03532   0.04953   0.65431   0.00000  Uiso   1.00
H313   H     0.92796   0.75282   0.61316   0.00000  Uiso   1.00
O314   O     0.92922   0.86052   0.80437   0.00000  Uiso   1.00
O315   O     0.06204   0.09960   0.49913   0.00000  Uiso   1.00
O316   O     0.92119   0.71033   0.44514   0.00000  Uiso   1.00
N317   N     0.79495   0.86916   0.66793   0.00000  Uiso   1.00
N318   N     0.17700   0.03954   0.45042   0.00000  Uiso   1.00
N319   N     0.07660   0.76215   0.41193   0.00000  Uiso   1.00
N320   N     0.70423   0.86888   0.81350   0.00000  Uiso   1.00
N321   N     0.08628   0.03926   0.59599   0.00000  Uiso   1.00
N322   N     0.98588   0.76187   0.55750   0.00000  Uiso   1.00
C323   C     0.14245   0.60972   0.49729   0.00000  Uiso   1.00
C324   C     0.04408   0.61561   0.57989   0.00000  Uiso   1.00
C325   C     0.91083   0.62041   0.56826   0.00000  Uiso   1.00
C326   C     0.83748   0.62540   0.65300   0.00000  Uiso   1.00
C327   C     0.67591   0.63451   0.76711   0.00000  Uiso   1.00
C328   C     0.21438   0.56865   0.51995   0.00000  Uiso   1.00
C329   C     0.22432   0.53397   0.45791   0.00000  Uiso   1.00
C330   C     0.29434   0.49942   0.49219   0.00000  Uiso   1.00
C331   C     0.39724   0.43563   0.51322   0.00000  Uiso   1.00
C332   C     0.24202   0.64510   0.50935   0.00000  Uiso   1.00
C333   C     0.27525   0.67469   0.43838   0.00000  Uiso   1.00
C334   C     0.36858   0.70451   0.46373   0.00000  Uiso   1.00
C335   C     0.51440   0.75943   0.46830   0.00000  Uiso   1.00
C336   C     0.24915   0.61004   0.66848   0.00000  Uiso   1.00
C337   C     0.10204   0.61579   0.67288   0.00000  Uiso   1.00
C338   C     0.02888   0.62077   0.75766   0.00000  Uiso   1.00
C339   C     0.89554   0.62558   0.74615   0.00000  Uiso   1.00
C340   C     0.27233   0.56883   0.61293   0.00000  Uiso   1.00
C341   C     0.34236   0.53433   0.64731   0.00000  Uiso   1.00
C342   C     0.35240   0.49960   0.58534   0.00000  Uiso   1.00
C343   C     0.29998   0.64528   0.60234   0.00000  Uiso   1.00
C344   C     0.39329   0.67506   0.62779   0.00000  Uiso   1.00
C345   C     0.42664   0.70469   0.55688   0.00000  Uiso   1.00
H346   H     0.09734   0.60957   0.42490   0.00000  Uiso   1.00
H347   H     0.86601   0.62027   0.49628   0.00000  Uiso   1.00
H348   H     0.17947   0.53384   0.38595   0.00000  Uiso   1.00
H349   H     0.23038   0.67455   0.36644   0.00000  Uiso   1.00
H350   H     0.63510   0.63219   0.61643   0.00000  Uiso   1.00
H351   H     0.29607   0.44995   0.38378   0.00000  Uiso   1.00
H352   H     0.40343   0.74666   0.34262   0.00000  Uiso   1.00
H353   H     0.29428   0.61018   0.74088   0.00000  Uiso   1.00
H354   H     0.07375   0.62091   0.82961   0.00000  Uiso   1.00
H355   H     0.38721   0.53448   0.71927   0.00000  Uiso   1.00
H356   H     0.43811   0.67519   0.69976   0.00000  Uiso   1.00
H357   H     0.80371   0.63270   0.88697   0.00000  Uiso   1.00
H358   H     0.46468   0.45047   0.65431   0.00000  Uiso   1.00
H359   H     0.57204   0.74718   0.61316   0.00000  Uiso   1.00
O360   O     0.57078   0.63948   0.80437   0.00000  Uiso   1.00
O361   O     0.43796   0.40040   0.49913   0.00000  Uiso   1.00
O362   O     0.57881   0.78967   0.44514   0.00000  Uiso   1.00
N363   N     0.70505   0.63084   0.66793   0.00000  Uiso   1.00
N364   N     0.32300   0.46046   0.45042   0.00000  Uiso   1.00
N365   N     0.42340   0.73785   0.41193   0.00000  Uiso   1.00
N366   N     0.79577   0.63112   0.81350   0.00000  Uiso   1.00
N367   N     0.41372   0.46074   0.59599   0.00000  Uiso   1.00
N368   N     0.51412   0.73813   0.55750   0.00000  Uiso   1.00
