data_job_06055
_audit_creation_date              2018-12-19
_audit_creation_method            'Materials Studio'
_symmetry_space_group_name_H-M    'P1'
_symmetry_Int_Tables_number       1
_symmetry_cell_setting            triclinic
loop_
_symmetry_equiv_pos_as_xyz
  x,y,z
_cell_length_a                    12.2293
_cell_length_b                    20.4226
_cell_length_c                    20.6802
_cell_angle_alpha                 116.0260
_cell_angle_beta                  78.5536
_cell_angle_gamma                 80.0976
loop_
_atom_site_label
_atom_site_type_symbol
_atom_site_fract_x
_atom_site_fract_y
_atom_site_fract_z
_atom_site_U_iso_or_equiv
_atom_site_adp_type
_atom_site_occupancy
C1     C     0.58209   0.51776   0.73783   0.00000  Uiso   1.00
C2     C     0.62224   0.43204   0.68372   0.00000  Uiso   1.00
C3     C     0.60007   0.37690   0.70211   0.00000  Uiso   1.00
C4     C     0.64437   0.30155   0.64460   0.00000  Uiso   1.00
C5     C     0.69700   0.17139   0.57174   0.00000  Uiso   1.00
C6     C     0.69229   0.54321   0.73556   0.00000  Uiso   1.00
C7     C     0.72900   0.58156   0.79754   0.00000  Uiso   1.00
C8     C     0.83226   0.59980   0.78365   0.00000  Uiso   1.00
C9     C     0.99359   0.64228   0.79128   0.00000  Uiso   1.00
C10    C     0.51270   0.55353   0.70178   0.00000  Uiso   1.00
C11    C     0.39841   0.60058   0.73536   0.00000  Uiso   1.00
C12    C     0.35048   0.62753   0.69304   0.00000  Uiso   1.00
C13    C     0.23297   0.68604   0.64822   0.00000  Uiso   1.00
C14    C     0.70019   0.48199   0.60297   0.00000  Uiso   1.00
C15    C     0.68639   0.41261   0.61048   0.00000  Uiso   1.00
C16    C     0.73073   0.33732   0.55291   0.00000  Uiso   1.00
C17    C     0.70863   0.28208   0.57121   0.00000  Uiso   1.00
C18    C     0.75643   0.52378   0.66231   0.00000  Uiso   1.00
C19    C     0.85966   0.54197   0.64833   0.00000  Uiso   1.00
C20    C     0.89652   0.58033   0.71027   0.00000  Uiso   1.00
C21    C     0.57684   0.53410   0.62853   0.00000  Uiso   1.00
C22    C     0.52907   0.56099   0.58616   0.00000  Uiso   1.00
C23    C     0.41474   0.60806   0.61966   0.00000  Uiso   1.00
H24    H     0.53216   0.53289   0.79485   0.00000  Uiso   1.00
H25    H     0.55043   0.39196   0.75881   0.00000  Uiso   1.00
H26    H     0.67933   0.59659   0.85421   0.00000  Uiso   1.00
H27    H     0.34880   0.61560   0.79205   0.00000  Uiso   1.00
H28    H     0.59902   0.22714   0.68655   0.00000  Uiso   1.00
H29    H     0.87079   0.65863   0.88772   0.00000  Uiso   1.00
H30    H     0.17380   0.69873   0.75663   0.00000  Uiso   1.00
H31    H     0.75013   0.46686   0.54594   0.00000  Uiso   1.00
H32    H     0.78037   0.32230   0.49623   0.00000  Uiso   1.00
H33    H     0.90927   0.52693   0.59164   0.00000  Uiso   1.00
H34    H     0.57874   0.54594   0.52947   0.00000  Uiso   1.00
H35    H     0.78565   0.17060   0.47344   0.00000  Uiso   1.00
H36    H     0.05742   0.60210   0.67461   0.00000  Uiso   1.00
H37    H     0.36043   0.64219   0.54351   0.00000  Uiso   1.00
O38    O     0.70832   0.10496   0.55180   0.00000  Uiso   1.00
O39    O     0.06486   0.67108   0.81572   0.00000  Uiso   1.00
O40    O     0.15043   0.72367   0.64373   0.00000  Uiso   1.00
N41    N     0.63877   0.23367   0.64321   0.00000  Uiso   1.00
N42    N     0.89288   0.63708   0.83129   0.00000  Uiso   1.00
N43    N     0.24126   0.67458   0.70874   0.00000  Uiso   1.00
N44    N     0.73919   0.20325   0.52854   0.00000  Uiso   1.00
N45    N     0.99330   0.60666   0.71662   0.00000  Uiso   1.00
N46    N     0.34168   0.64416   0.59407   0.00000  Uiso   1.00
C47    C     0.31888   0.26274   0.78104   0.00000  Uiso   1.00
C48    C     0.30593   0.31790   0.74987   0.00000  Uiso   1.00
C49    C     0.30228   0.29942   0.67741   0.00000  Uiso   1.00
C50    C     0.29004   0.35801   0.65985   0.00000  Uiso   1.00
C51    C     0.27126   0.43233   0.60338   0.00000  Uiso   1.00
C52    C     0.42590   0.26755   0.80818   0.00000  Uiso   1.00
C53    C     0.52312   0.20674   0.78475   0.00000  Uiso   1.00
C54    C     0.61187   0.22294   0.81628   0.00000  Uiso   1.00
C55    C     0.77931   0.21909   0.85038   0.00000  Uiso   1.00
C56    C     0.21437   0.29661   0.85197   0.00000  Uiso   1.00
C57    C     0.13373   0.26021   0.86538   0.00000  Uiso   1.00
C58    C     0.04440   0.30088   0.93378   0.00000  Uiso   1.00
C59    C     0.88340   0.34213   0.03587   0.00000  Uiso   1.00
C60    C     0.30364   0.39966   0.87869   0.00000  Uiso   1.00
C61    C     0.29766   0.39227   0.80291   0.00000  Uiso   1.00
C62    C     0.28542   0.45090   0.78545   0.00000  Uiso   1.00
C63    C     0.28175   0.43251   0.71298   0.00000  Uiso   1.00
C64    C     0.41763   0.34192   0.86122   0.00000  Uiso   1.00
C65    C     0.50626   0.35822   0.89279   0.00000  Uiso   1.00
C66    C     0.60358   0.29745   0.86941   0.00000  Uiso   1.00
C67    C     0.20609   0.37097   0.90501   0.00000  Uiso   1.00
C68    C     0.11687   0.41170   0.97341   0.00000  Uiso   1.00
C69    C     0.03611   0.37538   0.98691   0.00000  Uiso   1.00
H70    H     0.32533   0.20485   0.73975   0.00000  Uiso   1.00
H71    H     0.30870   0.24186   0.63638   0.00000  Uiso   1.00
H72    H     0.52949   0.14919   0.74371   0.00000  Uiso   1.00
H73    H     0.14017   0.20266   0.82432   0.00000  Uiso   1.00
H74    H     0.28665   0.31568   0.54517   0.00000  Uiso   1.00
H75    H     0.75219   0.12029   0.77150   0.00000  Uiso   1.00
H76    H     0.93123   0.23304   0.94147   0.00000  Uiso   1.00
H77    H     0.29720   0.45756   0.91998   0.00000  Uiso   1.00
H78    H     0.27902   0.50844   0.82651   0.00000  Uiso   1.00
H79    H     0.49982   0.41577   0.93384   0.00000  Uiso   1.00
H80    H     0.11049   0.46925   0.01444   0.00000  Uiso   1.00
H81    H     0.26257   0.53205   0.69948   0.00000  Uiso   1.00
H82    H     0.72811   0.33666   0.92581   0.00000  Uiso   1.00
H83    H     0.90714   0.44941   0.09579   0.00000  Uiso   1.00
O84    O     0.26320   0.45278   0.55757   0.00000  Uiso   1.00
O85    O     0.87396   0.19642   0.85452   0.00000  Uiso   1.00
O86    O     0.79687   0.34435   0.07752   0.00000  Uiso   1.00
N87    N     0.28345   0.35963   0.59432   0.00000  Uiso   1.00
N88    N     0.71872   0.17694   0.80591   0.00000  Uiso   1.00
N89    N     0.95120   0.28235   0.96483   0.00000  Uiso   1.00
N90    N     0.27049   0.47605   0.67735   0.00000  Uiso   1.00
N91    N     0.70575   0.29337   0.88895   0.00000  Uiso   1.00
N92    N     0.93824   0.39878   0.04787   0.00000  Uiso   1.00
C93    C     0.10076   0.22052   0.48160   0.00000  Uiso   1.00
C94    C     0.05699   0.25082   0.56674   0.00000  Uiso   1.00
C95    C     0.98219   0.32273   0.62004   0.00000  Uiso   1.00
C96    C     0.95249   0.33953   0.69515   0.00000  Uiso   1.00
C97    C     0.87794   0.39468   0.82416   0.00000  Uiso   1.00
C98    C     0.23367   0.19619   0.45938   0.00000  Uiso   1.00
C99    C     0.30742   0.22216   0.42241   0.00000  Uiso   1.00
C100   C     0.42644   0.19297   0.40714   0.00000  Uiso   1.00
C101   C     0.62619   0.16326   0.36943   0.00000  Uiso   1.00
C102   C     0.06663   0.14738   0.44513   0.00000  Uiso   1.00
C103   C     0.99995   0.13231   0.39616   0.00000  Uiso   1.00
C104   C     0.97836   0.06201   0.36887   0.00000  Uiso   1.00
C105   C     0.91875   0.95653   0.30903   0.00000  Uiso   1.00
C106   C     0.18102   0.12248   0.52020   0.00000  Uiso   1.00
C107   C     0.10059   0.19756   0.58770   0.00000  Uiso   1.00
C108   C     0.07099   0.21425   0.66275   0.00000  Uiso   1.00
C109   C     0.99615   0.28618   0.71615   0.00000  Uiso   1.00
C110   C     0.27727   0.14293   0.48035   0.00000  Uiso   1.00
C111   C     0.39621   0.11369   0.46512   0.00000  Uiso   1.00
C112   C     0.47011   0.13961   0.42814   0.00000  Uiso   1.00
C113   C     0.11022   0.09412   0.46610   0.00000  Uiso   1.00
C114   C     0.08874   0.02383   0.43887   0.00000  Uiso   1.00
C115   C     0.02203   0.00866   0.38987   0.00000  Uiso   1.00
H116   H     0.06683   0.26198   0.46528   0.00000  Uiso   1.00
H117   H     0.94849   0.36393   0.60380   0.00000  Uiso   1.00
H118   H     0.27366   0.26337   0.40619   0.00000  Uiso   1.00
H119   H     0.96623   0.17353   0.37995   0.00000  Uiso   1.00
H120   H     0.83654   0.45348   0.76662   0.00000  Uiso   1.00
H121   H     0.52218   0.24143   0.34994   0.00000  Uiso   1.00
H122   H     0.87392   0.05198   0.29459   0.00000  Uiso   1.00
H123   H     0.21496   0.08101   0.53652   0.00000  Uiso   1.00
H124   H     0.10474   0.17303   0.67895   0.00000  Uiso   1.00
H125   H     0.42991   0.07247   0.48135   0.00000  Uiso   1.00
H126   H     0.12249   0.98263   0.45510   0.00000  Uiso   1.00
H127   H     0.96336   0.29854   0.82762   0.00000  Uiso   1.00
H128   H     0.64900   0.08648   0.41093   0.00000  Uiso   1.00
H129   H     0.00074   0.89704   0.35559   0.00000  Uiso   1.00
O130   O     0.82480   0.43982   0.88953   0.00000  Uiso   1.00
O131   O     0.72433   0.16160   0.34285   0.00000  Uiso   1.00
O132   O     0.87382   0.91306   0.27024   0.00000  Uiso   1.00
N133   N     0.88149   0.40438   0.76143   0.00000  Uiso   1.00
N134   N     0.52253   0.20613   0.37186   0.00000  Uiso   1.00
N135   N     0.91648   0.02901   0.32010   0.00000  Uiso   1.00
N136   N     0.94973   0.32101   0.79425   0.00000  Uiso   1.00
N137   N     0.59077   0.12276   0.40469   0.00000  Uiso   1.00
N138   N     0.98472   0.94564   0.35293   0.00000  Uiso   1.00
C139   C     0.41791   0.48224   0.26217   0.00000  Uiso   1.00
C140   C     0.37776   0.56797   0.31628   0.00000  Uiso   1.00
C141   C     0.39993   0.62310   0.29789   0.00000  Uiso   1.00
C142   C     0.35563   0.69845   0.35540   0.00000  Uiso   1.00
C143   C     0.30300   0.82861   0.42826   0.00000  Uiso   1.00
C144   C     0.30771   0.45679   0.26444   0.00000  Uiso   1.00
C145   C     0.27100   0.41845   0.20246   0.00000  Uiso   1.00
C146   C     0.16774   0.40020   0.21635   0.00000  Uiso   1.00
C147   C     0.00641   0.35772   0.20872   0.00000  Uiso   1.00
C148   C     0.48730   0.44647   0.29822   0.00000  Uiso   1.00
C149   C     0.60159   0.39942   0.26464   0.00000  Uiso   1.00
C150   C     0.64952   0.37247   0.30696   0.00000  Uiso   1.00
C151   C     0.76703   0.31396   0.35178   0.00000  Uiso   1.00
C152   C     0.29981   0.51801   0.39703   0.00000  Uiso   1.00
C153   C     0.31361   0.58739   0.38952   0.00000  Uiso   1.00
C154   C     0.26927   0.66268   0.44709   0.00000  Uiso   1.00
C155   C     0.29137   0.71792   0.42879   0.00000  Uiso   1.00
C156   C     0.24357   0.47622   0.33769   0.00000  Uiso   1.00
C157   C     0.14034   0.45803   0.35167   0.00000  Uiso   1.00
C158   C     0.10348   0.41967   0.28973   0.00000  Uiso   1.00
C159   C     0.42316   0.46590   0.37147   0.00000  Uiso   1.00
C160   C     0.47093   0.43901   0.41384   0.00000  Uiso   1.00
C161   C     0.58526   0.39194   0.38034   0.00000  Uiso   1.00
H162   H     0.46784   0.46711   0.20515   0.00000  Uiso   1.00
H163   H     0.44957   0.60804   0.24119   0.00000  Uiso   1.00
H164   H     0.32066   0.40341   0.14579   0.00000  Uiso   1.00
H165   H     0.65120   0.38440   0.20795   0.00000  Uiso   1.00
H166   H     0.40098   0.77286   0.31345   0.00000  Uiso   1.00
H167   H     0.12921   0.34137   0.11228   0.00000  Uiso   1.00
H168   H     0.82620   0.30128   0.24337   0.00000  Uiso   1.00
H169   H     0.24987   0.53314   0.45406   0.00000  Uiso   1.00
H170   H     0.21963   0.67770   0.50377   0.00000  Uiso   1.00
H171   H     0.09073   0.47307   0.40836   0.00000  Uiso   1.00
H172   H     0.42126   0.45406   0.47053   0.00000  Uiso   1.00
H173   H     0.21435   0.82940   0.52656   0.00000  Uiso   1.00
H174   H     0.94258   0.39790   0.32539   0.00000  Uiso   1.00
H175   H     0.63957   0.35781   0.45649   0.00000  Uiso   1.00
O176   O     0.29168   0.89504   0.44820   0.00000  Uiso   1.00
O177   O     0.93514   0.32892   0.18428   0.00000  Uiso   1.00
O178   O     0.84957   0.27633   0.35627   0.00000  Uiso   1.00
N179   N     0.36123   0.76633   0.35679   0.00000  Uiso   1.00
N180   N     0.10712   0.36292   0.16871   0.00000  Uiso   1.00
N181   N     0.75874   0.32542   0.29126   0.00000  Uiso   1.00
N182   N     0.26081   0.79675   0.47146   0.00000  Uiso   1.00
N183   N     0.00670   0.39334   0.28338   0.00000  Uiso   1.00
N184   N     0.65832   0.35584   0.40593   0.00000  Uiso   1.00
C185   C     0.68112   0.73726   0.21896   0.00000  Uiso   1.00
C186   C     0.69407   0.68210   0.25013   0.00000  Uiso   1.00
C187   C     0.69772   0.70058   0.32259   0.00000  Uiso   1.00
C188   C     0.70996   0.64199   0.34015   0.00000  Uiso   1.00
C189   C     0.72874   0.56767   0.39662   0.00000  Uiso   1.00
C190   C     0.57410   0.73245   0.19182   0.00000  Uiso   1.00
C191   C     0.47688   0.79326   0.21525   0.00000  Uiso   1.00
C192   C     0.38813   0.77706   0.18372   0.00000  Uiso   1.00
C193   C     0.22069   0.78091   0.14962   0.00000  Uiso   1.00
C194   C     0.78563   0.70340   0.14803   0.00000  Uiso   1.00
C195   C     0.86627   0.73979   0.13462   0.00000  Uiso   1.00
C196   C     0.95560   0.69912   0.06622   0.00000  Uiso   1.00
C197   C     0.11660   0.65787   0.96413   0.00000  Uiso   1.00
C198   C     0.69636   0.60034   0.12131   0.00000  Uiso   1.00
C199   C     0.70234   0.60773   0.19709   0.00000  Uiso   1.00
C200   C     0.71458   0.54910   0.21455   0.00000  Uiso   1.00
C201   C     0.71825   0.56749   0.28702   0.00000  Uiso   1.00
C202   C     0.58237   0.65808   0.13878   0.00000  Uiso   1.00
C203   C     0.49374   0.64178   0.10721   0.00000  Uiso   1.00
C204   C     0.39642   0.70255   0.13059   0.00000  Uiso   1.00
C205   C     0.79391   0.62903   0.09499   0.00000  Uiso   1.00
C206   C     0.88313   0.58830   0.02659   0.00000  Uiso   1.00
C207   C     0.96389   0.62462   0.01309   0.00000  Uiso   1.00
H208   H     0.67467   0.79516   0.26025   0.00000  Uiso   1.00
H209   H     0.69130   0.75814   0.36362   0.00000  Uiso   1.00
H210   H     0.47051   0.85081   0.25629   0.00000  Uiso   1.00
H211   H     0.85983   0.79734   0.17568   0.00000  Uiso   1.00
H212   H     0.71335   0.68432   0.45483   0.00000  Uiso   1.00
H213   H     0.24781   0.87971   0.22850   0.00000  Uiso   1.00
H214   H     0.06877   0.76696   0.05853   0.00000  Uiso   1.00
H215   H     0.70280   0.54244   0.08002   0.00000  Uiso   1.00
H216   H     0.72098   0.49156   0.17349   0.00000  Uiso   1.00
H217   H     0.50018   0.58423   0.06616   0.00000  Uiso   1.00
H218   H     0.88951   0.53075   0.98556   0.00000  Uiso   1.00
H219   H     0.73743   0.46795   0.30052   0.00000  Uiso   1.00
H220   H     0.27189   0.66334   0.07419   0.00000  Uiso   1.00
H221   H     0.09286   0.55059   0.90421   0.00000  Uiso   1.00
O222   O     0.73680   0.54722   0.44243   0.00000  Uiso   1.00
O223   O     0.12604   0.80358   0.14548   0.00000  Uiso   1.00
O224   O     0.20313   0.65565   0.92248   0.00000  Uiso   1.00
N225   N     0.71655   0.64037   0.40568   0.00000  Uiso   1.00
N226   N     0.28128   0.82306   0.19409   0.00000  Uiso   1.00
N227   N     0.04880   0.71765   0.03517   0.00000  Uiso   1.00
N228   N     0.72951   0.52395   0.32265   0.00000  Uiso   1.00
N229   N     0.29425   0.70663   0.11105   0.00000  Uiso   1.00
N230   N     0.06176   0.60122   0.95213   0.00000  Uiso   1.00
C231   C     0.89924   0.77948   0.51840   0.00000  Uiso   1.00
C232   C     0.94301   0.74918   0.43326   0.00000  Uiso   1.00
C233   C     0.01781   0.67727   0.37996   0.00000  Uiso   1.00
C234   C     0.04751   0.66047   0.30485   0.00000  Uiso   1.00
C235   C     0.12206   0.60532   0.17584   0.00000  Uiso   1.00
C236   C     0.76633   0.80381   0.54062   0.00000  Uiso   1.00
C237   C     0.69258   0.77784   0.57759   0.00000  Uiso   1.00
C238   C     0.57356   0.80703   0.59286   0.00000  Uiso   1.00
C239   C     0.37381   0.83674   0.63057   0.00000  Uiso   1.00
C240   C     0.93337   0.85262   0.55487   0.00000  Uiso   1.00
C241   C     0.00005   0.86769   0.60384   0.00000  Uiso   1.00
C242   C     0.02164   0.93799   0.63113   0.00000  Uiso   1.00
C243   C     0.08125   0.04347   0.69097   0.00000  Uiso   1.00
C244   C     0.81898   0.87753   0.47980   0.00000  Uiso   1.00
C245   C     0.89941   0.80244   0.41230   0.00000  Uiso   1.00
C246   C     0.92901   0.78575   0.33725   0.00000  Uiso   1.00
C247   C     0.00385   0.71382   0.28385   0.00000  Uiso   1.00
C248   C     0.72273   0.85707   0.51965   0.00000  Uiso   1.00
C249   C     0.60379   0.88631   0.53488   0.00000  Uiso   1.00
C250   C     0.52989   0.86039   0.57186   0.00000  Uiso   1.00
C251   C     0.88978   0.90588   0.53390   0.00000  Uiso   1.00
C252   C     0.91126   0.97617   0.56113   0.00000  Uiso   1.00
C253   C     0.97797   0.99134   0.61013   0.00000  Uiso   1.00
H254   H     0.93317   0.73802   0.53472   0.00000  Uiso   1.00
H255   H     0.05151   0.63607   0.39620   0.00000  Uiso   1.00
H256   H     0.72634   0.73663   0.59381   0.00000  Uiso   1.00
H257   H     0.03377   0.82647   0.62005   0.00000  Uiso   1.00
H258   H     0.16346   0.54652   0.23338   0.00000  Uiso   1.00
H259   H     0.47782   0.75857   0.65006   0.00000  Uiso   1.00
H260   H     0.12608   0.94802   0.70541   0.00000  Uiso   1.00
H261   H     0.78504   0.91899   0.46348   0.00000  Uiso   1.00
H262   H     0.89526   0.82697   0.32105   0.00000  Uiso   1.00
H263   H     0.57009   0.92753   0.51865   0.00000  Uiso   1.00
H264   H     0.87751   0.01737   0.54490   0.00000  Uiso   1.00
H265   H     0.03664   0.70146   0.17238   0.00000  Uiso   1.00
H266   H     0.35100   0.91352   0.58907   0.00000  Uiso   1.00
H267   H     0.99926   0.10296   0.64441   0.00000  Uiso   1.00
O268   O     0.17520   0.56018   0.11047   0.00000  Uiso   1.00
O269   O     0.27567   0.83840   0.65715   0.00000  Uiso   1.00
O270   O     0.12618   0.08694   0.72976   0.00000  Uiso   1.00
N271   N     0.11851   0.59562   0.23857   0.00000  Uiso   1.00
N272   N     0.47747   0.79387   0.62814   0.00000  Uiso   1.00
N273   N     0.08352   0.97099   0.67990   0.00000  Uiso   1.00
N274   N     0.05027   0.67899   0.20575   0.00000  Uiso   1.00
N275   N     0.40923   0.87724   0.59531   0.00000  Uiso   1.00
N276   N     0.01528   0.05436   0.64707   0.00000  Uiso   1.00
