data_job_00386
_audit_creation_date              2018-12-19
_audit_creation_method            'Materials Studio'
_symmetry_space_group_name_H-M    'P1'
_symmetry_Int_Tables_number       1
_symmetry_cell_setting            triclinic
loop_
_symmetry_equiv_pos_as_xyz
  x,y,z
_cell_length_a                    19.2299
_cell_length_b                    12.6963
_cell_length_c                    26.7117
_cell_angle_alpha                 90.0000
_cell_angle_beta                  142.2311
_cell_angle_gamma                 90.0000
loop_
_atom_site_label
_atom_site_type_symbol
_atom_site_fract_x
_atom_site_fract_y
_atom_site_fract_z
_atom_site_U_iso_or_equiv
_atom_site_adp_type
_atom_site_occupancy
C1     C     0.81175   0.28999   0.27633   0.00000  Uiso   1.00
C2     C     0.86802   0.24017   0.35399   0.00000  Uiso   1.00
C3     C     0.82586   0.24197   0.37851   0.00000  Uiso   1.00
C4     C     0.89003   0.19186   0.45154   0.00000  Uiso   1.00
C5     C     0.96183   0.12218   0.56504   0.00000  Uiso   1.00
C6     C     0.89935   0.36508   0.30397   0.00000  Uiso   1.00
C7     C     0.88351   0.47190   0.28642   0.00000  Uiso   1.00
C8     C     0.97404   0.52694   0.31734   0.00000  Uiso   1.00
C9     C     0.09444   0.65116   0.35313   0.00000  Uiso   1.00
C10    C     0.79734   0.20153   0.23004   0.00000  Uiso   1.00
C11    C     0.69574   0.17085   0.15031   0.00000  Uiso   1.00
C12    C     0.70039   0.08821   0.11898   0.00000  Uiso   1.00
C13    C     0.66242   0.95850   0.03998   0.00000  Uiso   1.00
C14    C     0.00066   0.19779   0.36244   0.00000  Uiso   1.00
C15    C     0.97064   0.19010   0.40077   0.00000  Uiso   1.00
C16    C     0.03488   0.13997   0.47378   0.00000  Uiso   1.00
C17    C     0.99282   0.14169   0.49840   0.00000  Uiso   1.00
C18    C     0.00196   0.31501   0.35074   0.00000  Uiso   1.00
C19    C     0.09253   0.36990   0.38169   0.00000  Uiso   1.00
C20    C     0.07684   0.47677   0.36420   0.00000  Uiso   1.00
C21    C     0.89995   0.15145   0.27681   0.00000  Uiso   1.00
C22    C     0.90476   0.06885   0.24559   0.00000  Uiso   1.00
C23    C     0.80319   0.03804   0.16584   0.00000  Uiso   1.00
H24    H     0.73186   0.32898   0.23991   0.00000  Uiso   1.00
H25    H     0.74645   0.28075   0.34230   0.00000  Uiso   1.00
H26    H     0.80409   0.51063   0.25022   0.00000  Uiso   1.00
H27    H     0.61635   0.20963   0.11414   0.00000  Uiso   1.00
H28    H     0.80791   0.20522   0.47645   0.00000  Uiso   1.00
H29    H     0.92942   0.68994   0.28227   0.00000  Uiso   1.00
H30    H     0.53354   0.05521   0.99531   0.00000  Uiso   1.00
H31    H     0.08056   0.15880   0.39886   0.00000  Uiso   1.00
H32    H     0.11428   0.10122   0.50997   0.00000  Uiso   1.00
H33    H     0.17192   0.33112   0.41788   0.00000  Uiso   1.00
H34    H     0.98418   0.03011   0.28181   0.00000  Uiso   1.00
H35    H     0.10645   0.05951   0.61254   0.00000  Uiso   1.00
H36    H     0.22797   0.54424   0.41835   0.00000  Uiso   1.00
H37    H     0.83209   0.90951   0.13140   0.00000  Uiso   1.00
O38    O     0.97309   0.09759   0.61473   0.00000  Uiso   1.00
O39    O     0.13251   0.73352   0.35996   0.00000  Uiso   1.00
O40    O     0.61312   0.90077   0.98349   0.00000  Uiso   1.00
N41    N     0.87353   0.17881   0.49322   0.00000  Uiso   1.00
N42    N     0.98715   0.63200   0.31168   0.00000  Uiso   1.00
N43    N     0.61703   0.03860   0.04340   0.00000  Uiso   1.00
N44    N     0.03417   0.10041   0.56645   0.00000  Uiso   1.00
N45    N     0.14779   0.55360   0.38491   0.00000  Uiso   1.00
N46    N     0.77768   0.96020   0.11663   0.00000  Uiso   1.00
C47    C     0.31175   0.78999   0.27633   0.00000  Uiso   1.00
C48    C     0.36802   0.74017   0.35399   0.00000  Uiso   1.00
C49    C     0.32586   0.74197   0.37851   0.00000  Uiso   1.00
C50    C     0.39003   0.69186   0.45154   0.00000  Uiso   1.00
C51    C     0.46183   0.62218   0.56504   0.00000  Uiso   1.00
C52    C     0.39935   0.86508   0.30397   0.00000  Uiso   1.00
C53    C     0.38351   0.97190   0.28642   0.00000  Uiso   1.00
C54    C     0.47404   0.02694   0.31734   0.00000  Uiso   1.00
C55    C     0.59444   0.15116   0.35313   0.00000  Uiso   1.00
C56    C     0.29734   0.70153   0.23004   0.00000  Uiso   1.00
C57    C     0.19574   0.67085   0.15031   0.00000  Uiso   1.00
C58    C     0.20039   0.58821   0.11898   0.00000  Uiso   1.00
C59    C     0.16242   0.45850   0.03998   0.00000  Uiso   1.00
C60    C     0.50066   0.69779   0.36244   0.00000  Uiso   1.00
C61    C     0.47064   0.69010   0.40077   0.00000  Uiso   1.00
C62    C     0.53488   0.63997   0.47378   0.00000  Uiso   1.00
C63    C     0.49282   0.64169   0.49840   0.00000  Uiso   1.00
C64    C     0.50196   0.81501   0.35074   0.00000  Uiso   1.00
C65    C     0.59253   0.86990   0.38169   0.00000  Uiso   1.00
C66    C     0.57684   0.97677   0.36420   0.00000  Uiso   1.00
C67    C     0.39995   0.65145   0.27681   0.00000  Uiso   1.00
C68    C     0.40476   0.56885   0.24559   0.00000  Uiso   1.00
C69    C     0.30319   0.53804   0.16584   0.00000  Uiso   1.00
H70    H     0.23186   0.82898   0.23991   0.00000  Uiso   1.00
H71    H     0.24645   0.78075   0.34230   0.00000  Uiso   1.00
H72    H     0.30409   0.01063   0.25022   0.00000  Uiso   1.00
H73    H     0.11635   0.70963   0.11414   0.00000  Uiso   1.00
H74    H     0.30791   0.70522   0.47645   0.00000  Uiso   1.00
H75    H     0.42942   0.18994   0.28227   0.00000  Uiso   1.00
H76    H     0.03354   0.55521   0.99531   0.00000  Uiso   1.00
H77    H     0.58056   0.65880   0.39886   0.00000  Uiso   1.00
H78    H     0.61428   0.60122   0.50997   0.00000  Uiso   1.00
H79    H     0.67192   0.83112   0.41788   0.00000  Uiso   1.00
H80    H     0.48418   0.53011   0.28181   0.00000  Uiso   1.00
H81    H     0.60645   0.55951   0.61254   0.00000  Uiso   1.00
H82    H     0.72797   0.04424   0.41835   0.00000  Uiso   1.00
H83    H     0.33209   0.40951   0.13140   0.00000  Uiso   1.00
O84    O     0.47309   0.59759   0.61473   0.00000  Uiso   1.00
O85    O     0.63251   0.23352   0.35996   0.00000  Uiso   1.00
O86    O     0.11312   0.40077   0.98349   0.00000  Uiso   1.00
N87    N     0.37353   0.67881   0.49322   0.00000  Uiso   1.00
N88    N     0.48715   0.13200   0.31168   0.00000  Uiso   1.00
N89    N     0.11703   0.53860   0.04340   0.00000  Uiso   1.00
N90    N     0.53417   0.60041   0.56645   0.00000  Uiso   1.00
N91    N     0.64779   0.05360   0.38491   0.00000  Uiso   1.00
N92    N     0.27768   0.46020   0.11663   0.00000  Uiso   1.00
C93    C     0.18825   0.28999   0.22367   0.00000  Uiso   1.00
C94    C     0.13198   0.24017   0.14601   0.00000  Uiso   1.00
C95    C     0.17414   0.24197   0.12149   0.00000  Uiso   1.00
C96    C     0.10997   0.19186   0.04846   0.00000  Uiso   1.00
C97    C     0.03817   0.12218   0.93496   0.00000  Uiso   1.00
C98    C     0.10065   0.36508   0.19603   0.00000  Uiso   1.00
C99    C     0.11649   0.47190   0.21358   0.00000  Uiso   1.00
C100   C     0.02596   0.52694   0.18266   0.00000  Uiso   1.00
C101   C     0.90556   0.65116   0.14687   0.00000  Uiso   1.00
C102   C     0.20266   0.20153   0.26996   0.00000  Uiso   1.00
C103   C     0.30426   0.17085   0.34969   0.00000  Uiso   1.00
C104   C     0.29961   0.08821   0.38102   0.00000  Uiso   1.00
C105   C     0.33758   0.95850   0.46002   0.00000  Uiso   1.00
C106   C     0.99934   0.19779   0.13756   0.00000  Uiso   1.00
C107   C     0.02936   0.19010   0.09923   0.00000  Uiso   1.00
C108   C     0.96512   0.13997   0.02622   0.00000  Uiso   1.00
C109   C     0.00718   0.14169   0.00160   0.00000  Uiso   1.00
C110   C     0.99804   0.31501   0.14926   0.00000  Uiso   1.00
C111   C     0.90747   0.36990   0.11831   0.00000  Uiso   1.00
C112   C     0.92316   0.47677   0.13580   0.00000  Uiso   1.00
C113   C     0.10005   0.15145   0.22319   0.00000  Uiso   1.00
C114   C     0.09524   0.06885   0.25441   0.00000  Uiso   1.00
C115   C     0.19681   0.03804   0.33416   0.00000  Uiso   1.00
H116   H     0.26814   0.32898   0.26009   0.00000  Uiso   1.00
H117   H     0.25355   0.28075   0.15770   0.00000  Uiso   1.00
H118   H     0.19591   0.51063   0.24978   0.00000  Uiso   1.00
H119   H     0.38365   0.20963   0.38586   0.00000  Uiso   1.00
H120   H     0.19209   0.20522   0.02355   0.00000  Uiso   1.00
H121   H     0.07058   0.68994   0.21773   0.00000  Uiso   1.00
H122   H     0.46646   0.05521   0.50469   0.00000  Uiso   1.00
H123   H     0.91944   0.15880   0.10114   0.00000  Uiso   1.00
H124   H     0.88572   0.10122   0.99003   0.00000  Uiso   1.00
H125   H     0.82808   0.33112   0.08212   0.00000  Uiso   1.00
H126   H     0.01582   0.03011   0.21819   0.00000  Uiso   1.00
H127   H     0.89355   0.05951   0.88746   0.00000  Uiso   1.00
H128   H     0.77203   0.54424   0.08165   0.00000  Uiso   1.00
H129   H     0.16791   0.90951   0.36860   0.00000  Uiso   1.00
O130   O     0.02691   0.09759   0.88527   0.00000  Uiso   1.00
O131   O     0.86749   0.73352   0.14004   0.00000  Uiso   1.00
O132   O     0.38688   0.90077   0.51651   0.00000  Uiso   1.00
N133   N     0.12647   0.17881   0.00678   0.00000  Uiso   1.00
N134   N     0.01285   0.63200   0.18832   0.00000  Uiso   1.00
N135   N     0.38297   0.03860   0.45660   0.00000  Uiso   1.00
N136   N     0.96583   0.10041   0.93355   0.00000  Uiso   1.00
N137   N     0.85221   0.55360   0.11509   0.00000  Uiso   1.00
N138   N     0.22232   0.96020   0.38337   0.00000  Uiso   1.00
C139   C     0.68825   0.78999   0.22367   0.00000  Uiso   1.00
C140   C     0.63198   0.74017   0.14601   0.00000  Uiso   1.00
C141   C     0.67414   0.74197   0.12149   0.00000  Uiso   1.00
C142   C     0.60997   0.69186   0.04846   0.00000  Uiso   1.00
C143   C     0.53817   0.62218   0.93496   0.00000  Uiso   1.00
C144   C     0.60065   0.86508   0.19603   0.00000  Uiso   1.00
C145   C     0.61649   0.97190   0.21358   0.00000  Uiso   1.00
C146   C     0.52596   0.02694   0.18266   0.00000  Uiso   1.00
C147   C     0.40556   0.15116   0.14687   0.00000  Uiso   1.00
C148   C     0.70266   0.70153   0.26996   0.00000  Uiso   1.00
C149   C     0.80426   0.67085   0.34969   0.00000  Uiso   1.00
C150   C     0.79961   0.58821   0.38102   0.00000  Uiso   1.00
C151   C     0.83758   0.45850   0.46002   0.00000  Uiso   1.00
C152   C     0.49934   0.69779   0.13756   0.00000  Uiso   1.00
C153   C     0.52936   0.69010   0.09923   0.00000  Uiso   1.00
C154   C     0.46512   0.63997   0.02622   0.00000  Uiso   1.00
C155   C     0.50718   0.64169   0.00160   0.00000  Uiso   1.00
C156   C     0.49804   0.81501   0.14926   0.00000  Uiso   1.00
C157   C     0.40747   0.86990   0.11831   0.00000  Uiso   1.00
C158   C     0.42316   0.97677   0.13580   0.00000  Uiso   1.00
C159   C     0.60005   0.65145   0.22319   0.00000  Uiso   1.00
C160   C     0.59524   0.56885   0.25441   0.00000  Uiso   1.00
C161   C     0.69681   0.53804   0.33416   0.00000  Uiso   1.00
H162   H     0.76814   0.82898   0.26009   0.00000  Uiso   1.00
H163   H     0.75355   0.78075   0.15770   0.00000  Uiso   1.00
H164   H     0.69591   0.01063   0.24978   0.00000  Uiso   1.00
H165   H     0.88365   0.70963   0.38586   0.00000  Uiso   1.00
H166   H     0.69209   0.70522   0.02355   0.00000  Uiso   1.00
H167   H     0.57058   0.18994   0.21773   0.00000  Uiso   1.00
H168   H     0.96646   0.55521   0.50469   0.00000  Uiso   1.00
H169   H     0.41944   0.65880   0.10114   0.00000  Uiso   1.00
H170   H     0.38572   0.60122   0.99003   0.00000  Uiso   1.00
H171   H     0.32808   0.83112   0.08212   0.00000  Uiso   1.00
H172   H     0.51582   0.53011   0.21819   0.00000  Uiso   1.00
H173   H     0.39355   0.55951   0.88746   0.00000  Uiso   1.00
H174   H     0.27203   0.04424   0.08165   0.00000  Uiso   1.00
H175   H     0.66791   0.40951   0.36860   0.00000  Uiso   1.00
O176   O     0.52691   0.59759   0.88527   0.00000  Uiso   1.00
O177   O     0.36749   0.23352   0.14004   0.00000  Uiso   1.00
O178   O     0.88688   0.40077   0.51651   0.00000  Uiso   1.00
N179   N     0.62647   0.67881   0.00678   0.00000  Uiso   1.00
N180   N     0.51285   0.13200   0.18832   0.00000  Uiso   1.00
N181   N     0.88297   0.53860   0.45660   0.00000  Uiso   1.00
N182   N     0.46583   0.60041   0.93355   0.00000  Uiso   1.00
N183   N     0.35221   0.05360   0.11509   0.00000  Uiso   1.00
N184   N     0.72232   0.46020   0.38337   0.00000  Uiso   1.00
C185   C     0.18825   0.71001   0.72367   0.00000  Uiso   1.00
C186   C     0.13198   0.75983   0.64601   0.00000  Uiso   1.00
C187   C     0.17414   0.75803   0.62149   0.00000  Uiso   1.00
C188   C     0.10997   0.80814   0.54846   0.00000  Uiso   1.00
C189   C     0.03817   0.87782   0.43496   0.00000  Uiso   1.00
C190   C     0.10065   0.63492   0.69603   0.00000  Uiso   1.00
C191   C     0.11649   0.52810   0.71358   0.00000  Uiso   1.00
C192   C     0.02596   0.47306   0.68266   0.00000  Uiso   1.00
C193   C     0.90556   0.34884   0.64687   0.00000  Uiso   1.00
C194   C     0.20266   0.79847   0.76996   0.00000  Uiso   1.00
C195   C     0.30426   0.82915   0.84969   0.00000  Uiso   1.00
C196   C     0.29961   0.91179   0.88102   0.00000  Uiso   1.00
C197   C     0.33758   0.04150   0.96002   0.00000  Uiso   1.00
C198   C     0.99934   0.80221   0.63756   0.00000  Uiso   1.00
C199   C     0.02936   0.80990   0.59923   0.00000  Uiso   1.00
C200   C     0.96512   0.86003   0.52622   0.00000  Uiso   1.00
C201   C     0.00718   0.85831   0.50160   0.00000  Uiso   1.00
C202   C     0.99804   0.68499   0.64926   0.00000  Uiso   1.00
C203   C     0.90747   0.63010   0.61831   0.00000  Uiso   1.00
C204   C     0.92316   0.52323   0.63580   0.00000  Uiso   1.00
C205   C     0.10005   0.84855   0.72319   0.00000  Uiso   1.00
C206   C     0.09524   0.93115   0.75441   0.00000  Uiso   1.00
C207   C     0.19681   0.96196   0.83416   0.00000  Uiso   1.00
H208   H     0.26814   0.67102   0.76009   0.00000  Uiso   1.00
H209   H     0.25355   0.71925   0.65770   0.00000  Uiso   1.00
H210   H     0.19591   0.48937   0.74978   0.00000  Uiso   1.00
H211   H     0.38365   0.79037   0.88586   0.00000  Uiso   1.00
H212   H     0.19209   0.79478   0.52355   0.00000  Uiso   1.00
H213   H     0.07058   0.31006   0.71773   0.00000  Uiso   1.00
H214   H     0.46646   0.94479   0.00469   0.00000  Uiso   1.00
H215   H     0.91944   0.84120   0.60114   0.00000  Uiso   1.00
H216   H     0.88572   0.89878   0.49003   0.00000  Uiso   1.00
H217   H     0.82808   0.66888   0.58212   0.00000  Uiso   1.00
H218   H     0.01582   0.96989   0.71819   0.00000  Uiso   1.00
H219   H     0.89355   0.94049   0.38746   0.00000  Uiso   1.00
H220   H     0.77203   0.45576   0.58165   0.00000  Uiso   1.00
H221   H     0.16791   0.09049   0.86860   0.00000  Uiso   1.00
O222   O     0.02691   0.90241   0.38527   0.00000  Uiso   1.00
O223   O     0.86749   0.26648   0.64004   0.00000  Uiso   1.00
O224   O     0.38688   0.09923   0.01651   0.00000  Uiso   1.00
N225   N     0.12647   0.82119   0.50678   0.00000  Uiso   1.00
N226   N     0.01285   0.36800   0.68832   0.00000  Uiso   1.00
N227   N     0.38297   0.96140   0.95660   0.00000  Uiso   1.00
N228   N     0.96583   0.89959   0.43355   0.00000  Uiso   1.00
N229   N     0.85221   0.44640   0.61509   0.00000  Uiso   1.00
N230   N     0.22232   0.03980   0.88337   0.00000  Uiso   1.00
C231   C     0.68825   0.21001   0.72367   0.00000  Uiso   1.00
C232   C     0.63198   0.25983   0.64601   0.00000  Uiso   1.00
C233   C     0.67414   0.25803   0.62149   0.00000  Uiso   1.00
C234   C     0.60997   0.30814   0.54846   0.00000  Uiso   1.00
C235   C     0.53817   0.37782   0.43496   0.00000  Uiso   1.00
C236   C     0.60065   0.13492   0.69603   0.00000  Uiso   1.00
C237   C     0.61649   0.02810   0.71358   0.00000  Uiso   1.00
C238   C     0.52596   0.97306   0.68266   0.00000  Uiso   1.00
C239   C     0.40556   0.84884   0.64687   0.00000  Uiso   1.00
C240   C     0.70266   0.29847   0.76996   0.00000  Uiso   1.00
C241   C     0.80426   0.32915   0.84969   0.00000  Uiso   1.00
C242   C     0.79961   0.41179   0.88102   0.00000  Uiso   1.00
C243   C     0.83758   0.54150   0.96002   0.00000  Uiso   1.00
C244   C     0.49934   0.30221   0.63756   0.00000  Uiso   1.00
C245   C     0.52936   0.30990   0.59923   0.00000  Uiso   1.00
C246   C     0.46512   0.36003   0.52622   0.00000  Uiso   1.00
C247   C     0.50718   0.35831   0.50160   0.00000  Uiso   1.00
C248   C     0.49804   0.18499   0.64926   0.00000  Uiso   1.00
C249   C     0.40747   0.13010   0.61831   0.00000  Uiso   1.00
C250   C     0.42316   0.02323   0.63580   0.00000  Uiso   1.00
C251   C     0.60005   0.34855   0.72319   0.00000  Uiso   1.00
C252   C     0.59524   0.43115   0.75441   0.00000  Uiso   1.00
C253   C     0.69681   0.46196   0.83416   0.00000  Uiso   1.00
H254   H     0.76814   0.17102   0.76009   0.00000  Uiso   1.00
H255   H     0.75355   0.21925   0.65770   0.00000  Uiso   1.00
H256   H     0.69591   0.98937   0.74978   0.00000  Uiso   1.00
H257   H     0.88365   0.29037   0.88586   0.00000  Uiso   1.00
H258   H     0.69209   0.29478   0.52355   0.00000  Uiso   1.00
H259   H     0.57058   0.81006   0.71773   0.00000  Uiso   1.00
H260   H     0.96646   0.44479   0.00469   0.00000  Uiso   1.00
H261   H     0.41944   0.34120   0.60114   0.00000  Uiso   1.00
H262   H     0.38572   0.39878   0.49003   0.00000  Uiso   1.00
H263   H     0.32808   0.16888   0.58212   0.00000  Uiso   1.00
H264   H     0.51582   0.46989   0.71819   0.00000  Uiso   1.00
H265   H     0.39355   0.44049   0.38746   0.00000  Uiso   1.00
H266   H     0.27203   0.95576   0.58165   0.00000  Uiso   1.00
H267   H     0.66791   0.59049   0.86860   0.00000  Uiso   1.00
O268   O     0.52691   0.40241   0.38527   0.00000  Uiso   1.00
O269   O     0.36749   0.76648   0.64004   0.00000  Uiso   1.00
O270   O     0.88688   0.59923   0.01651   0.00000  Uiso   1.00
N271   N     0.62647   0.32119   0.50678   0.00000  Uiso   1.00
N272   N     0.51285   0.86800   0.68832   0.00000  Uiso   1.00
N273   N     0.88297   0.46140   0.95660   0.00000  Uiso   1.00
N274   N     0.46583   0.39959   0.43355   0.00000  Uiso   1.00
N275   N     0.35221   0.94640   0.61509   0.00000  Uiso   1.00
N276   N     0.72232   0.53980   0.88337   0.00000  Uiso   1.00
C277   C     0.81175   0.71001   0.77633   0.00000  Uiso   1.00
C278   C     0.86802   0.75983   0.85399   0.00000  Uiso   1.00
C279   C     0.82586   0.75803   0.87851   0.00000  Uiso   1.00
C280   C     0.89003   0.80814   0.95154   0.00000  Uiso   1.00
C281   C     0.96183   0.87782   0.06504   0.00000  Uiso   1.00
C282   C     0.89935   0.63492   0.80397   0.00000  Uiso   1.00
C283   C     0.88351   0.52810   0.78642   0.00000  Uiso   1.00
C284   C     0.97404   0.47306   0.81734   0.00000  Uiso   1.00
C285   C     0.09444   0.34884   0.85313   0.00000  Uiso   1.00
C286   C     0.79734   0.79847   0.73004   0.00000  Uiso   1.00
C287   C     0.69574   0.82915   0.65031   0.00000  Uiso   1.00
C288   C     0.70039   0.91179   0.61898   0.00000  Uiso   1.00
C289   C     0.66242   0.04150   0.53998   0.00000  Uiso   1.00
C290   C     0.00066   0.80221   0.86244   0.00000  Uiso   1.00
C291   C     0.97064   0.80990   0.90077   0.00000  Uiso   1.00
C292   C     0.03488   0.86003   0.97378   0.00000  Uiso   1.00
C293   C     0.99282   0.85831   0.99840   0.00000  Uiso   1.00
C294   C     0.00196   0.68499   0.85074   0.00000  Uiso   1.00
C295   C     0.09253   0.63010   0.88169   0.00000  Uiso   1.00
C296   C     0.07684   0.52323   0.86420   0.00000  Uiso   1.00
C297   C     0.89995   0.84855   0.77681   0.00000  Uiso   1.00
C298   C     0.90476   0.93115   0.74559   0.00000  Uiso   1.00
C299   C     0.80319   0.96196   0.66584   0.00000  Uiso   1.00
H300   H     0.73186   0.67102   0.73991   0.00000  Uiso   1.00
H301   H     0.74645   0.71925   0.84230   0.00000  Uiso   1.00
H302   H     0.80409   0.48937   0.75022   0.00000  Uiso   1.00
H303   H     0.61635   0.79037   0.61414   0.00000  Uiso   1.00
H304   H     0.80791   0.79478   0.97645   0.00000  Uiso   1.00
H305   H     0.92942   0.31006   0.78227   0.00000  Uiso   1.00
H306   H     0.53354   0.94479   0.49531   0.00000  Uiso   1.00
H307   H     0.08056   0.84120   0.89886   0.00000  Uiso   1.00
H308   H     0.11428   0.89878   0.00997   0.00000  Uiso   1.00
H309   H     0.17192   0.66888   0.91788   0.00000  Uiso   1.00
H310   H     0.98418   0.96989   0.78181   0.00000  Uiso   1.00
H311   H     0.10645   0.94049   0.11254   0.00000  Uiso   1.00
H312   H     0.22797   0.45576   0.91835   0.00000  Uiso   1.00
H313   H     0.83209   0.09049   0.63140   0.00000  Uiso   1.00
O314   O     0.97309   0.90241   0.11473   0.00000  Uiso   1.00
O315   O     0.13251   0.26648   0.85996   0.00000  Uiso   1.00
O316   O     0.61312   0.09923   0.48349   0.00000  Uiso   1.00
N317   N     0.87353   0.82119   0.99322   0.00000  Uiso   1.00
N318   N     0.98715   0.36800   0.81168   0.00000  Uiso   1.00
N319   N     0.61703   0.96140   0.54340   0.00000  Uiso   1.00
N320   N     0.03417   0.89959   0.06645   0.00000  Uiso   1.00
N321   N     0.14779   0.44640   0.88491   0.00000  Uiso   1.00
N322   N     0.77768   0.03980   0.61663   0.00000  Uiso   1.00
C323   C     0.31175   0.21001   0.77633   0.00000  Uiso   1.00
C324   C     0.36802   0.25983   0.85399   0.00000  Uiso   1.00
C325   C     0.32586   0.25803   0.87851   0.00000  Uiso   1.00
C326   C     0.39003   0.30814   0.95154   0.00000  Uiso   1.00
C327   C     0.46183   0.37782   0.06504   0.00000  Uiso   1.00
C328   C     0.39935   0.13492   0.80397   0.00000  Uiso   1.00
C329   C     0.38351   0.02810   0.78642   0.00000  Uiso   1.00
C330   C     0.47404   0.97306   0.81734   0.00000  Uiso   1.00
C331   C     0.59444   0.84884   0.85313   0.00000  Uiso   1.00
C332   C     0.29734   0.29847   0.73004   0.00000  Uiso   1.00
C333   C     0.19574   0.32915   0.65031   0.00000  Uiso   1.00
C334   C     0.20039   0.41179   0.61898   0.00000  Uiso   1.00
C335   C     0.16242   0.54150   0.53998   0.00000  Uiso   1.00
C336   C     0.50066   0.30221   0.86244   0.00000  Uiso   1.00
C337   C     0.47064   0.30990   0.90077   0.00000  Uiso   1.00
C338   C     0.53488   0.36003   0.97378   0.00000  Uiso   1.00
C339   C     0.49282   0.35831   0.99840   0.00000  Uiso   1.00
C340   C     0.50196   0.18499   0.85074   0.00000  Uiso   1.00
C341   C     0.59253   0.13010   0.88169   0.00000  Uiso   1.00
C342   C     0.57684   0.02323   0.86420   0.00000  Uiso   1.00
C343   C     0.39995   0.34855   0.77681   0.00000  Uiso   1.00
C344   C     0.40476   0.43115   0.74559   0.00000  Uiso   1.00
C345   C     0.30319   0.46196   0.66584   0.00000  Uiso   1.00
H346   H     0.23186   0.17102   0.73991   0.00000  Uiso   1.00
H347   H     0.24645   0.21925   0.84230   0.00000  Uiso   1.00
H348   H     0.30409   0.98937   0.75022   0.00000  Uiso   1.00
H349   H     0.11635   0.29037   0.61414   0.00000  Uiso   1.00
H350   H     0.30791   0.29478   0.97645   0.00000  Uiso   1.00
H351   H     0.42942   0.81006   0.78227   0.00000  Uiso   1.00
H352   H     0.03354   0.44479   0.49531   0.00000  Uiso   1.00
H353   H     0.58056   0.34120   0.89886   0.00000  Uiso   1.00
H354   H     0.61428   0.39878   0.00997   0.00000  Uiso   1.00
H355   H     0.67192   0.16888   0.91788   0.00000  Uiso   1.00
H356   H     0.48418   0.46989   0.78181   0.00000  Uiso   1.00
H357   H     0.60645   0.44049   0.11254   0.00000  Uiso   1.00
H358   H     0.72797   0.95576   0.91835   0.00000  Uiso   1.00
H359   H     0.33209   0.59049   0.63140   0.00000  Uiso   1.00
O360   O     0.47309   0.40241   0.11473   0.00000  Uiso   1.00
O361   O     0.63251   0.76648   0.85996   0.00000  Uiso   1.00
O362   O     0.11312   0.59923   0.48349   0.00000  Uiso   1.00
N363   N     0.37353   0.32119   0.99322   0.00000  Uiso   1.00
N364   N     0.48715   0.86800   0.81168   0.00000  Uiso   1.00
N365   N     0.11703   0.46140   0.54340   0.00000  Uiso   1.00
N366   N     0.53417   0.39959   0.06645   0.00000  Uiso   1.00
N367   N     0.64779   0.94640   0.88491   0.00000  Uiso   1.00
N368   N     0.27768   0.53980   0.61663   0.00000  Uiso   1.00
