data_job_07009
_audit_creation_date              2018-12-19
_audit_creation_method            'Materials Studio'
_symmetry_space_group_name_H-M    'P1'
_symmetry_Int_Tables_number       1
_symmetry_cell_setting            triclinic
loop_
_symmetry_equiv_pos_as_xyz
  x,y,z
_cell_length_a                    21.6006
_cell_length_b                    21.8730
_cell_length_c                    18.9787
_cell_angle_alpha                 73.5091
_cell_angle_beta                  91.0209
_cell_angle_gamma                 87.4572
loop_
_atom_site_label
_atom_site_type_symbol
_atom_site_fract_x
_atom_site_fract_y
_atom_site_fract_z
_atom_site_U_iso_or_equiv
_atom_site_adp_type
_atom_site_occupancy
C1     C     0.35503   0.07091   0.97835   0.00000  Uiso   1.00
C2     C     0.39621   0.11609   0.92536   0.00000  Uiso   1.00
C3     C     0.46039   0.11572   0.93082   0.00000  Uiso   1.00
C4     C     0.48952   0.16096   0.87684   0.00000  Uiso   1.00
C5     C     0.55863   0.22445   0.80330   0.00000  Uiso   1.00
C6     C     0.30901   0.11327   0.00569   0.00000  Uiso   1.00
C7     C     0.29987   0.11052   0.07870   0.00000  Uiso   1.00
C8     C     0.25559   0.15338   0.09234   0.00000  Uiso   1.00
C9     C     0.18928   0.21245   0.14352   0.00000  Uiso   1.00
C10    C     0.31710   0.03888   0.93164   0.00000  Uiso   1.00
C11    C     0.31475   0.97357   0.94240   0.00000  Uiso   1.00
C12    C     0.27727   0.95380   0.89371   0.00000  Uiso   1.00
C13    C     0.22352   0.89737   0.82992   0.00000  Uiso   1.00
C14    C     0.29265   0.15192   0.87275   0.00000  Uiso   1.00
C15    C     0.36233   0.16010   0.86800   0.00000  Uiso   1.00
C16    C     0.39137   0.20535   0.81399   0.00000  Uiso   1.00
C17    C     0.45558   0.20504   0.81938   0.00000  Uiso   1.00
C18    C     0.27513   0.15727   0.94834   0.00000  Uiso   1.00
C19    C     0.23085   0.20014   0.96187   0.00000  Uiso   1.00
C20    C     0.22164   0.19746   0.03488   0.00000  Uiso   1.00
C21    C     0.28322   0.08288   0.87428   0.00000  Uiso   1.00
C22    C     0.24573   0.06320   0.82557   0.00000  Uiso   1.00
C23    C     0.24332   0.99788   0.83625   0.00000  Uiso   1.00
H24    H     0.38140   0.03665   0.02300   0.00000  Uiso   1.00
H25    H     0.48659   0.08166   0.97522   0.00000  Uiso   1.00
H26    H     0.32609   0.07646   0.12307   0.00000  Uiso   1.00
H27    H     0.34097   0.93953   0.98679   0.00000  Uiso   1.00
H28    H     0.58827   0.15099   0.89697   0.00000  Uiso   1.00
H29    H     0.24983   0.13999   0.20872   0.00000  Uiso   1.00
H30    H     0.28121   0.85126   0.92135   0.00000  Uiso   1.00
H31    H     0.26626   0.18618   0.82810   0.00000  Uiso   1.00
H32    H     0.36514   0.23940   0.76962   0.00000  Uiso   1.00
H33    H     0.20464   0.23419   0.91747   0.00000  Uiso   1.00
H34    H     0.21952   0.09727   0.78119   0.00000  Uiso   1.00
H35    H     0.48970   0.27901   0.73009   0.00000  Uiso   1.00
H36    H     0.15125   0.26801   0.04185   0.00000  Uiso   1.00
H37    H     0.18263   0.97929   0.75447   0.00000  Uiso   1.00
O38    O     0.60610   0.24732   0.77859   0.00000  Uiso   1.00
O39    O     0.16207   0.23288   0.18760   0.00000  Uiso   1.00
O40    O     0.20325   0.85408   0.81057   0.00000  Uiso   1.00
N41    N     0.55151   0.17381   0.86571   0.00000  Uiso   1.00
N42    N     0.23509   0.16353   0.15719   0.00000  Uiso   1.00
N43    N     0.26441   0.89360   0.88852   0.00000  Uiso   1.00
N44    N     0.49846   0.24269   0.77592   0.00000  Uiso   1.00
N45    N     0.18204   0.23242   0.06739   0.00000  Uiso   1.00
N46    N     0.21137   0.96248   0.79873   0.00000  Uiso   1.00
C47    C     0.88915   0.24344   0.08076   0.00000  Uiso   1.00
C48    C     0.92690   0.28395   0.11735   0.00000  Uiso   1.00
C49    C     0.99089   0.28733   0.11671   0.00000  Uiso   1.00
C50    C     0.01663   0.32718   0.15341   0.00000  Uiso   1.00
C51    C     0.08087   0.38471   0.20476   0.00000  Uiso   1.00
C52    C     0.85176   0.20121   0.14140   0.00000  Uiso   1.00
C53    C     0.85258   0.13503   0.16098   0.00000  Uiso   1.00
C54    C     0.81506   0.10523   0.21792   0.00000  Uiso   1.00
C55    C     0.76262   0.03431   0.30658   0.00000  Uiso   1.00
C56    C     0.84211   0.28952   0.02899   0.00000  Uiso   1.00
C57    C     0.83480   0.29758   0.95405   0.00000  Uiso   1.00
C58    C     0.78914   0.34213   0.91635   0.00000  Uiso   1.00
C59    C     0.72172   0.40833   0.83047   0.00000  Uiso   1.00
C60    C     0.82104   0.30820   0.14707   0.00000  Uiso   1.00
C61    C     0.88990   0.31912   0.15336   0.00000  Uiso   1.00
C62    C     0.91554   0.35898   0.19007   0.00000  Uiso   1.00
C63    C     0.97957   0.36242   0.18948   0.00000  Uiso   1.00
C64    C     0.81477   0.23638   0.17742   0.00000  Uiso   1.00
C65    C     0.77723   0.20668   0.23434   0.00000  Uiso   1.00
C66    C     0.77800   0.14047   0.25400   0.00000  Uiso   1.00
C67    C     0.80512   0.32470   0.06500   0.00000  Uiso   1.00
C68    C     0.75945   0.36924   0.02741   0.00000  Uiso   1.00
C69    C     0.75208   0.37737   0.95243   0.00000  Uiso   1.00
H70    H     0.91794   0.21605   0.05273   0.00000  Uiso   1.00
H71    H     0.01951   0.26009   0.08883   0.00000  Uiso   1.00
H72    H     0.88121   0.10782   0.13309   0.00000  Uiso   1.00
H73    H     0.86344   0.27035   0.92619   0.00000  Uiso   1.00
H74    H     0.11580   0.32442   0.14477   0.00000  Uiso   1.00
H75    H     0.82418   0.00334   0.23807   0.00000  Uiso   1.00
H76    H     0.78670   0.34608   0.80179   0.00000  Uiso   1.00
H77    H     0.79224   0.33558   0.17511   0.00000  Uiso   1.00
H78    H     0.88690   0.38619   0.21794   0.00000  Uiso   1.00
H79    H     0.74861   0.23391   0.26219   0.00000  Uiso   1.00
H80    H     0.73083   0.39645   0.05530   0.00000  Uiso   1.00
H81    H     0.00817   0.42677   0.24956   0.00000  Uiso   1.00
H82    H     0.71655   0.10569   0.34286   0.00000  Uiso   1.00
H83    H     0.67907   0.44842   0.90658   0.00000  Uiso   1.00
O84    O     0.12653   0.40671   0.22315   0.00000  Uiso   1.00
O85    O     0.74393   0.98547   0.34554   0.00000  Uiso   1.00
O86    O     0.69476   0.43513   0.77316   0.00000  Uiso   1.00
N87    N     0.07748   0.34157   0.16355   0.00000  Uiso   1.00
N88    N     0.80483   0.04138   0.25078   0.00000  Uiso   1.00
N89    N     0.76978   0.36180   0.84290   0.00000  Uiso   1.00
N90    N     0.01956   0.39664   0.21993   0.00000  Uiso   1.00
N91    N     0.74692   0.09645   0.30717   0.00000  Uiso   1.00
N92    N     0.71187   0.41687   0.89928   0.00000  Uiso   1.00
C93    C     0.99173   0.05239   0.48894   0.00000  Uiso   1.00
C94    C     0.00343   0.05003   0.56917   0.00000  Uiso   1.00
C95    C     0.98371   0.09642   0.60189   0.00000  Uiso   1.00
C96    C     0.99912   0.08537   0.67594   0.00000  Uiso   1.00
C97    C     0.01216   0.09015   0.79445   0.00000  Uiso   1.00
C98    C     0.05538   0.04547   0.45774   0.00000  Uiso   1.00
C99    C     0.07933   0.08804   0.39677   0.00000  Uiso   1.00
C100   C     0.13847   0.07315   0.37702   0.00000  Uiso   1.00
C101   C     0.23214   0.07084   0.32250   0.00000  Uiso   1.00
C102   C     0.95916   0.99168   0.49016   0.00000  Uiso   1.00
C103   C     0.90221   0.98901   0.45643   0.00000  Uiso   1.00
C104   C     0.88033   0.92881   0.46396   0.00000  Uiso   1.00
C105   C     0.82461   0.84298   0.45978   0.00000  Uiso   1.00
C106   C     0.05416   0.95024   0.56227   0.00000  Uiso   1.00
C107   C     0.03734   0.99454   0.60900   0.00000  Uiso   1.00
C108   C     0.05278   0.98341   0.68302   0.00000  Uiso   1.00
C109   C     0.03308   0.02979   0.71585   0.00000  Uiso   1.00
C110   C     0.08929   0.99000   0.49757   0.00000  Uiso   1.00
C111   C     0.14840   0.97503   0.47790   0.00000  Uiso   1.00
C112   C     0.17244   0.01757   0.41692   0.00000  Uiso   1.00
C113   C     0.99306   0.93619   0.52999   0.00000  Uiso   1.00
C114   C     0.97128   0.87599   0.53757   0.00000  Uiso   1.00
C115   C     0.91430   0.87323   0.50386   0.00000  Uiso   1.00
H116   H     0.96533   0.09559   0.45793   0.00000  Uiso   1.00
H117   H     0.95748   0.13936   0.57105   0.00000  Uiso   1.00
H118   H     0.05308   0.13097   0.36595   0.00000  Uiso   1.00
H119   H     0.87598   0.03195   0.42561   0.00000  Uiso   1.00
H120   H     0.96374   0.16343   0.71401   0.00000  Uiso   1.00
H121   H     0.16531   0.14574   0.28155   0.00000  Uiso   1.00
H122   H     0.79187   0.93693   0.40735   0.00000  Uiso   1.00
H123   H     0.08056   0.90705   0.59328   0.00000  Uiso   1.00
H124   H     0.07902   0.94047   0.71383   0.00000  Uiso   1.00
H125   H     0.17463   0.93209   0.50873   0.00000  Uiso   1.00
H126   H     0.99753   0.83307   0.56839   0.00000  Uiso   1.00
H127   H     0.06239   0.00201   0.82990   0.00000  Uiso   1.00
H128   H     0.26397   0.98432   0.39743   0.00000  Uiso   1.00
H129   H     0.89052   0.77551   0.52324   0.00000  Uiso   1.00
O130   O     0.01000   0.10812   0.84881   0.00000  Uiso   1.00
O131   O     0.27445   0.08491   0.28142   0.00000  Uiso   1.00
O132   O     0.78450   0.81095   0.44647   0.00000  Uiso   1.00
N133   N     0.98716   0.12085   0.72475   0.00000  Uiso   1.00
N134   N     0.17562   0.10431   0.32043   0.00000  Uiso   1.00
N135   N     0.82649   0.90909   0.43802   0.00000  Uiso   1.00
N136   N     0.04024   0.03399   0.78711   0.00000  Uiso   1.00
N137   N     0.22871   0.01745   0.38279   0.00000  Uiso   1.00
N138   N     0.87957   0.82223   0.50038   0.00000  Uiso   1.00
C139   C     0.73350   0.51261   0.47858   0.00000  Uiso   1.00
C140   C     0.76464   0.57292   0.43676   0.00000  Uiso   1.00
C141   C     0.76191   0.59980   0.36110   0.00000  Uiso   1.00
C142   C     0.79354   0.65504   0.33349   0.00000  Uiso   1.00
C143   C     0.83683   0.74453   0.26151   0.00000  Uiso   1.00
C144   C     0.69261   0.53180   0.53426   0.00000  Uiso   1.00
C145   C     0.62932   0.52412   0.54058   0.00000  Uiso   1.00
C146   C     0.60032   0.54474   0.59506   0.00000  Uiso   1.00
C147   C     0.53179   0.57037   0.67447   0.00000  Uiso   1.00
C148   C     0.78505   0.46759   0.52331   0.00000  Uiso   1.00
C149   C     0.79948   0.40589   0.52044   0.00000  Uiso   1.00
C150   C     0.84830   0.37245   0.56571   0.00000  Uiso   1.00
C151   C     0.92330   0.29836   0.62812   0.00000  Uiso   1.00
C152   C     0.79452   0.56290   0.56410   0.00000  Uiso   1.00
C153   C     0.79778   0.60023   0.48322   0.00000  Uiso   1.00
C154   C     0.82943   0.65544   0.45572   0.00000  Uiso   1.00
C155   C     0.82675   0.68240   0.38003   0.00000  Uiso   1.00
C156   C     0.72575   0.55912   0.58072   0.00000  Uiso   1.00
C157   C     0.69683   0.57975   0.63520   0.00000  Uiso   1.00
C158   C     0.63352   0.57210   0.64159   0.00000  Uiso   1.00
C159   C     0.81820   0.49490   0.56977   0.00000  Uiso   1.00
C160   C     0.86700   0.46154   0.61506   0.00000  Uiso   1.00
C161   C     0.88150   0.39981   0.61225   0.00000  Uiso   1.00
H162   H     0.70769   0.49135   0.44241   0.00000  Uiso   1.00
H163   H     0.73626   0.57865   0.32517   0.00000  Uiso   1.00
H164   H     0.60369   0.50297   0.50463   0.00000  Uiso   1.00
H165   H     0.77383   0.38478   0.48448   0.00000  Uiso   1.00
H166   H     0.78252   0.68750   0.21567   0.00000  Uiso   1.00
H167   H     0.50300   0.52791   0.59408   0.00000  Uiso   1.00
H168   H     0.86177   0.27866   0.55161   0.00000  Uiso   1.00
H169   H     0.82032   0.58416   0.60027   0.00000  Uiso   1.00
H170   H     0.85507   0.67656   0.49169   0.00000  Uiso   1.00
H171   H     0.72250   0.60088   0.67114   0.00000  Uiso   1.00
H172   H     0.89263   0.48269   0.65100   0.00000  Uiso   1.00
H173   H     0.87895   0.76697   0.35082   0.00000  Uiso   1.00
H174   H     0.59943   0.60738   0.72923   0.00000  Uiso   1.00
H175   H     0.95820   0.35813   0.68676   0.00000  Uiso   1.00
O176   O     0.85155   0.78636   0.20897   0.00000  Uiso   1.00
O177   O     0.48483   0.57696   0.70544   0.00000  Uiso   1.00
O178   O     0.95552   0.24996   0.64971   0.00000  Uiso   1.00
N179   N     0.80046   0.69352   0.26238   0.00000  Uiso   1.00
N180   N     0.53912   0.54432   0.61616   0.00000  Uiso   1.00
N181   N     0.87453   0.31129   0.57647   0.00000  Uiso   1.00
N182   N     0.85235   0.73628   0.33510   0.00000  Uiso   1.00
N183   N     0.59101   0.58708   0.68889   0.00000  Uiso   1.00
N184   N     0.92641   0.35405   0.64919   0.00000  Uiso   1.00
C185   C     0.32866   0.55444   0.78953   0.00000  Uiso   1.00
C186   C     0.34948   0.60579   0.82352   0.00000  Uiso   1.00
C187   C     0.40910   0.61072   0.84911   0.00000  Uiso   1.00
C188   C     0.41874   0.66112   0.87827   0.00000  Uiso   1.00
C189   C     0.45842   0.73420   0.93049   0.00000  Uiso   1.00
C190   C     0.30030   0.58983   0.71401   0.00000  Uiso   1.00
C191   C     0.31857   0.58135   0.64753   0.00000  Uiso   1.00
C192   C     0.28680   0.61831   0.58451   0.00000  Uiso   1.00
C193   C     0.25010   0.66659   0.46673   0.00000  Uiso   1.00
C194   C     0.27527   0.52303   0.83536   0.00000  Uiso   1.00
C195   C     0.27248   0.45838   0.87089   0.00000  Uiso   1.00
C196   C     0.21963   0.43910   0.91002   0.00000  Uiso   1.00
C197   C     0.14406   0.38365   0.98065   0.00000  Uiso   1.00
C198   C     0.23975   0.63517   0.79581   0.00000  Uiso   1.00
C199   C     0.30119   0.64964   0.82693   0.00000  Uiso   1.00
C200   C     0.31073   0.70004   0.85606   0.00000  Uiso   1.00
C201   C     0.37036   0.70505   0.88169   0.00000  Uiso   1.00
C202   C     0.25201   0.63368   0.71742   0.00000  Uiso   1.00
C203   C     0.22020   0.67067   0.65448   0.00000  Uiso   1.00
C204   C     0.23842   0.66224   0.58793   0.00000  Uiso   1.00
C205   C     0.22698   0.56688   0.83877   0.00000  Uiso   1.00
C206   C     0.17411   0.54770   0.87785   0.00000  Uiso   1.00
C207   C     0.17125   0.48303   0.91344   0.00000  Uiso   1.00
H208   H     0.36626   0.52030   0.78687   0.00000  Uiso   1.00
H209   H     0.44646   0.57678   0.84645   0.00000  Uiso   1.00
H210   H     0.35594   0.54741   0.64491   0.00000  Uiso   1.00
H211   H     0.30986   0.42446   0.86824   0.00000  Uiso   1.00
H212   H     0.51409   0.65875   0.91399   0.00000  Uiso   1.00
H213   H     0.32321   0.59679   0.48903   0.00000  Uiso   1.00
H214   H     0.22604   0.33753   0.95996   0.00000  Uiso   1.00
H215   H     0.20215   0.66931   0.79847   0.00000  Uiso   1.00
H216   H     0.27335   0.73397   0.85869   0.00000  Uiso   1.00
H217   H     0.18283   0.70460   0.65715   0.00000  Uiso   1.00
H218   H     0.13675   0.58165   0.88047   0.00000  Uiso   1.00
H219   H     0.37359   0.78633   0.92392   0.00000  Uiso   1.00
H220   H     0.18271   0.72437   0.49896   0.00000  Uiso   1.00
H221   H     0.08554   0.46511   0.96989   0.00000  Uiso   1.00
O222   O     0.49365   0.76240   0.95834   0.00000  Uiso   1.00
O223   O     0.24321   0.68110   0.40082   0.00000  Uiso   1.00
O224   O     0.11573   0.34096   0.01867   0.00000  Uiso   1.00
N225   N     0.47125   0.67989   0.90808   0.00000  Uiso   1.00
N226   N     0.29279   0.62198   0.51076   0.00000  Uiso   1.00
N227   N     0.20194   0.37958   0.95103   0.00000  Uiso   1.00
N228   N     0.39565   0.74854   0.91342   0.00000  Uiso   1.00
N229   N     0.21719   0.69063   0.51611   0.00000  Uiso   1.00
N230   N     0.12634   0.44824   0.95637   0.00000  Uiso   1.00
C231   C     0.51378   0.61949   0.33298   0.00000  Uiso   1.00
C232   C     0.55396   0.65719   0.37078   0.00000  Uiso   1.00
C233   C     0.54692   0.66208   0.44155   0.00000  Uiso   1.00
C234   C     0.58840   0.69884   0.46608   0.00000  Uiso   1.00
C235   C     0.64369   0.75269   0.53159   0.00000  Uiso   1.00
C236   C     0.55811   0.57305   0.30977   0.00000  Uiso   1.00
C237   C     0.55456   0.50719   0.32923   0.00000  Uiso   1.00
C238   C     0.59954   0.47312   0.30238   0.00000  Uiso   1.00
C239   C     0.66124   0.39634   0.27312   0.00000  Uiso   1.00
C240   C     0.48834   0.66700   0.26199   0.00000  Uiso   1.00
C241   C     0.42612   0.68012   0.24127   0.00000  Uiso   1.00
C242   C     0.41235   0.72514   0.17418   0.00000  Uiso   1.00
C243   C     0.36572   0.79422   0.07074   0.00000  Uiso   1.00
C244   C     0.59996   0.67608   0.25068   0.00000  Uiso   1.00
C245   C     0.60077   0.68793   0.32608   0.00000  Uiso   1.00
C246   C     0.64227   0.72470   0.35050   0.00000  Uiso   1.00
C247   C     0.63530   0.72964   0.42130   0.00000  Uiso   1.00
C248   C     0.60492   0.60379   0.26507   0.00000  Uiso   1.00
C249   C     0.64991   0.56981   0.23818   0.00000  Uiso   1.00
C250   C     0.64643   0.50392   0.25760   0.00000  Uiso   1.00
C251   C     0.53514   0.69774   0.21729   0.00000  Uiso   1.00
C252   C     0.52147   0.74274   0.15022   0.00000  Uiso   1.00
C253   C     0.45924   0.75593   0.12940   0.00000  Uiso   1.00
H254   H     0.47734   0.59555   0.36778   0.00000  Uiso   1.00
H255   H     0.51070   0.63828   0.47613   0.00000  Uiso   1.00
H256   H     0.51833   0.48342   0.36381   0.00000  Uiso   1.00
H257   H     0.38991   0.65632   0.27587   0.00000  Uiso   1.00
H258   H     0.56833   0.69919   0.57656   0.00000  Uiso   1.00
H259   H     0.58442   0.37265   0.33971   0.00000  Uiso   1.00
H260   H     0.31361   0.73726   0.15427   0.00000  Uiso   1.00
H261   H     0.63640   0.70002   0.21588   0.00000  Uiso   1.00
H262   H     0.67849   0.74848   0.31590   0.00000  Uiso   1.00
H263   H     0.68612   0.59362   0.20358   0.00000  Uiso   1.00
H264   H     0.55770   0.76652   0.11564   0.00000  Uiso   1.00
H265   H     0.70452   0.78863   0.44651   0.00000  Uiso   1.00
H266   H     0.72060   0.46210   0.20966   0.00000  Uiso   1.00
H267   H     0.44980   0.82670   0.02422   0.00000  Uiso   1.00
O268   O     0.66126   0.77389   0.58008   0.00000  Uiso   1.00
O269   O     0.68235   0.34549   0.26934   0.00000  Uiso   1.00
O270   O     0.32706   0.82384   0.02604   0.00000  Uiso   1.00
N271   N     0.59460   0.71360   0.53222   0.00000  Uiso   1.00
N272   N     0.60965   0.40831   0.31079   0.00000  Uiso   1.00
N273   N     0.35647   0.74917   0.13741   0.00000  Uiso   1.00
N274   N     0.66788   0.76173   0.46224   0.00000  Uiso   1.00
N275   N     0.68293   0.45644   0.24081   0.00000  Uiso   1.00
N276   N     0.42975   0.79730   0.06743   0.00000  Uiso   1.00
C277   C     0.66665   0.04797   0.96075   0.00000  Uiso   1.00
C278   C     0.61908   0.00589   0.94033   0.00000  Uiso   1.00
C279   C     0.57787   0.02407   0.88025   0.00000  Uiso   1.00
C280   C     0.53805   0.97860   0.87111   0.00000  Uiso   1.00
C281   C     0.46400   0.92259   0.83190   0.00000  Uiso   1.00
C282   C     0.72938   0.01211   0.96477   0.00000  Uiso   1.00
C283   C     0.78091   0.03552   0.92523   0.00000  Uiso   1.00
C284   C     0.83395   0.99528   0.93666   0.00000  Uiso   1.00
C285   C     0.93116   0.94894   0.93543   0.00000  Uiso   1.00
C286   C     0.65327   0.04842   0.03922   0.00000  Uiso   1.00
C287   C     0.64081   0.10237   0.06230   0.00000  Uiso   1.00
C288   C     0.62978   0.09271   0.13642   0.00000  Uiso   1.00
C289   C     0.60881   0.10275   0.25079   0.00000  Uiso   1.00
C290   C     0.66924   0.93489   0.05134   0.00000  Uiso   1.00
C291   C     0.62049   0.94447   0.98954   0.00000  Uiso   1.00
C292   C     0.58073   0.89895   0.98049   0.00000  Uiso   1.00
C293   C     0.53946   0.91706   0.92040   0.00000  Uiso   1.00
C294   C     0.73079   0.95069   0.01397   0.00000  Uiso   1.00
C295   C     0.78377   0.91040   0.02547   0.00000  Uiso   1.00
C296   C     0.83536   0.93375   0.98596   0.00000  Uiso   1.00
C297   C     0.65467   0.98700   0.08843   0.00000  Uiso   1.00
C298   C     0.64367   0.97725   0.16253   0.00000  Uiso   1.00
C299   C     0.63119   0.03117   0.18572   0.00000  Uiso   1.00
H300   H     0.66556   0.09579   0.92244   0.00000  Uiso   1.00
H301   H     0.57680   0.07161   0.84218   0.00000  Uiso   1.00
H302   H     0.77981   0.08306   0.88716   0.00000  Uiso   1.00
H303   H     0.63973   0.14990   0.02420   0.00000  Uiso   1.00
H304   H     0.47902   0.01770   0.77489   0.00000  Uiso   1.00
H305   H     0.90709   0.04185   0.86975   0.00000  Uiso   1.00
H306   H     0.61170   0.18279   0.15873   0.00000  Uiso   1.00
H307   H     0.67033   0.88706   0.08966   0.00000  Uiso   1.00
H308   H     0.58182   0.85142   0.01858   0.00000  Uiso   1.00
H309   H     0.78484   0.86287   0.06356   0.00000  Uiso   1.00
H310   H     0.64476   0.92971   0.20060   0.00000  Uiso   1.00
H311   H     0.48310   0.83899   0.91806   0.00000  Uiso   1.00
H312   H     0.91118   0.86314   0.01292   0.00000  Uiso   1.00
H313   H     0.61579   0.00408   0.30190   0.00000  Uiso   1.00
O314   O     0.42277   0.90866   0.79668   0.00000  Uiso   1.00
O315   O     0.98438   0.94035   0.92115   0.00000  Uiso   1.00
O316   O     0.59684   0.12526   0.30028   0.00000  Uiso   1.00
N317   N     0.49212   0.98053   0.81835   0.00000  Uiso   1.00
N318   N     0.89234   0.00311   0.90703   0.00000  Uiso   1.00
N319   N     0.61619   0.13488   0.17720   0.00000  Uiso   1.00
N320   N     0.49431   0.88437   0.89538   0.00000  Uiso   1.00
N321   N     0.89453   0.90695   0.98406   0.00000  Uiso   1.00
N322   N     0.61839   0.03872   0.25424   0.00000  Uiso   1.00
C323   C     0.02251   0.65907   0.01548   0.00000  Uiso   1.00
C324   C     0.01448   0.67806   0.93195   0.00000  Uiso   1.00
C325   C     0.96799   0.65894   0.89270   0.00000  Uiso   1.00
C326   C     0.96867   0.68151   0.81657   0.00000  Uiso   1.00
C327   C     0.94926   0.70489   0.69228   0.00000  Uiso   1.00
C328   C     0.02264   0.72138   0.03650   0.00000  Uiso   1.00
C329   C     0.98301   0.73867   0.08515   0.00000  Uiso   1.00
C330   C     0.99057   0.79771   0.09704   0.00000  Uiso   1.00
C331   C     0.98385   0.88833   0.13511   0.00000  Uiso   1.00
C332   C     0.08789   0.62855   0.03318   0.00000  Uiso   1.00
C333   C     0.10314   0.56781   0.07905   0.00000  Uiso   1.00
C334   C     0.16564   0.54869   0.08816   0.00000  Uiso   1.00
C335   C     0.26024   0.49519   0.12106   0.00000  Uiso   1.00
C336   C     0.10640   0.73315   0.95010   0.00000  Uiso   1.00
C337   C     0.06004   0.71829   0.89644   0.00000  Uiso   1.00
C338   C     0.06080   0.74090   0.82036   0.00000  Uiso   1.00
C339   C     0.01432   0.72181   0.78100   0.00000  Uiso   1.00
C340   C     0.06820   0.76161   0.00099   0.00000  Uiso   1.00
C341   C     0.07582   0.82063   0.01282   0.00000  Uiso   1.00
C342   C     0.03621   0.83802   0.06147   0.00000  Uiso   1.00
C343   C     0.13346   0.66879   0.99766   0.00000  Uiso   1.00
C344   C     0.19595   0.64977   0.00671   0.00000  Uiso   1.00
C345   C     0.21129   0.58900   0.05258   0.00000  Uiso   1.00
H346   H     0.98704   0.62775   0.04313   0.00000  Uiso   1.00
H347   H     0.93274   0.62780   0.92020   0.00000  Uiso   1.00
H348   H     0.94776   0.70752   0.11263   0.00000  Uiso   1.00
H349   H     0.06787   0.53668   0.10652   0.00000  Uiso   1.00
H350   H     0.89261   0.64563   0.76825   0.00000  Uiso   1.00
H351   H     0.92431   0.81371   0.17402   0.00000  Uiso   1.00
H352   H     0.17758   0.45346   0.16115   0.00000  Uiso   1.00
H353   H     0.14187   0.76448   0.92245   0.00000  Uiso   1.00
H354   H     0.09607   0.77204   0.79289   0.00000  Uiso   1.00
H355   H     0.11109   0.85176   0.98533   0.00000  Uiso   1.00
H356   H     0.23119   0.68092   0.97922   0.00000  Uiso   1.00
H357   H     0.02517   0.76270   0.66492   0.00000  Uiso   1.00
H358   H     0.05687   0.93078   0.07070   0.00000  Uiso   1.00
H359   H     0.31014   0.57053   0.05782   0.00000  Uiso   1.00
O360   O     0.92596   0.70668   0.63354   0.00000  Uiso   1.00
O361   O     0.96754   0.92720   0.16591   0.00000  Uiso   1.00
O362   O     0.29983   0.45456   0.14901   0.00000  Uiso   1.00
N363   N     0.93010   0.67213   0.76171   0.00000  Uiso   1.00
N364   N     0.95973   0.82929   0.14107   0.00000  Uiso   1.00
N365   N     0.19652   0.49249   0.12905   0.00000  Uiso   1.00
N366   N     0.00144   0.73512   0.70611   0.00000  Uiso   1.00
N367   N     0.03106   0.89228   0.08547   0.00000  Uiso   1.00
N368   N     0.26785   0.55548   0.07345   0.00000  Uiso   1.00
C369   C     0.79078   0.98228   0.68601   0.00000  Uiso   1.00
C370   C     0.73559   0.98013   0.63569   0.00000  Uiso   1.00
C371   C     0.73887   0.97491   0.56465   0.00000  Uiso   1.00
C372   C     0.68310   0.97372   0.52767   0.00000  Uiso   1.00
C373   C     0.60607   0.96976   0.44454   0.00000  Uiso   1.00
C374   C     0.78398   0.92786   0.75593   0.00000  Uiso   1.00
C375   C     0.82795   0.87868   0.78600   0.00000  Uiso   1.00
C376   C     0.81291   0.83350   0.85025   0.00000  Uiso   1.00
C377   C     0.81103   0.74840   0.95383   0.00000  Uiso   1.00
C378   C     0.78089   0.04378   0.70798   0.00000  Uiso   1.00
C379   C     0.82227   0.09208   0.69775   0.00000  Uiso   1.00
C380   C     0.80463   0.14449   0.72165   0.00000  Uiso   1.00
C381   C     0.79795   0.23939   0.75077   0.00000  Uiso   1.00
C382   C     0.68589   0.98948   0.74667   0.00000  Uiso   1.00
C383   C     0.67862   0.98404   0.66864   0.00000  Uiso   1.00
C384   C     0.62282   0.98287   0.63176   0.00000  Uiso   1.00
C385   C     0.62602   0.97764   0.56068   0.00000  Uiso   1.00
C386   C     0.72701   0.93176   0.78888   0.00000  Uiso   1.00
C387   C     0.71190   0.88664   0.85311   0.00000  Uiso   1.00
C388   C     0.75583   0.83741   0.88326   0.00000  Uiso   1.00
C389   C     0.72392   0.04769   0.74093   0.00000  Uiso   1.00
C390   C     0.70622   0.10004   0.76485   0.00000  Uiso   1.00
C391   C     0.74756   0.14841   0.75465   0.00000  Uiso   1.00
H392   H     0.83514   0.97924   0.66036   0.00000  Uiso   1.00
H393   H     0.78297   0.97188   0.53917   0.00000  Uiso   1.00
H394   H     0.87204   0.87568   0.76049   0.00000  Uiso   1.00
H395   H     0.86635   0.08904   0.67225   0.00000  Uiso   1.00
H396   H     0.70001   0.96542   0.41935   0.00000  Uiso   1.00
H397   H     0.88782   0.76258   0.88603   0.00000  Uiso   1.00
H398   H     0.87584   0.21250   0.69996   0.00000  Uiso   1.00
H399   H     0.64153   0.99252   0.77232   0.00000  Uiso   1.00
H400   H     0.57874   0.98589   0.65727   0.00000  Uiso   1.00
H401   H     0.66781   0.88969   0.87859   0.00000  Uiso   1.00
H402   H     0.66213   0.10305   0.79035   0.00000  Uiso   1.00
H403   H     0.53425   0.97679   0.51520   0.00000  Uiso   1.00
H404   H     0.72206   0.77395   0.98188   0.00000  Uiso   1.00
H405   H     0.71008   0.22387   0.79581   0.00000  Uiso   1.00
O406   O     0.57932   0.96648   0.38958   0.00000  Uiso   1.00
O407   O     0.82572   0.70038   0.00185   0.00000  Uiso   1.00
O408   O     0.81000   0.29066   0.75772   0.00000  Uiso   1.00
N409   N     0.66962   0.96902   0.45770   0.00000  Uiso   1.00
N410   N     0.84520   0.77937   0.89400   0.00000  Uiso   1.00
N411   N     0.83401   0.20000   0.72006   0.00000  Uiso   1.00
N412   N     0.58042   0.97514   0.50927   0.00000  Uiso   1.00
N413   N     0.75601   0.78549   0.94558   0.00000  Uiso   1.00
N414   N     0.74482   0.20612   0.77163   0.00000  Uiso   1.00
C415   C     0.04136   0.49077   0.42027   0.00000  Uiso   1.00
C416   C     0.99482   0.50608   0.35551   0.00000  Uiso   1.00
C417   C     0.93845   0.47823   0.35452   0.00000  Uiso   1.00
C418   C     0.90252   0.49874   0.28997   0.00000  Uiso   1.00
C419   C     0.82727   0.51539   0.19873   0.00000  Uiso   1.00
C420   C     0.10234   0.47112   0.39156   0.00000  Uiso   1.00
C421   C     0.13637   0.41387   0.42088   0.00000  Uiso   1.00
C422   C     0.19095   0.40496   0.38668   0.00000  Uiso   1.00
C423   C     0.28265   0.36734   0.35144   0.00000  Uiso   1.00
C424   C     0.05187   0.55402   0.43640   0.00000  Uiso   1.00
C425   C     0.04348   0.56648   0.50343   0.00000  Uiso   1.00
C426   C     0.05558   0.62736   0.50700   0.00000  Uiso   1.00
C427   C     0.06891   0.71847   0.54138   0.00000  Uiso   1.00
C428   C     0.07778   0.57674   0.30742   0.00000  Uiso   1.00
C429   C     0.01461   0.55278   0.29421   0.00000  Uiso   1.00
C430   C     0.97875   0.57334   0.22965   0.00000  Uiso   1.00
C431   C     0.92233   0.54553   0.22856   0.00000  Uiso   1.00
C432   C     0.12213   0.51781   0.33026   0.00000  Uiso   1.00
C433   C     0.17667   0.50898   0.29602   0.00000  Uiso   1.00
C434   C     0.21077   0.45174   0.32527   0.00000  Uiso   1.00
C435   C     0.07165   0.60072   0.37510   0.00000  Uiso   1.00
C436   C     0.08377   0.66160   0.37857   0.00000  Uiso   1.00
C437   C     0.07540   0.67414   0.44559   0.00000  Uiso   1.00
H438   H     0.02596   0.45441   0.46800   0.00000  Uiso   1.00
H439   H     0.92316   0.44208   0.40197   0.00000  Uiso   1.00
H440   H     0.12105   0.37774   0.46832   0.00000  Uiso   1.00
H441   H     0.02817   0.53033   0.55086   0.00000  Uiso   1.00
H442   H     0.81792   0.44900   0.30172   0.00000  Uiso   1.00
H443   H     0.23520   0.31333   0.44165   0.00000  Uiso   1.00
H444   H     0.03934   0.63509   0.61569   0.00000  Uiso   1.00
H445   H     0.09319   0.61310   0.25969   0.00000  Uiso   1.00
H446   H     0.99408   0.60948   0.18223   0.00000  Uiso   1.00
H447   H     0.19197   0.54513   0.24858   0.00000  Uiso   1.00
H448   H     0.09909   0.69772   0.33112   0.00000  Uiso   1.00
H449   H     0.87548   0.58486   0.12337   0.00000  Uiso   1.00
H450   H     0.29276   0.44919   0.26330   0.00000  Uiso   1.00
H451   H     0.09690   0.77095   0.43734   0.00000  Uiso   1.00
O452   O     0.78030   0.51167   0.16533   0.00000  Uiso   1.00
O453   O     0.32776   0.33369   0.34893   0.00000  Uiso   1.00
O454   O     0.07079   0.75583   0.57727   0.00000  Uiso   1.00
N455   N     0.84507   0.48148   0.27038   0.00000  Uiso   1.00
N456   N     0.23519   0.35463   0.40120   0.00000  Uiso   1.00
N457   N     0.05209   0.65545   0.56392   0.00000  Uiso   1.00
N458   N     0.87604   0.55458   0.17441   0.00000  Uiso   1.00
N459   N     0.26616   0.42774   0.30523   0.00000  Uiso   1.00
N460   N     0.08306   0.72855   0.46795   0.00000  Uiso   1.00
C461   C     0.47822   0.46147   0.04879   0.00000  Uiso   1.00
C462   C     0.48917   0.43669   0.98239   0.00000  Uiso   1.00
C463   C     0.44715   0.44240   0.92443   0.00000  Uiso   1.00
C464   C     0.46596   0.41654   0.86893   0.00000  Uiso   1.00
C465   C     0.47402   0.38266   0.76546   0.00000  Uiso   1.00
C466   C     0.48889   0.40392   0.11625   0.00000  Uiso   1.00
C467   C     0.44663   0.38210   0.17085   0.00000  Uiso   1.00
C468   C     0.46522   0.32867   0.22804   0.00000  Uiso   1.00
C469   C     0.47286   0.24396   0.33243   0.00000  Uiso   1.00
C470   C     0.53071   0.50537   0.05083   0.00000  Uiso   1.00
C471   C     0.52362   0.56884   0.05044   0.00000  Uiso   1.00
C472   C     0.57742   0.60082   0.05257   0.00000  Uiso   1.00
C473   C     0.64999   0.67362   0.05539   0.00000  Uiso   1.00
C474   C     0.58637   0.40540   0.05329   0.00000  Uiso   1.00
C475   C     0.54791   0.40623   0.98484   0.00000  Uiso   1.00
C476   C     0.56680   0.38036   0.92940   0.00000  Uiso   1.00
C477   C     0.52481   0.38603   0.87137   0.00000  Uiso   1.00
C478   C     0.54763   0.37347   0.11870   0.00000  Uiso   1.00
C479   C     0.56628   0.32006   0.17583   0.00000  Uiso   1.00
C480   C     0.52407   0.29816   0.23049   0.00000  Uiso   1.00
C481   C     0.58945   0.47492   0.05328   0.00000  Uiso   1.00
C482   C     0.64327   0.50680   0.05542   0.00000  Uiso   1.00
C483   C     0.63626   0.57031   0.05502   0.00000  Uiso   1.00
H484   H     0.43249   0.48518   0.04690   0.00000  Uiso   1.00
H485   H     0.40169   0.46596   0.92256   0.00000  Uiso   1.00
H486   H     0.40118   0.40568   0.16894   0.00000  Uiso   1.00
H487   H     0.47816   0.59239   0.04855   0.00000  Uiso   1.00
H488   H     0.39344   0.43121   0.78580   0.00000  Uiso   1.00
H489   H     0.39238   0.30411   0.30533   0.00000  Uiso   1.00
H490   H     0.55469   0.69783   0.05146   0.00000  Uiso   1.00
H491   H     0.63210   0.38169   0.05520   0.00000  Uiso   1.00
H492   H     0.61226   0.35679   0.93131   0.00000  Uiso   1.00
H493   H     0.61174   0.29651   0.17770   0.00000  Uiso   1.00
H494   H     0.68872   0.48322   0.05731   0.00000  Uiso   1.00
H495   H     0.56434   0.34260   0.79291   0.00000  Uiso   1.00
H496   H     0.56328   0.21550   0.31244   0.00000  Uiso   1.00
H497   H     0.72559   0.60922   0.05857   0.00000  Uiso   1.00
O498   O     0.46223   0.37238   0.70772   0.00000  Uiso   1.00
O499   O     0.46084   0.20564   0.38933   0.00000  Uiso   1.00
O500   O     0.67379   0.72219   0.05625   0.00000  Uiso   1.00
N501   N     0.43639   0.41378   0.80447   0.00000  Uiso   1.00
N502   N     0.43539   0.29495   0.29019   0.00000  Uiso   1.00
N503   N     0.58714   0.66304   0.05286   0.00000  Uiso   1.00
N504   N     0.52835   0.36610   0.80829   0.00000  Uiso   1.00
N505   N     0.52735   0.24727   0.29401   0.00000  Uiso   1.00
N506   N     0.67910   0.61536   0.05669   0.00000  Uiso   1.00
C507   C     0.42381   0.92112   0.45500   0.00000  Uiso   1.00
C508   C     0.37762   0.89169   0.41410   0.00000  Uiso   1.00
C509   C     0.38405   0.88571   0.34369   0.00000  Uiso   1.00
C510   C     0.33669   0.85742   0.31600   0.00000  Uiso   1.00
C511   C     0.27286   0.81501   0.24619   0.00000  Uiso   1.00
C512   C     0.38757   0.97443   0.47602   0.00000  Uiso   1.00
C513   C     0.40236   0.03801   0.45769   0.00000  Uiso   1.00
C514   C     0.36336   0.07937   0.48213   0.00000  Uiso   1.00
C515   C     0.31500   0.16541   0.50850   0.00000  Uiso   1.00
C516   C     0.44074   0.87012   0.52698   0.00000  Uiso   1.00
C517   C     0.50024   0.84601   0.55151   0.00000  Uiso   1.00
C518   C     0.50601   0.79956   0.61887   0.00000  Uiso   1.00
C519   C     0.54021   0.72365   0.72436   0.00000  Uiso   1.00
C520   C     0.32825   0.88152   0.53102   0.00000  Uiso   1.00
C521   C     0.32572   0.87018   0.45539   0.00000  Uiso   1.00
C522   C     0.27833   0.84189   0.42780   0.00000  Uiso   1.00
C523   C     0.28469   0.83586   0.35737   0.00000  Uiso   1.00
C524   C     0.33566   0.95292   0.51731   0.00000  Uiso   1.00
C525   C     0.29664   0.99419   0.54179   0.00000  Uiso   1.00
C526   C     0.31137   0.05782   0.52350   0.00000  Uiso   1.00
C527   C     0.38884   0.84860   0.56827   0.00000  Uiso   1.00
C528   C     0.39452   0.80219   0.63561   0.00000  Uiso   1.00
C529   C     0.45402   0.77801   0.66023   0.00000  Uiso   1.00
H530   H     0.46421   0.93788   0.42286   0.00000  Uiso   1.00
H531   H     0.42423   0.90237   0.31175   0.00000  Uiso   1.00
H532   H     0.44253   0.05465   0.42574   0.00000  Uiso   1.00
H533   H     0.54040   0.86267   0.51954   0.00000  Uiso   1.00
H534   H     0.35699   0.85354   0.20678   0.00000  Uiso   1.00
H535   H     0.39561   0.17461   0.44714   0.00000  Uiso   1.00
H536   H     0.60197   0.76980   0.64494   0.00000  Uiso   1.00
H537   H     0.28784   0.86477   0.56316   0.00000  Uiso   1.00
H538   H     0.23817   0.82524   0.45976   0.00000  Uiso   1.00
H539   H     0.25648   0.97752   0.57374   0.00000  Uiso   1.00
H540   H     0.35434   0.78555   0.66754   0.00000  Uiso   1.00
H541   H     0.20598   0.79094   0.32690   0.00000  Uiso   1.00
H542   H     0.24460   0.11202   0.56727   0.00000  Uiso   1.00
H543   H     0.45096   0.70721   0.76506   0.00000  Uiso   1.00
O544   O     0.25199   0.79758   0.19628   0.00000  Uiso   1.00
O545   O     0.30266   0.21882   0.51163   0.00000  Uiso   1.00
O546   O     0.57340   0.68771   0.77114   0.00000  Uiso   1.00
N547   N     0.32828   0.84422   0.24925   0.00000  Uiso   1.00
N548   N     0.36437   0.14441   0.47396   0.00000  Uiso   1.00
N549   N     0.55731   0.76595   0.65889   0.00000  Uiso   1.00
N550   N     0.24702   0.81053   0.31388   0.00000  Uiso   1.00
N551   N     0.28311   0.11073   0.53860   0.00000  Uiso   1.00
N552   N     0.47605   0.73227   0.72353   0.00000  Uiso   1.00
