data_job_00687
_audit_creation_date              2018-12-19
_audit_creation_method            'Materials Studio'
_symmetry_space_group_name_H-M    'P1'
_symmetry_Int_Tables_number       1
_symmetry_cell_setting            triclinic
loop_
_symmetry_equiv_pos_as_xyz
  x,y,z
_cell_length_a                    20.5976
_cell_length_b                    23.6585
_cell_length_c                    12.6113
_cell_angle_alpha                 90.0000
_cell_angle_beta                  90.0000
_cell_angle_gamma                 90.0000
loop_
_atom_site_label
_atom_site_type_symbol
_atom_site_fract_x
_atom_site_fract_y
_atom_site_fract_z
_atom_site_U_iso_or_equiv
_atom_site_adp_type
_atom_site_occupancy
C1     C     0.03037   0.11757   0.18374   0.00000  Uiso   1.00
C2     C     0.04459   0.14848   0.28728   0.00000  Uiso   1.00
C3     C     0.10088   0.17827   0.31041   0.00000  Uiso   1.00
C4     C     0.10455   0.20357   0.40956   0.00000  Uiso   1.00
C5     C     0.13438   0.25221   0.55919   0.00000  Uiso   1.00
C6     C     0.01553   0.05656   0.21428   0.00000  Uiso   1.00
C7     C     0.04739   0.00906   0.17603   0.00000  Uiso   1.00
C8     C     0.02659   0.95697   0.21373   0.00000  Uiso   1.00
C9     C     0.01128   0.86289   0.24997   0.00000  Uiso   1.00
C10    C     0.96685   0.14217   0.14216   0.00000  Uiso   1.00
C11    C     0.95776   0.16663   0.04324   0.00000  Uiso   1.00
C12    C     0.89597   0.18662   0.02021   0.00000  Uiso   1.00
C13    C     0.80507   0.22546   0.94447   0.00000  Uiso   1.00
C14    C     0.93679   0.10954   0.31869   0.00000  Uiso   1.00
C15    C     0.99376   0.14412   0.36057   0.00000  Uiso   1.00
C16    C     0.99735   0.16938   0.45972   0.00000  Uiso   1.00
C17    C     0.05363   0.19920   0.48299   0.00000  Uiso   1.00
C18    C     0.96471   0.05219   0.28758   0.00000  Uiso   1.00
C19    C     0.94385   0.00017   0.32533   0.00000  Uiso   1.00
C20    C     0.97567   0.95260   0.28716   0.00000  Uiso   1.00
C21    C     0.91602   0.13781   0.21545   0.00000  Uiso   1.00
C22    C     0.85423   0.15775   0.19256   0.00000  Uiso   1.00
C23    C     0.84505   0.18225   0.09364   0.00000  Uiso   1.00
H24    H     0.06994   0.12096   0.12668   0.00000  Uiso   1.00
H25    H     0.14020   0.18163   0.25366   0.00000  Uiso   1.00
H26    H     0.08671   0.01245   0.11930   0.00000  Uiso   1.00
H27    H     0.99710   0.17000   0.98654   0.00000  Uiso   1.00
H28    H     0.19570   0.24695   0.42680   0.00000  Uiso   1.00
H29    H     0.08290   0.89021   0.14345   0.00000  Uiso   1.00
H30    H     0.89394   0.22245   0.86350   0.00000  Uiso   1.00
H31    H     0.89722   0.10614   0.37576   0.00000  Uiso   1.00
H32    H     0.95800   0.16600   0.51642   0.00000  Uiso   1.00
H33    H     0.90452   0.99681   0.38205   0.00000  Uiso   1.00
H34    H     0.81491   0.15437   0.24930   0.00000  Uiso   1.00
H35    H     0.04783   0.23426   0.64006   0.00000  Uiso   1.00
H36    H     0.93502   0.87752   0.35671   0.00000  Uiso   1.00
H37    H     0.74607   0.20976   0.07677   0.00000  Uiso   1.00
O38    O     0.16488   0.28023   0.62148   0.00000  Uiso   1.00
O39    O     0.01688   0.81220   0.24972   0.00000  Uiso   1.00
O40    O     0.76897   0.24809   0.88245   0.00000  Uiso   1.00
N41    N     0.15255   0.23576   0.45768   0.00000  Uiso   1.00
N42    N     0.04710   0.90223   0.19278   0.00000  Uiso   1.00
N43    N     0.87043   0.21283   0.93104   0.00000  Uiso   1.00
N44    N     0.07298   0.22893   0.57243   0.00000  Uiso   1.00
N45    N     0.96752   0.89540   0.30753   0.00000  Uiso   1.00
N46    N     0.79086   0.20600   0.04580   0.00000  Uiso   1.00
C47    C     0.46963   0.88243   0.18374   0.00000  Uiso   1.00
C48    C     0.45541   0.85152   0.28728   0.00000  Uiso   1.00
C49    C     0.39912   0.82173   0.31041   0.00000  Uiso   1.00
C50    C     0.39545   0.79643   0.40956   0.00000  Uiso   1.00
C51    C     0.36562   0.74779   0.55919   0.00000  Uiso   1.00
C52    C     0.48447   0.94344   0.21428   0.00000  Uiso   1.00
C53    C     0.45261   0.99094   0.17603   0.00000  Uiso   1.00
C54    C     0.47341   0.04303   0.21373   0.00000  Uiso   1.00
C55    C     0.48872   0.13711   0.24997   0.00000  Uiso   1.00
C56    C     0.53315   0.85783   0.14216   0.00000  Uiso   1.00
C57    C     0.54224   0.83337   0.04324   0.00000  Uiso   1.00
C58    C     0.60403   0.81338   0.02021   0.00000  Uiso   1.00
C59    C     0.69493   0.77454   0.94447   0.00000  Uiso   1.00
C60    C     0.56321   0.89046   0.31869   0.00000  Uiso   1.00
C61    C     0.50624   0.85588   0.36057   0.00000  Uiso   1.00
C62    C     0.50265   0.83062   0.45972   0.00000  Uiso   1.00
C63    C     0.44637   0.80080   0.48299   0.00000  Uiso   1.00
C64    C     0.53529   0.94781   0.28758   0.00000  Uiso   1.00
C65    C     0.55615   0.99983   0.32533   0.00000  Uiso   1.00
C66    C     0.52433   0.04740   0.28716   0.00000  Uiso   1.00
C67    C     0.58398   0.86219   0.21545   0.00000  Uiso   1.00
C68    C     0.64577   0.84225   0.19256   0.00000  Uiso   1.00
C69    C     0.65495   0.81775   0.09364   0.00000  Uiso   1.00
H70    H     0.43006   0.87904   0.12668   0.00000  Uiso   1.00
H71    H     0.35980   0.81837   0.25366   0.00000  Uiso   1.00
H72    H     0.41329   0.98755   0.11930   0.00000  Uiso   1.00
H73    H     0.50290   0.83000   0.98654   0.00000  Uiso   1.00
H74    H     0.30430   0.75305   0.42680   0.00000  Uiso   1.00
H75    H     0.41710   0.10979   0.14345   0.00000  Uiso   1.00
H76    H     0.60606   0.77755   0.86350   0.00000  Uiso   1.00
H77    H     0.60278   0.89386   0.37576   0.00000  Uiso   1.00
H78    H     0.54200   0.83400   0.51642   0.00000  Uiso   1.00
H79    H     0.59548   0.00319   0.38205   0.00000  Uiso   1.00
H80    H     0.68509   0.84563   0.24930   0.00000  Uiso   1.00
H81    H     0.45217   0.76574   0.64006   0.00000  Uiso   1.00
H82    H     0.56498   0.12248   0.35671   0.00000  Uiso   1.00
H83    H     0.75393   0.79024   0.07677   0.00000  Uiso   1.00
O84    O     0.33512   0.71977   0.62148   0.00000  Uiso   1.00
O85    O     0.48312   0.18780   0.24972   0.00000  Uiso   1.00
O86    O     0.73103   0.75191   0.88245   0.00000  Uiso   1.00
N87    N     0.34745   0.76424   0.45768   0.00000  Uiso   1.00
N88    N     0.45290   0.09777   0.19278   0.00000  Uiso   1.00
N89    N     0.62957   0.78717   0.93104   0.00000  Uiso   1.00
N90    N     0.42702   0.77107   0.57243   0.00000  Uiso   1.00
N91    N     0.53248   0.10460   0.30753   0.00000  Uiso   1.00
N92    N     0.70914   0.79400   0.04580   0.00000  Uiso   1.00
C93    C     0.46963   0.61757   0.31626   0.00000  Uiso   1.00
C94    C     0.45541   0.64848   0.21272   0.00000  Uiso   1.00
C95    C     0.39912   0.67827   0.18959   0.00000  Uiso   1.00
C96    C     0.39545   0.70357   0.09044   0.00000  Uiso   1.00
C97    C     0.36562   0.75221   0.94081   0.00000  Uiso   1.00
C98    C     0.48447   0.55656   0.28572   0.00000  Uiso   1.00
C99    C     0.45261   0.50906   0.32397   0.00000  Uiso   1.00
C100   C     0.47341   0.45697   0.28627   0.00000  Uiso   1.00
C101   C     0.48872   0.36289   0.25003   0.00000  Uiso   1.00
C102   C     0.53315   0.64217   0.35784   0.00000  Uiso   1.00
C103   C     0.54224   0.66663   0.45676   0.00000  Uiso   1.00
C104   C     0.60403   0.68662   0.47979   0.00000  Uiso   1.00
C105   C     0.69493   0.72546   0.55553   0.00000  Uiso   1.00
C106   C     0.56321   0.60954   0.18131   0.00000  Uiso   1.00
C107   C     0.50624   0.64412   0.13943   0.00000  Uiso   1.00
C108   C     0.50265   0.66938   0.04028   0.00000  Uiso   1.00
C109   C     0.44637   0.69920   0.01701   0.00000  Uiso   1.00
C110   C     0.53529   0.55219   0.21242   0.00000  Uiso   1.00
C111   C     0.55615   0.50017   0.17467   0.00000  Uiso   1.00
C112   C     0.52433   0.45260   0.21284   0.00000  Uiso   1.00
C113   C     0.58398   0.63781   0.28455   0.00000  Uiso   1.00
C114   C     0.64577   0.65775   0.30744   0.00000  Uiso   1.00
C115   C     0.65495   0.68225   0.40636   0.00000  Uiso   1.00
H116   H     0.43006   0.62096   0.37332   0.00000  Uiso   1.00
H117   H     0.35980   0.68163   0.24634   0.00000  Uiso   1.00
H118   H     0.41329   0.51245   0.38070   0.00000  Uiso   1.00
H119   H     0.50290   0.67000   0.51346   0.00000  Uiso   1.00
H120   H     0.30430   0.74695   0.07320   0.00000  Uiso   1.00
H121   H     0.41710   0.39021   0.35655   0.00000  Uiso   1.00
H122   H     0.60606   0.72245   0.63650   0.00000  Uiso   1.00
H123   H     0.60278   0.60614   0.12424   0.00000  Uiso   1.00
H124   H     0.54200   0.66600   0.98358   0.00000  Uiso   1.00
H125   H     0.59548   0.49681   0.11795   0.00000  Uiso   1.00
H126   H     0.68509   0.65437   0.25070   0.00000  Uiso   1.00
H127   H     0.45217   0.73426   0.85994   0.00000  Uiso   1.00
H128   H     0.56498   0.37752   0.14329   0.00000  Uiso   1.00
H129   H     0.75393   0.70976   0.42323   0.00000  Uiso   1.00
O130   O     0.33512   0.78023   0.87852   0.00000  Uiso   1.00
O131   O     0.48312   0.31220   0.25028   0.00000  Uiso   1.00
O132   O     0.73103   0.74809   0.61755   0.00000  Uiso   1.00
N133   N     0.34745   0.73576   0.04232   0.00000  Uiso   1.00
N134   N     0.45290   0.40223   0.30722   0.00000  Uiso   1.00
N135   N     0.62957   0.71283   0.56896   0.00000  Uiso   1.00
N136   N     0.42702   0.72893   0.92757   0.00000  Uiso   1.00
N137   N     0.53248   0.39540   0.19247   0.00000  Uiso   1.00
N138   N     0.70914   0.70600   0.45420   0.00000  Uiso   1.00
C139   C     0.03037   0.38243   0.31626   0.00000  Uiso   1.00
C140   C     0.04459   0.35152   0.21272   0.00000  Uiso   1.00
C141   C     0.10088   0.32173   0.18959   0.00000  Uiso   1.00
C142   C     0.10455   0.29643   0.09044   0.00000  Uiso   1.00
C143   C     0.13438   0.24779   0.94081   0.00000  Uiso   1.00
C144   C     0.01553   0.44344   0.28572   0.00000  Uiso   1.00
C145   C     0.04739   0.49094   0.32397   0.00000  Uiso   1.00
C146   C     0.02659   0.54303   0.28627   0.00000  Uiso   1.00
C147   C     0.01128   0.63711   0.25003   0.00000  Uiso   1.00
C148   C     0.96685   0.35783   0.35784   0.00000  Uiso   1.00
C149   C     0.95776   0.33337   0.45676   0.00000  Uiso   1.00
C150   C     0.89597   0.31338   0.47979   0.00000  Uiso   1.00
C151   C     0.80507   0.27454   0.55553   0.00000  Uiso   1.00
C152   C     0.93679   0.39046   0.18131   0.00000  Uiso   1.00
C153   C     0.99376   0.35588   0.13943   0.00000  Uiso   1.00
C154   C     0.99735   0.33062   0.04028   0.00000  Uiso   1.00
C155   C     0.05363   0.30080   0.01701   0.00000  Uiso   1.00
C156   C     0.96471   0.44781   0.21242   0.00000  Uiso   1.00
C157   C     0.94385   0.49983   0.17467   0.00000  Uiso   1.00
C158   C     0.97567   0.54740   0.21284   0.00000  Uiso   1.00
C159   C     0.91602   0.36219   0.28455   0.00000  Uiso   1.00
C160   C     0.85423   0.34225   0.30744   0.00000  Uiso   1.00
C161   C     0.84505   0.31775   0.40636   0.00000  Uiso   1.00
H162   H     0.06994   0.37904   0.37332   0.00000  Uiso   1.00
H163   H     0.14020   0.31837   0.24634   0.00000  Uiso   1.00
H164   H     0.08671   0.48755   0.38070   0.00000  Uiso   1.00
H165   H     0.99710   0.33000   0.51346   0.00000  Uiso   1.00
H166   H     0.19570   0.25305   0.07320   0.00000  Uiso   1.00
H167   H     0.08290   0.60979   0.35655   0.00000  Uiso   1.00
H168   H     0.89394   0.27755   0.63650   0.00000  Uiso   1.00
H169   H     0.89722   0.39386   0.12424   0.00000  Uiso   1.00
H170   H     0.95800   0.33400   0.98358   0.00000  Uiso   1.00
H171   H     0.90452   0.50319   0.11795   0.00000  Uiso   1.00
H172   H     0.81491   0.34563   0.25070   0.00000  Uiso   1.00
H173   H     0.04783   0.26574   0.85994   0.00000  Uiso   1.00
H174   H     0.93502   0.62248   0.14329   0.00000  Uiso   1.00
H175   H     0.74607   0.29024   0.42323   0.00000  Uiso   1.00
O176   O     0.16488   0.21977   0.87852   0.00000  Uiso   1.00
O177   O     0.01688   0.68780   0.25028   0.00000  Uiso   1.00
O178   O     0.76897   0.25191   0.61755   0.00000  Uiso   1.00
N179   N     0.15255   0.26424   0.04232   0.00000  Uiso   1.00
N180   N     0.04710   0.59777   0.30722   0.00000  Uiso   1.00
N181   N     0.87043   0.28717   0.56896   0.00000  Uiso   1.00
N182   N     0.07298   0.27107   0.92757   0.00000  Uiso   1.00
N183   N     0.96752   0.60460   0.19247   0.00000  Uiso   1.00
N184   N     0.79086   0.29400   0.45420   0.00000  Uiso   1.00
C185   C     0.96963   0.88243   0.81626   0.00000  Uiso   1.00
C186   C     0.95541   0.85152   0.71272   0.00000  Uiso   1.00
C187   C     0.89912   0.82173   0.68959   0.00000  Uiso   1.00
C188   C     0.89545   0.79643   0.59044   0.00000  Uiso   1.00
C189   C     0.86562   0.74779   0.44081   0.00000  Uiso   1.00
C190   C     0.98447   0.94344   0.78572   0.00000  Uiso   1.00
C191   C     0.95261   0.99094   0.82397   0.00000  Uiso   1.00
C192   C     0.97341   0.04303   0.78627   0.00000  Uiso   1.00
C193   C     0.98872   0.13711   0.75003   0.00000  Uiso   1.00
C194   C     0.03315   0.85783   0.85784   0.00000  Uiso   1.00
C195   C     0.04224   0.83337   0.95676   0.00000  Uiso   1.00
C196   C     0.10403   0.81338   0.97979   0.00000  Uiso   1.00
C197   C     0.19493   0.77454   0.05553   0.00000  Uiso   1.00
C198   C     0.06321   0.89046   0.68131   0.00000  Uiso   1.00
C199   C     0.00624   0.85588   0.63943   0.00000  Uiso   1.00
C200   C     0.00265   0.83062   0.54028   0.00000  Uiso   1.00
C201   C     0.94637   0.80080   0.51701   0.00000  Uiso   1.00
C202   C     0.03529   0.94781   0.71242   0.00000  Uiso   1.00
C203   C     0.05615   0.99983   0.67467   0.00000  Uiso   1.00
C204   C     0.02433   0.04740   0.71284   0.00000  Uiso   1.00
C205   C     0.08398   0.86219   0.78455   0.00000  Uiso   1.00
C206   C     0.14577   0.84225   0.80744   0.00000  Uiso   1.00
C207   C     0.15495   0.81775   0.90636   0.00000  Uiso   1.00
H208   H     0.93006   0.87904   0.87332   0.00000  Uiso   1.00
H209   H     0.85980   0.81837   0.74634   0.00000  Uiso   1.00
H210   H     0.91329   0.98755   0.88070   0.00000  Uiso   1.00
H211   H     0.00290   0.83000   0.01346   0.00000  Uiso   1.00
H212   H     0.80430   0.75305   0.57320   0.00000  Uiso   1.00
H213   H     0.91710   0.10979   0.85655   0.00000  Uiso   1.00
H214   H     0.10606   0.77755   0.13650   0.00000  Uiso   1.00
H215   H     0.10278   0.89386   0.62424   0.00000  Uiso   1.00
H216   H     0.04200   0.83400   0.48358   0.00000  Uiso   1.00
H217   H     0.09548   0.00319   0.61795   0.00000  Uiso   1.00
H218   H     0.18509   0.84563   0.75070   0.00000  Uiso   1.00
H219   H     0.95217   0.76574   0.35994   0.00000  Uiso   1.00
H220   H     0.06498   0.12248   0.64329   0.00000  Uiso   1.00
H221   H     0.25393   0.79024   0.92323   0.00000  Uiso   1.00
O222   O     0.83512   0.71977   0.37852   0.00000  Uiso   1.00
O223   O     0.98312   0.18780   0.75028   0.00000  Uiso   1.00
O224   O     0.23103   0.75191   0.11755   0.00000  Uiso   1.00
N225   N     0.84745   0.76424   0.54232   0.00000  Uiso   1.00
N226   N     0.95290   0.09777   0.80722   0.00000  Uiso   1.00
N227   N     0.12957   0.78717   0.06896   0.00000  Uiso   1.00
N228   N     0.92702   0.77107   0.42757   0.00000  Uiso   1.00
N229   N     0.03248   0.10460   0.69247   0.00000  Uiso   1.00
N230   N     0.20914   0.79400   0.95420   0.00000  Uiso   1.00
C231   C     0.53037   0.11757   0.81626   0.00000  Uiso   1.00
C232   C     0.54459   0.14848   0.71272   0.00000  Uiso   1.00
C233   C     0.60088   0.17827   0.68959   0.00000  Uiso   1.00
C234   C     0.60455   0.20357   0.59044   0.00000  Uiso   1.00
C235   C     0.63438   0.25221   0.44081   0.00000  Uiso   1.00
C236   C     0.51553   0.05656   0.78572   0.00000  Uiso   1.00
C237   C     0.54739   0.00906   0.82397   0.00000  Uiso   1.00
C238   C     0.52659   0.95697   0.78627   0.00000  Uiso   1.00
C239   C     0.51128   0.86289   0.75003   0.00000  Uiso   1.00
C240   C     0.46685   0.14217   0.85784   0.00000  Uiso   1.00
C241   C     0.45776   0.16663   0.95676   0.00000  Uiso   1.00
C242   C     0.39597   0.18662   0.97979   0.00000  Uiso   1.00
C243   C     0.30507   0.22546   0.05553   0.00000  Uiso   1.00
C244   C     0.43679   0.10954   0.68131   0.00000  Uiso   1.00
C245   C     0.49376   0.14412   0.63943   0.00000  Uiso   1.00
C246   C     0.49735   0.16938   0.54028   0.00000  Uiso   1.00
C247   C     0.55363   0.19920   0.51701   0.00000  Uiso   1.00
C248   C     0.46471   0.05219   0.71242   0.00000  Uiso   1.00
C249   C     0.44385   0.00017   0.67467   0.00000  Uiso   1.00
C250   C     0.47567   0.95260   0.71284   0.00000  Uiso   1.00
C251   C     0.41602   0.13781   0.78455   0.00000  Uiso   1.00
C252   C     0.35423   0.15775   0.80744   0.00000  Uiso   1.00
C253   C     0.34505   0.18225   0.90636   0.00000  Uiso   1.00
H254   H     0.56994   0.12096   0.87332   0.00000  Uiso   1.00
H255   H     0.64020   0.18163   0.74634   0.00000  Uiso   1.00
H256   H     0.58671   0.01245   0.88070   0.00000  Uiso   1.00
H257   H     0.49710   0.17000   0.01346   0.00000  Uiso   1.00
H258   H     0.69570   0.24695   0.57320   0.00000  Uiso   1.00
H259   H     0.58290   0.89021   0.85655   0.00000  Uiso   1.00
H260   H     0.39394   0.22245   0.13650   0.00000  Uiso   1.00
H261   H     0.39722   0.10614   0.62424   0.00000  Uiso   1.00
H262   H     0.45800   0.16600   0.48358   0.00000  Uiso   1.00
H263   H     0.40452   0.99681   0.61795   0.00000  Uiso   1.00
H264   H     0.31491   0.15437   0.75070   0.00000  Uiso   1.00
H265   H     0.54783   0.23426   0.35994   0.00000  Uiso   1.00
H266   H     0.43502   0.87752   0.64329   0.00000  Uiso   1.00
H267   H     0.24607   0.20976   0.92323   0.00000  Uiso   1.00
O268   O     0.66488   0.28023   0.37852   0.00000  Uiso   1.00
O269   O     0.51688   0.81220   0.75028   0.00000  Uiso   1.00
O270   O     0.26897   0.24809   0.11755   0.00000  Uiso   1.00
N271   N     0.65255   0.23576   0.54232   0.00000  Uiso   1.00
N272   N     0.54710   0.90223   0.80722   0.00000  Uiso   1.00
N273   N     0.37043   0.21283   0.06896   0.00000  Uiso   1.00
N274   N     0.57298   0.22893   0.42757   0.00000  Uiso   1.00
N275   N     0.46752   0.89540   0.69247   0.00000  Uiso   1.00
N276   N     0.29086   0.20600   0.95420   0.00000  Uiso   1.00
C277   C     0.53037   0.38243   0.68374   0.00000  Uiso   1.00
C278   C     0.54459   0.35152   0.78728   0.00000  Uiso   1.00
C279   C     0.60088   0.32173   0.81041   0.00000  Uiso   1.00
C280   C     0.60455   0.29643   0.90956   0.00000  Uiso   1.00
C281   C     0.63438   0.24779   0.05919   0.00000  Uiso   1.00
C282   C     0.51553   0.44344   0.71428   0.00000  Uiso   1.00
C283   C     0.54739   0.49094   0.67603   0.00000  Uiso   1.00
C284   C     0.52659   0.54303   0.71373   0.00000  Uiso   1.00
C285   C     0.51128   0.63711   0.74997   0.00000  Uiso   1.00
C286   C     0.46685   0.35783   0.64216   0.00000  Uiso   1.00
C287   C     0.45776   0.33337   0.54324   0.00000  Uiso   1.00
C288   C     0.39597   0.31338   0.52021   0.00000  Uiso   1.00
C289   C     0.30507   0.27454   0.44447   0.00000  Uiso   1.00
C290   C     0.43679   0.39046   0.81869   0.00000  Uiso   1.00
C291   C     0.49376   0.35588   0.86057   0.00000  Uiso   1.00
C292   C     0.49735   0.33062   0.95972   0.00000  Uiso   1.00
C293   C     0.55363   0.30080   0.98299   0.00000  Uiso   1.00
C294   C     0.46471   0.44781   0.78758   0.00000  Uiso   1.00
C295   C     0.44385   0.49983   0.82533   0.00000  Uiso   1.00
C296   C     0.47567   0.54740   0.78716   0.00000  Uiso   1.00
C297   C     0.41602   0.36219   0.71545   0.00000  Uiso   1.00
C298   C     0.35423   0.34225   0.69256   0.00000  Uiso   1.00
C299   C     0.34505   0.31775   0.59364   0.00000  Uiso   1.00
H300   H     0.56994   0.37904   0.62668   0.00000  Uiso   1.00
H301   H     0.64020   0.31837   0.75366   0.00000  Uiso   1.00
H302   H     0.58671   0.48755   0.61930   0.00000  Uiso   1.00
H303   H     0.49710   0.33000   0.48654   0.00000  Uiso   1.00
H304   H     0.69570   0.25305   0.92680   0.00000  Uiso   1.00
H305   H     0.58290   0.60979   0.64345   0.00000  Uiso   1.00
H306   H     0.39394   0.27755   0.36350   0.00000  Uiso   1.00
H307   H     0.39722   0.39386   0.87576   0.00000  Uiso   1.00
H308   H     0.45800   0.33400   0.01642   0.00000  Uiso   1.00
H309   H     0.40452   0.50319   0.88205   0.00000  Uiso   1.00
H310   H     0.31491   0.34563   0.74930   0.00000  Uiso   1.00
H311   H     0.54783   0.26574   0.14006   0.00000  Uiso   1.00
H312   H     0.43502   0.62248   0.85671   0.00000  Uiso   1.00
H313   H     0.24607   0.29024   0.57677   0.00000  Uiso   1.00
O314   O     0.66488   0.21977   0.12148   0.00000  Uiso   1.00
O315   O     0.51688   0.68780   0.74972   0.00000  Uiso   1.00
O316   O     0.26897   0.25191   0.38245   0.00000  Uiso   1.00
N317   N     0.65255   0.26424   0.95768   0.00000  Uiso   1.00
N318   N     0.54710   0.59777   0.69278   0.00000  Uiso   1.00
N319   N     0.37043   0.28717   0.43104   0.00000  Uiso   1.00
N320   N     0.57298   0.27107   0.07243   0.00000  Uiso   1.00
N321   N     0.46752   0.60460   0.80753   0.00000  Uiso   1.00
N322   N     0.29086   0.29400   0.54580   0.00000  Uiso   1.00
C323   C     0.96963   0.61757   0.68374   0.00000  Uiso   1.00
C324   C     0.95541   0.64848   0.78728   0.00000  Uiso   1.00
C325   C     0.89912   0.67827   0.81041   0.00000  Uiso   1.00
C326   C     0.89545   0.70357   0.90956   0.00000  Uiso   1.00
C327   C     0.86562   0.75221   0.05919   0.00000  Uiso   1.00
C328   C     0.98447   0.55656   0.71428   0.00000  Uiso   1.00
C329   C     0.95261   0.50906   0.67603   0.00000  Uiso   1.00
C330   C     0.97341   0.45697   0.71373   0.00000  Uiso   1.00
C331   C     0.98872   0.36289   0.74997   0.00000  Uiso   1.00
C332   C     0.03315   0.64217   0.64216   0.00000  Uiso   1.00
C333   C     0.04224   0.66663   0.54324   0.00000  Uiso   1.00
C334   C     0.10403   0.68662   0.52021   0.00000  Uiso   1.00
C335   C     0.19493   0.72546   0.44447   0.00000  Uiso   1.00
C336   C     0.06321   0.60954   0.81869   0.00000  Uiso   1.00
C337   C     0.00624   0.64412   0.86057   0.00000  Uiso   1.00
C338   C     0.00265   0.66938   0.95972   0.00000  Uiso   1.00
C339   C     0.94637   0.69920   0.98299   0.00000  Uiso   1.00
C340   C     0.03529   0.55219   0.78758   0.00000  Uiso   1.00
C341   C     0.05615   0.50017   0.82533   0.00000  Uiso   1.00
C342   C     0.02433   0.45260   0.78716   0.00000  Uiso   1.00
C343   C     0.08398   0.63781   0.71545   0.00000  Uiso   1.00
C344   C     0.14577   0.65775   0.69256   0.00000  Uiso   1.00
C345   C     0.15495   0.68225   0.59364   0.00000  Uiso   1.00
H346   H     0.93006   0.62096   0.62668   0.00000  Uiso   1.00
H347   H     0.85980   0.68163   0.75366   0.00000  Uiso   1.00
H348   H     0.91329   0.51245   0.61930   0.00000  Uiso   1.00
H349   H     0.00290   0.67000   0.48654   0.00000  Uiso   1.00
H350   H     0.80430   0.74695   0.92680   0.00000  Uiso   1.00
H351   H     0.91710   0.39021   0.64345   0.00000  Uiso   1.00
H352   H     0.10606   0.72245   0.36350   0.00000  Uiso   1.00
H353   H     0.10278   0.60614   0.87576   0.00000  Uiso   1.00
H354   H     0.04200   0.66600   0.01642   0.00000  Uiso   1.00
H355   H     0.09548   0.49681   0.88205   0.00000  Uiso   1.00
H356   H     0.18509   0.65437   0.74930   0.00000  Uiso   1.00
H357   H     0.95217   0.73426   0.14006   0.00000  Uiso   1.00
H358   H     0.06498   0.37752   0.85671   0.00000  Uiso   1.00
H359   H     0.25393   0.70976   0.57677   0.00000  Uiso   1.00
O360   O     0.83512   0.78023   0.12148   0.00000  Uiso   1.00
O361   O     0.98312   0.31220   0.74972   0.00000  Uiso   1.00
O362   O     0.23103   0.74809   0.38245   0.00000  Uiso   1.00
N363   N     0.84745   0.73576   0.95768   0.00000  Uiso   1.00
N364   N     0.95290   0.40223   0.69278   0.00000  Uiso   1.00
N365   N     0.12957   0.71283   0.43104   0.00000  Uiso   1.00
N366   N     0.92702   0.72893   0.07243   0.00000  Uiso   1.00
N367   N     0.03248   0.39540   0.80753   0.00000  Uiso   1.00
N368   N     0.20914   0.70600   0.54580   0.00000  Uiso   1.00
