data_job_05190
_audit_creation_date              2018-12-19
_audit_creation_method            'Materials Studio'
_symmetry_space_group_name_H-M    'P1'
_symmetry_Int_Tables_number       1
_symmetry_cell_setting            triclinic
loop_
_symmetry_equiv_pos_as_xyz
  x,y,z
_cell_length_a                    17.6169
_cell_length_b                    17.6169
_cell_length_c                    14.7694
_cell_angle_alpha                 90.0000
_cell_angle_beta                  90.0000
_cell_angle_gamma                 90.0000
loop_
_atom_site_label
_atom_site_type_symbol
_atom_site_fract_x
_atom_site_fract_y
_atom_site_fract_z
_atom_site_U_iso_or_equiv
_atom_site_adp_type
_atom_site_occupancy
C1     C     0.81475   0.63111   0.92255   0.00000  Uiso   1.00
C2     C     0.77141   0.69583   0.96761   0.00000  Uiso   1.00
C3     C     0.79679   0.77003   0.97647   0.00000  Uiso   1.00
C4     C     0.74872   0.82079   0.01986   0.00000  Uiso   1.00
C5     C     0.69223   0.92472   0.08479   0.00000  Uiso   1.00
C6     C     0.82071   0.56845   0.99343   0.00000  Uiso   1.00
C7     C     0.88755   0.53555   0.02398   0.00000  Uiso   1.00
C8     C     0.88099   0.47908   0.08909   0.00000  Uiso   1.00
C9     C     0.90104   0.38521   0.19406   0.00000  Uiso   1.00
C10    C     0.76269   0.60042   0.84864   0.00000  Uiso   1.00
C11    C     0.78074   0.59438   0.75746   0.00000  Uiso   1.00
C12    C     0.72532   0.56482   0.70067   0.00000  Uiso   1.00
C13    C     0.65527   0.52060   0.58084   0.00000  Uiso   1.00
C14    C     0.68424   0.58932   0.98385   0.00000  Uiso   1.00
C15    C     0.70052   0.67312   0.00090   0.00000  Uiso   1.00
C16    C     0.65240   0.72379   0.04428   0.00000  Uiso   1.00
C17    C     0.67771   0.79806   0.05320   0.00000  Uiso   1.00
C18    C     0.74983   0.54575   0.02672   0.00000  Uiso   1.00
C19    C     0.74316   0.48931   0.09179   0.00000  Uiso   1.00
C20    C     0.80997   0.45634   0.12245   0.00000  Uiso   1.00
C21    C     0.69180   0.57772   0.88193   0.00000  Uiso   1.00
C22    C     0.63634   0.54815   0.82528   0.00000  Uiso   1.00
C23    C     0.65431   0.54208   0.73403   0.00000  Uiso   1.00
H24    H     0.86994   0.64878   0.89664   0.00000  Uiso   1.00
H25    H     0.85166   0.78757   0.95070   0.00000  Uiso   1.00
H26    H     0.94240   0.55312   0.99820   0.00000  Uiso   1.00
H27    H     0.83560   0.61196   0.73172   0.00000  Uiso   1.00
H28    H     0.80014   0.93143   0.02536   0.00000  Uiso   1.00
H29    H     0.99148   0.43706   0.12548   0.00000  Uiso   1.00
H30    H     0.76627   0.56112   0.56356   0.00000  Uiso   1.00
H31    H     0.62905   0.57165   0.00977   0.00000  Uiso   1.00
H32    H     0.59755   0.70621   0.07004   0.00000  Uiso   1.00
H33    H     0.68830   0.47176   0.11754   0.00000  Uiso   1.00
H34    H     0.58149   0.53059   0.85106   0.00000  Uiso   1.00
H35    H     0.59390   0.86539   0.12222   0.00000  Uiso   1.00
H36    H     0.78524   0.37102   0.22234   0.00000  Uiso   1.00
H37    H     0.56003   0.49508   0.66042   0.00000  Uiso   1.00
O38    O     0.68065   0.98831   0.11142   0.00000  Uiso   1.00
O39    O     0.93169   0.33971   0.24277   0.00000  Uiso   1.00
O40    O     0.63622   0.50248   0.50554   0.00000  Uiso   1.00
N41    N     0.75592   0.89742   0.03986   0.00000  Uiso   1.00
N42    N     0.93481   0.43523   0.13349   0.00000  Uiso   1.00
N43    N     0.72427   0.55120   0.60814   0.00000  Uiso   1.00
N44    N     0.64494   0.86189   0.09198   0.00000  Uiso   1.00
N45    N     0.82383   0.39969   0.18561   0.00000  Uiso   1.00
N46    N     0.61329   0.51566   0.66026   0.00000  Uiso   1.00
C47    C     0.18525   0.36889   0.92255   0.00000  Uiso   1.00
C48    C     0.22859   0.30417   0.96761   0.00000  Uiso   1.00
C49    C     0.20321   0.22997   0.97647   0.00000  Uiso   1.00
C50    C     0.25128   0.17921   0.01986   0.00000  Uiso   1.00
C51    C     0.30777   0.07528   0.08479   0.00000  Uiso   1.00
C52    C     0.17929   0.43155   0.99343   0.00000  Uiso   1.00
C53    C     0.11245   0.46445   0.02398   0.00000  Uiso   1.00
C54    C     0.11901   0.52092   0.08909   0.00000  Uiso   1.00
C55    C     0.09896   0.61479   0.19406   0.00000  Uiso   1.00
C56    C     0.23731   0.39958   0.84864   0.00000  Uiso   1.00
C57    C     0.21926   0.40562   0.75746   0.00000  Uiso   1.00
C58    C     0.27468   0.43518   0.70067   0.00000  Uiso   1.00
C59    C     0.34473   0.47940   0.58084   0.00000  Uiso   1.00
C60    C     0.31576   0.41068   0.98385   0.00000  Uiso   1.00
C61    C     0.29948   0.32688   0.00090   0.00000  Uiso   1.00
C62    C     0.34760   0.27621   0.04428   0.00000  Uiso   1.00
C63    C     0.32229   0.20194   0.05320   0.00000  Uiso   1.00
C64    C     0.25017   0.45425   0.02672   0.00000  Uiso   1.00
C65    C     0.25684   0.51069   0.09179   0.00000  Uiso   1.00
C66    C     0.19003   0.54366   0.12245   0.00000  Uiso   1.00
C67    C     0.30820   0.42228   0.88193   0.00000  Uiso   1.00
C68    C     0.36366   0.45185   0.82528   0.00000  Uiso   1.00
C69    C     0.34569   0.45792   0.73403   0.00000  Uiso   1.00
H70    H     0.13006   0.35122   0.89664   0.00000  Uiso   1.00
H71    H     0.14834   0.21243   0.95070   0.00000  Uiso   1.00
H72    H     0.05760   0.44688   0.99820   0.00000  Uiso   1.00
H73    H     0.16440   0.38804   0.73172   0.00000  Uiso   1.00
H74    H     0.19986   0.06857   0.02536   0.00000  Uiso   1.00
H75    H     0.00852   0.56294   0.12548   0.00000  Uiso   1.00
H76    H     0.23373   0.43888   0.56356   0.00000  Uiso   1.00
H77    H     0.37095   0.42835   0.00977   0.00000  Uiso   1.00
H78    H     0.40245   0.29379   0.07004   0.00000  Uiso   1.00
H79    H     0.31170   0.52824   0.11754   0.00000  Uiso   1.00
H80    H     0.41851   0.46941   0.85106   0.00000  Uiso   1.00
H81    H     0.40610   0.13461   0.12222   0.00000  Uiso   1.00
H82    H     0.21476   0.62898   0.22234   0.00000  Uiso   1.00
H83    H     0.43997   0.50492   0.66042   0.00000  Uiso   1.00
O84    O     0.31935   0.01169   0.11142   0.00000  Uiso   1.00
O85    O     0.06831   0.66029   0.24277   0.00000  Uiso   1.00
O86    O     0.36378   0.49752   0.50554   0.00000  Uiso   1.00
N87    N     0.24408   0.10258   0.03986   0.00000  Uiso   1.00
N88    N     0.06519   0.56477   0.13349   0.00000  Uiso   1.00
N89    N     0.27573   0.44880   0.60814   0.00000  Uiso   1.00
N90    N     0.35506   0.13811   0.09198   0.00000  Uiso   1.00
N91    N     0.17617   0.60031   0.18561   0.00000  Uiso   1.00
N92    N     0.38671   0.48434   0.66026   0.00000  Uiso   1.00
C93    C     0.63111   0.18525   0.07745   0.00000  Uiso   1.00
C94    C     0.69583   0.22859   0.03239   0.00000  Uiso   1.00
C95    C     0.77003   0.20321   0.02353   0.00000  Uiso   1.00
C96    C     0.82079   0.25128   0.98014   0.00000  Uiso   1.00
C97    C     0.92472   0.30777   0.91521   0.00000  Uiso   1.00
C98    C     0.56845   0.17929   0.00657   0.00000  Uiso   1.00
C99    C     0.53555   0.11245   0.97602   0.00000  Uiso   1.00
C100   C     0.47908   0.11901   0.91091   0.00000  Uiso   1.00
C101   C     0.38521   0.09896   0.80594   0.00000  Uiso   1.00
C102   C     0.60042   0.23731   0.15136   0.00000  Uiso   1.00
C103   C     0.59438   0.21926   0.24254   0.00000  Uiso   1.00
C104   C     0.56482   0.27468   0.29933   0.00000  Uiso   1.00
C105   C     0.52060   0.34473   0.41916   0.00000  Uiso   1.00
C106   C     0.58932   0.31576   0.01615   0.00000  Uiso   1.00
C107   C     0.67312   0.29948   0.99910   0.00000  Uiso   1.00
C108   C     0.72379   0.34760   0.95572   0.00000  Uiso   1.00
C109   C     0.79806   0.32229   0.94680   0.00000  Uiso   1.00
C110   C     0.54575   0.25017   0.97328   0.00000  Uiso   1.00
C111   C     0.48931   0.25684   0.90821   0.00000  Uiso   1.00
C112   C     0.45634   0.19003   0.87755   0.00000  Uiso   1.00
C113   C     0.57772   0.30820   0.11807   0.00000  Uiso   1.00
C114   C     0.54815   0.36366   0.17472   0.00000  Uiso   1.00
C115   C     0.54208   0.34569   0.26597   0.00000  Uiso   1.00
H116   H     0.64878   0.13006   0.10336   0.00000  Uiso   1.00
H117   H     0.78757   0.14834   0.04930   0.00000  Uiso   1.00
H118   H     0.55312   0.05760   0.00180   0.00000  Uiso   1.00
H119   H     0.61196   0.16440   0.26828   0.00000  Uiso   1.00
H120   H     0.93143   0.19986   0.97464   0.00000  Uiso   1.00
H121   H     0.43706   0.00852   0.87452   0.00000  Uiso   1.00
H122   H     0.56112   0.23373   0.43644   0.00000  Uiso   1.00
H123   H     0.57165   0.37095   0.99023   0.00000  Uiso   1.00
H124   H     0.70621   0.40245   0.92996   0.00000  Uiso   1.00
H125   H     0.47176   0.31170   0.88246   0.00000  Uiso   1.00
H126   H     0.53059   0.41851   0.14894   0.00000  Uiso   1.00
H127   H     0.86539   0.40610   0.87778   0.00000  Uiso   1.00
H128   H     0.37102   0.21476   0.77766   0.00000  Uiso   1.00
H129   H     0.49508   0.43997   0.33958   0.00000  Uiso   1.00
O130   O     0.98831   0.31935   0.88858   0.00000  Uiso   1.00
O131   O     0.33971   0.06831   0.75723   0.00000  Uiso   1.00
O132   O     0.50248   0.36378   0.49446   0.00000  Uiso   1.00
N133   N     0.89742   0.24408   0.96014   0.00000  Uiso   1.00
N134   N     0.43523   0.06519   0.86651   0.00000  Uiso   1.00
N135   N     0.55120   0.27573   0.39186   0.00000  Uiso   1.00
N136   N     0.86189   0.35506   0.90802   0.00000  Uiso   1.00
N137   N     0.39969   0.17617   0.81439   0.00000  Uiso   1.00
N138   N     0.51566   0.38671   0.33974   0.00000  Uiso   1.00
C139   C     0.36889   0.81475   0.07745   0.00000  Uiso   1.00
C140   C     0.30417   0.77141   0.03239   0.00000  Uiso   1.00
C141   C     0.22997   0.79679   0.02353   0.00000  Uiso   1.00
C142   C     0.17921   0.74872   0.98014   0.00000  Uiso   1.00
C143   C     0.07528   0.69223   0.91521   0.00000  Uiso   1.00
C144   C     0.43155   0.82071   0.00657   0.00000  Uiso   1.00
C145   C     0.46445   0.88755   0.97602   0.00000  Uiso   1.00
C146   C     0.52092   0.88099   0.91091   0.00000  Uiso   1.00
C147   C     0.61479   0.90104   0.80594   0.00000  Uiso   1.00
C148   C     0.39958   0.76269   0.15136   0.00000  Uiso   1.00
C149   C     0.40562   0.78074   0.24254   0.00000  Uiso   1.00
C150   C     0.43518   0.72532   0.29933   0.00000  Uiso   1.00
C151   C     0.47940   0.65527   0.41916   0.00000  Uiso   1.00
C152   C     0.41068   0.68424   0.01615   0.00000  Uiso   1.00
C153   C     0.32688   0.70052   0.99910   0.00000  Uiso   1.00
C154   C     0.27621   0.65240   0.95572   0.00000  Uiso   1.00
C155   C     0.20194   0.67771   0.94680   0.00000  Uiso   1.00
C156   C     0.45425   0.74983   0.97328   0.00000  Uiso   1.00
C157   C     0.51069   0.74316   0.90821   0.00000  Uiso   1.00
C158   C     0.54366   0.80997   0.87755   0.00000  Uiso   1.00
C159   C     0.42228   0.69180   0.11807   0.00000  Uiso   1.00
C160   C     0.45185   0.63634   0.17472   0.00000  Uiso   1.00
C161   C     0.45792   0.65431   0.26597   0.00000  Uiso   1.00
H162   H     0.35122   0.86994   0.10336   0.00000  Uiso   1.00
H163   H     0.21243   0.85166   0.04930   0.00000  Uiso   1.00
H164   H     0.44688   0.94240   0.00180   0.00000  Uiso   1.00
H165   H     0.38804   0.83560   0.26828   0.00000  Uiso   1.00
H166   H     0.06857   0.80014   0.97464   0.00000  Uiso   1.00
H167   H     0.56294   0.99148   0.87452   0.00000  Uiso   1.00
H168   H     0.43888   0.76627   0.43644   0.00000  Uiso   1.00
H169   H     0.42835   0.62905   0.99023   0.00000  Uiso   1.00
H170   H     0.29379   0.59755   0.92996   0.00000  Uiso   1.00
H171   H     0.52824   0.68830   0.88246   0.00000  Uiso   1.00
H172   H     0.46941   0.58149   0.14894   0.00000  Uiso   1.00
H173   H     0.13461   0.59390   0.87778   0.00000  Uiso   1.00
H174   H     0.62898   0.78524   0.77766   0.00000  Uiso   1.00
H175   H     0.50492   0.56003   0.33958   0.00000  Uiso   1.00
O176   O     0.01169   0.68065   0.88858   0.00000  Uiso   1.00
O177   O     0.66029   0.93169   0.75723   0.00000  Uiso   1.00
O178   O     0.49752   0.63622   0.49446   0.00000  Uiso   1.00
N179   N     0.10258   0.75592   0.96014   0.00000  Uiso   1.00
N180   N     0.56477   0.93481   0.86651   0.00000  Uiso   1.00
N181   N     0.44880   0.72427   0.39186   0.00000  Uiso   1.00
N182   N     0.13811   0.64494   0.90802   0.00000  Uiso   1.00
N183   N     0.60031   0.82383   0.81439   0.00000  Uiso   1.00
N184   N     0.48434   0.61329   0.33974   0.00000  Uiso   1.00
C185   C     0.68525   0.13111   0.57745   0.00000  Uiso   1.00
C186   C     0.72859   0.19583   0.53239   0.00000  Uiso   1.00
C187   C     0.70321   0.27003   0.52353   0.00000  Uiso   1.00
C188   C     0.75128   0.32079   0.48014   0.00000  Uiso   1.00
C189   C     0.80777   0.42472   0.41521   0.00000  Uiso   1.00
C190   C     0.67929   0.06845   0.50657   0.00000  Uiso   1.00
C191   C     0.61245   0.03555   0.47602   0.00000  Uiso   1.00
C192   C     0.61901   0.97908   0.41091   0.00000  Uiso   1.00
C193   C     0.59896   0.88521   0.30594   0.00000  Uiso   1.00
C194   C     0.73731   0.10042   0.65136   0.00000  Uiso   1.00
C195   C     0.71926   0.09438   0.74254   0.00000  Uiso   1.00
C196   C     0.77468   0.06482   0.79933   0.00000  Uiso   1.00
C197   C     0.84473   0.02060   0.91916   0.00000  Uiso   1.00
C198   C     0.81576   0.08932   0.51615   0.00000  Uiso   1.00
C199   C     0.79948   0.17312   0.49910   0.00000  Uiso   1.00
C200   C     0.84760   0.22379   0.45572   0.00000  Uiso   1.00
C201   C     0.82229   0.29806   0.44680   0.00000  Uiso   1.00
C202   C     0.75017   0.04575   0.47328   0.00000  Uiso   1.00
C203   C     0.75684   0.98931   0.40821   0.00000  Uiso   1.00
C204   C     0.69003   0.95634   0.37755   0.00000  Uiso   1.00
C205   C     0.80820   0.07772   0.61807   0.00000  Uiso   1.00
C206   C     0.86366   0.04815   0.67472   0.00000  Uiso   1.00
C207   C     0.84569   0.04208   0.76597   0.00000  Uiso   1.00
H208   H     0.63006   0.14878   0.60336   0.00000  Uiso   1.00
H209   H     0.64834   0.28757   0.54930   0.00000  Uiso   1.00
H210   H     0.55760   0.05312   0.50180   0.00000  Uiso   1.00
H211   H     0.66440   0.11196   0.76828   0.00000  Uiso   1.00
H212   H     0.69986   0.43143   0.47464   0.00000  Uiso   1.00
H213   H     0.50852   0.93706   0.37452   0.00000  Uiso   1.00
H214   H     0.73373   0.06112   0.93644   0.00000  Uiso   1.00
H215   H     0.87095   0.07165   0.49023   0.00000  Uiso   1.00
H216   H     0.90245   0.20621   0.42996   0.00000  Uiso   1.00
H217   H     0.81170   0.97176   0.38246   0.00000  Uiso   1.00
H218   H     0.91851   0.03059   0.64894   0.00000  Uiso   1.00
H219   H     0.90610   0.36539   0.37778   0.00000  Uiso   1.00
H220   H     0.71476   0.87102   0.27766   0.00000  Uiso   1.00
H221   H     0.93997   0.99508   0.83958   0.00000  Uiso   1.00
O222   O     0.81935   0.48831   0.38858   0.00000  Uiso   1.00
O223   O     0.56831   0.83971   0.25723   0.00000  Uiso   1.00
O224   O     0.86378   0.00248   0.99446   0.00000  Uiso   1.00
N225   N     0.74408   0.39742   0.46014   0.00000  Uiso   1.00
N226   N     0.56519   0.93523   0.36651   0.00000  Uiso   1.00
N227   N     0.77573   0.05120   0.89186   0.00000  Uiso   1.00
N228   N     0.85506   0.36189   0.40802   0.00000  Uiso   1.00
N229   N     0.67617   0.89969   0.31439   0.00000  Uiso   1.00
N230   N     0.88671   0.01566   0.83974   0.00000  Uiso   1.00
C231   C     0.31475   0.86889   0.57745   0.00000  Uiso   1.00
C232   C     0.27141   0.80417   0.53239   0.00000  Uiso   1.00
C233   C     0.29679   0.72997   0.52353   0.00000  Uiso   1.00
C234   C     0.24872   0.67921   0.48014   0.00000  Uiso   1.00
C235   C     0.19223   0.57528   0.41521   0.00000  Uiso   1.00
C236   C     0.32071   0.93155   0.50657   0.00000  Uiso   1.00
C237   C     0.38755   0.96445   0.47602   0.00000  Uiso   1.00
C238   C     0.38099   0.02092   0.41091   0.00000  Uiso   1.00
C239   C     0.40104   0.11479   0.30594   0.00000  Uiso   1.00
C240   C     0.26269   0.89958   0.65136   0.00000  Uiso   1.00
C241   C     0.28074   0.90562   0.74254   0.00000  Uiso   1.00
C242   C     0.22532   0.93518   0.79933   0.00000  Uiso   1.00
C243   C     0.15527   0.97940   0.91916   0.00000  Uiso   1.00
C244   C     0.18424   0.91068   0.51615   0.00000  Uiso   1.00
C245   C     0.20052   0.82688   0.49910   0.00000  Uiso   1.00
C246   C     0.15240   0.77621   0.45572   0.00000  Uiso   1.00
C247   C     0.17771   0.70194   0.44680   0.00000  Uiso   1.00
C248   C     0.24983   0.95425   0.47328   0.00000  Uiso   1.00
C249   C     0.24316   0.01069   0.40821   0.00000  Uiso   1.00
C250   C     0.30997   0.04366   0.37755   0.00000  Uiso   1.00
C251   C     0.19180   0.92228   0.61807   0.00000  Uiso   1.00
C252   C     0.13634   0.95185   0.67472   0.00000  Uiso   1.00
C253   C     0.15431   0.95792   0.76597   0.00000  Uiso   1.00
H254   H     0.36994   0.85122   0.60336   0.00000  Uiso   1.00
H255   H     0.35166   0.71243   0.54930   0.00000  Uiso   1.00
H256   H     0.44240   0.94688   0.50180   0.00000  Uiso   1.00
H257   H     0.33560   0.88804   0.76828   0.00000  Uiso   1.00
H258   H     0.30014   0.56857   0.47464   0.00000  Uiso   1.00
H259   H     0.49148   0.06294   0.37452   0.00000  Uiso   1.00
H260   H     0.26627   0.93888   0.93644   0.00000  Uiso   1.00
H261   H     0.12905   0.92835   0.49023   0.00000  Uiso   1.00
H262   H     0.09755   0.79379   0.42996   0.00000  Uiso   1.00
H263   H     0.18830   0.02824   0.38246   0.00000  Uiso   1.00
H264   H     0.08149   0.96941   0.64894   0.00000  Uiso   1.00
H265   H     0.09390   0.63461   0.37778   0.00000  Uiso   1.00
H266   H     0.28524   0.12898   0.27766   0.00000  Uiso   1.00
H267   H     0.06003   0.00492   0.83958   0.00000  Uiso   1.00
O268   O     0.18065   0.51169   0.38858   0.00000  Uiso   1.00
O269   O     0.43169   0.16029   0.25723   0.00000  Uiso   1.00
O270   O     0.13622   0.99752   0.99446   0.00000  Uiso   1.00
N271   N     0.25592   0.60258   0.46014   0.00000  Uiso   1.00
N272   N     0.43481   0.06477   0.36651   0.00000  Uiso   1.00
N273   N     0.22427   0.94880   0.89186   0.00000  Uiso   1.00
N274   N     0.14494   0.63811   0.40802   0.00000  Uiso   1.00
N275   N     0.32383   0.10031   0.31439   0.00000  Uiso   1.00
N276   N     0.11329   0.98434   0.83974   0.00000  Uiso   1.00
C277   C     0.86889   0.68525   0.42255   0.00000  Uiso   1.00
C278   C     0.80417   0.72859   0.46761   0.00000  Uiso   1.00
C279   C     0.72997   0.70321   0.47647   0.00000  Uiso   1.00
C280   C     0.67921   0.75128   0.51986   0.00000  Uiso   1.00
C281   C     0.57528   0.80777   0.58479   0.00000  Uiso   1.00
C282   C     0.93155   0.67929   0.49343   0.00000  Uiso   1.00
C283   C     0.96445   0.61245   0.52398   0.00000  Uiso   1.00
C284   C     0.02092   0.61901   0.58909   0.00000  Uiso   1.00
C285   C     0.11479   0.59896   0.69406   0.00000  Uiso   1.00
C286   C     0.89958   0.73731   0.34864   0.00000  Uiso   1.00
C287   C     0.90562   0.71926   0.25746   0.00000  Uiso   1.00
C288   C     0.93518   0.77468   0.20067   0.00000  Uiso   1.00
C289   C     0.97940   0.84473   0.08084   0.00000  Uiso   1.00
C290   C     0.91068   0.81576   0.48385   0.00000  Uiso   1.00
C291   C     0.82688   0.79948   0.50090   0.00000  Uiso   1.00
C292   C     0.77621   0.84760   0.54428   0.00000  Uiso   1.00
C293   C     0.70194   0.82229   0.55320   0.00000  Uiso   1.00
C294   C     0.95425   0.75017   0.52672   0.00000  Uiso   1.00
C295   C     0.01069   0.75684   0.59179   0.00000  Uiso   1.00
C296   C     0.04366   0.69003   0.62245   0.00000  Uiso   1.00
C297   C     0.92228   0.80820   0.38193   0.00000  Uiso   1.00
C298   C     0.95185   0.86366   0.32528   0.00000  Uiso   1.00
C299   C     0.95792   0.84569   0.23403   0.00000  Uiso   1.00
H300   H     0.85122   0.63006   0.39664   0.00000  Uiso   1.00
H301   H     0.71243   0.64834   0.45070   0.00000  Uiso   1.00
H302   H     0.94688   0.55760   0.49820   0.00000  Uiso   1.00
H303   H     0.88804   0.66440   0.23172   0.00000  Uiso   1.00
H304   H     0.56857   0.69986   0.52536   0.00000  Uiso   1.00
H305   H     0.06294   0.50852   0.62548   0.00000  Uiso   1.00
H306   H     0.93888   0.73373   0.06356   0.00000  Uiso   1.00
H307   H     0.92835   0.87095   0.50977   0.00000  Uiso   1.00
H308   H     0.79379   0.90245   0.57004   0.00000  Uiso   1.00
H309   H     0.02824   0.81170   0.61754   0.00000  Uiso   1.00
H310   H     0.96941   0.91851   0.35106   0.00000  Uiso   1.00
H311   H     0.63461   0.90610   0.62222   0.00000  Uiso   1.00
H312   H     0.12898   0.71476   0.72234   0.00000  Uiso   1.00
H313   H     0.00492   0.93997   0.16042   0.00000  Uiso   1.00
O314   O     0.51169   0.81935   0.61142   0.00000  Uiso   1.00
O315   O     0.16029   0.56831   0.74277   0.00000  Uiso   1.00
O316   O     0.99752   0.86378   0.00554   0.00000  Uiso   1.00
N317   N     0.60258   0.74408   0.53986   0.00000  Uiso   1.00
N318   N     0.06477   0.56519   0.63349   0.00000  Uiso   1.00
N319   N     0.94880   0.77573   0.10814   0.00000  Uiso   1.00
N320   N     0.63811   0.85506   0.59198   0.00000  Uiso   1.00
N321   N     0.10031   0.67617   0.68561   0.00000  Uiso   1.00
N322   N     0.98434   0.88671   0.16026   0.00000  Uiso   1.00
C323   C     0.13111   0.31475   0.42255   0.00000  Uiso   1.00
C324   C     0.19583   0.27141   0.46761   0.00000  Uiso   1.00
C325   C     0.27003   0.29679   0.47647   0.00000  Uiso   1.00
C326   C     0.32079   0.24872   0.51986   0.00000  Uiso   1.00
C327   C     0.42472   0.19223   0.58479   0.00000  Uiso   1.00
C328   C     0.06845   0.32071   0.49343   0.00000  Uiso   1.00
C329   C     0.03555   0.38755   0.52398   0.00000  Uiso   1.00
C330   C     0.97908   0.38099   0.58909   0.00000  Uiso   1.00
C331   C     0.88521   0.40104   0.69406   0.00000  Uiso   1.00
C332   C     0.10042   0.26269   0.34864   0.00000  Uiso   1.00
C333   C     0.09438   0.28074   0.25746   0.00000  Uiso   1.00
C334   C     0.06482   0.22532   0.20067   0.00000  Uiso   1.00
C335   C     0.02060   0.15527   0.08084   0.00000  Uiso   1.00
C336   C     0.08932   0.18424   0.48385   0.00000  Uiso   1.00
C337   C     0.17312   0.20052   0.50090   0.00000  Uiso   1.00
C338   C     0.22379   0.15240   0.54428   0.00000  Uiso   1.00
C339   C     0.29806   0.17771   0.55320   0.00000  Uiso   1.00
C340   C     0.04575   0.24983   0.52672   0.00000  Uiso   1.00
C341   C     0.98931   0.24316   0.59179   0.00000  Uiso   1.00
C342   C     0.95634   0.30997   0.62245   0.00000  Uiso   1.00
C343   C     0.07772   0.19180   0.38193   0.00000  Uiso   1.00
C344   C     0.04815   0.13634   0.32528   0.00000  Uiso   1.00
C345   C     0.04208   0.15431   0.23403   0.00000  Uiso   1.00
H346   H     0.14878   0.36994   0.39664   0.00000  Uiso   1.00
H347   H     0.28757   0.35166   0.45070   0.00000  Uiso   1.00
H348   H     0.05312   0.44240   0.49820   0.00000  Uiso   1.00
H349   H     0.11196   0.33560   0.23172   0.00000  Uiso   1.00
H350   H     0.43143   0.30014   0.52536   0.00000  Uiso   1.00
H351   H     0.93706   0.49148   0.62548   0.00000  Uiso   1.00
H352   H     0.06112   0.26627   0.06356   0.00000  Uiso   1.00
H353   H     0.07165   0.12905   0.50977   0.00000  Uiso   1.00
H354   H     0.20621   0.09755   0.57004   0.00000  Uiso   1.00
H355   H     0.97176   0.18830   0.61754   0.00000  Uiso   1.00
H356   H     0.03059   0.08149   0.35106   0.00000  Uiso   1.00
H357   H     0.36539   0.09390   0.62222   0.00000  Uiso   1.00
H358   H     0.87102   0.28524   0.72234   0.00000  Uiso   1.00
H359   H     0.99508   0.06003   0.16042   0.00000  Uiso   1.00
O360   O     0.48831   0.18065   0.61142   0.00000  Uiso   1.00
O361   O     0.83971   0.43169   0.74277   0.00000  Uiso   1.00
O362   O     0.00248   0.13622   0.00554   0.00000  Uiso   1.00
N363   N     0.39742   0.25592   0.53986   0.00000  Uiso   1.00
N364   N     0.93523   0.43481   0.63349   0.00000  Uiso   1.00
N365   N     0.05120   0.22427   0.10814   0.00000  Uiso   1.00
N366   N     0.36189   0.14494   0.59198   0.00000  Uiso   1.00
N367   N     0.89969   0.32383   0.68561   0.00000  Uiso   1.00
N368   N     0.01566   0.11329   0.16026   0.00000  Uiso   1.00
