data_job_03327
_audit_creation_date              2018-12-19
_audit_creation_method            'Materials Studio'
_symmetry_space_group_name_H-M    'P1'
_symmetry_Int_Tables_number       1
_symmetry_cell_setting            triclinic
loop_
_symmetry_equiv_pos_as_xyz
  x,y,z
_cell_length_a                    19.9412
_cell_length_b                    19.9412
_cell_length_c                    15.8958
_cell_angle_alpha                 90.0000
_cell_angle_beta                  90.0000
_cell_angle_gamma                 120.0000
loop_
_atom_site_label
_atom_site_type_symbol
_atom_site_fract_x
_atom_site_fract_y
_atom_site_fract_z
_atom_site_U_iso_or_equiv
_atom_site_adp_type
_atom_site_occupancy
C1     C     0.74633   0.31128   0.64906   0.00000  Uiso   1.00
C2     C     0.70958   0.23605   0.59884   0.00000  Uiso   1.00
C3     C     0.64533   0.16683   0.62303   0.00000  Uiso   1.00
C4     C     0.62064   0.10461   0.56831   0.00000  Uiso   1.00
C5     C     0.55778   0.98675   0.50194   0.00000  Uiso   1.00
C6     C     0.83097   0.33409   0.66131   0.00000  Uiso   1.00
C7     C     0.86878   0.34732   0.73802   0.00000  Uiso   1.00
C8     C     0.94629   0.36764   0.73589   0.00000  Uiso   1.00
C9     C     0.07189   0.40205   0.76650   0.00000  Uiso   1.00
C10    C     0.74672   0.37232   0.59096   0.00000  Uiso   1.00
C11    C     0.71371   0.41770   0.60852   0.00000  Uiso   1.00
C12    C     0.72029   0.47022   0.54716   0.00000  Uiso   1.00
C13    C     0.71509   0.56398   0.46854   0.00000  Uiso   1.00
C14    C     0.81674   0.32386   0.50887   0.00000  Uiso   1.00
C15    C     0.74782   0.24288   0.52270   0.00000  Uiso   1.00
C16    C     0.72323   0.18075   0.46793   0.00000  Uiso   1.00
C17    C     0.65895   0.11145   0.49203   0.00000  Uiso   1.00
C18    C     0.86921   0.34092   0.58517   0.00000  Uiso   1.00
C19    C     0.94668   0.36123   0.58292   0.00000  Uiso   1.00
C20    C     0.98460   0.37449   0.65961   0.00000  Uiso   1.00
C21    C     0.78496   0.37915   0.51481   0.00000  Uiso   1.00
C22    C     0.79160   0.43161   0.45342   0.00000  Uiso   1.00
C23    C     0.75861   0.47707   0.47088   0.00000  Uiso   1.00
H24    H     0.71657   0.30596   0.70834   0.00000  Uiso   1.00
H25    H     0.61575   0.16157   0.68196   0.00000  Uiso   1.00
H26    H     0.83917   0.34204   0.79694   0.00000  Uiso   1.00
H27    H     0.68412   0.41240   0.66745   0.00000  Uiso   1.00
H28    H     0.52087   0.00449   0.61915   0.00000  Uiso   1.00
H29    H     0.99197   0.38504   0.86158   0.00000  Uiso   1.00
H30    H     0.66501   0.53342   0.58854   0.00000  Uiso   1.00
H31    H     0.84652   0.32918   0.44959   0.00000  Uiso   1.00
H32    H     0.75283   0.18605   0.40901   0.00000  Uiso   1.00
H33    H     0.97626   0.36652   0.52399   0.00000  Uiso   1.00
H34    H     0.82120   0.43688   0.39450   0.00000  Uiso   1.00
H35    H     0.63213   0.02436   0.39762   0.00000  Uiso   1.00
H36    H     0.10323   0.40491   0.64004   0.00000  Uiso   1.00
H37    H     0.77627   0.55329   0.36700   0.00000  Uiso   1.00
O38    O     0.51254   0.91984   0.48637   0.00000  Uiso   1.00
O39    O     0.13061   0.41912   0.80443   0.00000  Uiso   1.00
O40    O     0.70164   0.61380   0.44620   0.00000  Uiso   1.00
N41    N     0.55990   0.02881   0.57257   0.00000  Uiso   1.00
N42    N     0.00035   0.38459   0.79923   0.00000  Uiso   1.00
N43    N     0.69468   0.52333   0.54397   0.00000  Uiso   1.00
N44    N     0.61977   0.03950   0.45337   0.00000  Uiso   1.00
N45    N     0.06022   0.39528   0.68002   0.00000  Uiso   1.00
N46    N     0.75455   0.53402   0.42476   0.00000  Uiso   1.00
C47    C     0.68872   0.43506   0.98239   0.00000  Uiso   1.00
C48    C     0.76395   0.47353   0.93218   0.00000  Uiso   1.00
C49    C     0.83317   0.47850   0.95636   0.00000  Uiso   1.00
C50    C     0.89539   0.51603   0.90164   0.00000  Uiso   1.00
C51    C     0.01325   0.57103   0.83527   0.00000  Uiso   1.00
C52    C     0.66591   0.49688   0.99465   0.00000  Uiso   1.00
C53    C     0.65268   0.52146   0.07136   0.00000  Uiso   1.00
C54    C     0.63236   0.57865   0.06922   0.00000  Uiso   1.00
C55    C     0.59795   0.66985   0.09983   0.00000  Uiso   1.00
C56    C     0.62768   0.37440   0.92429   0.00000  Uiso   1.00
C57    C     0.58230   0.29600   0.94185   0.00000  Uiso   1.00
C58    C     0.52978   0.25007   0.88049   0.00000  Uiso   1.00
C59    C     0.43602   0.15111   0.80187   0.00000  Uiso   1.00
C60    C     0.67614   0.49289   0.84221   0.00000  Uiso   1.00
C61    C     0.75712   0.50494   0.85603   0.00000  Uiso   1.00
C62    C     0.81925   0.54248   0.80126   0.00000  Uiso   1.00
C63    C     0.88855   0.54750   0.82536   0.00000  Uiso   1.00
C64    C     0.65908   0.52829   0.91851   0.00000  Uiso   1.00
C65    C     0.63877   0.58545   0.91626   0.00000  Uiso   1.00
C66    C     0.62551   0.61012   0.99294   0.00000  Uiso   1.00
C67    C     0.62085   0.40581   0.84815   0.00000  Uiso   1.00
C68    C     0.56839   0.35999   0.78675   0.00000  Uiso   1.00
C69    C     0.52293   0.28154   0.80421   0.00000  Uiso   1.00
H70    H     0.69404   0.41060   0.04167   0.00000  Uiso   1.00
H71    H     0.83843   0.45419   0.01530   0.00000  Uiso   1.00
H72    H     0.65796   0.49714   0.13027   0.00000  Uiso   1.00
H73    H     0.58760   0.27172   0.00078   0.00000  Uiso   1.00
H74    H     0.99551   0.51638   0.95249   0.00000  Uiso   1.00
H75    H     0.61496   0.60693   0.19491   0.00000  Uiso   1.00
H76    H     0.46658   0.13159   0.92187   0.00000  Uiso   1.00
H77    H     0.67082   0.51734   0.78292   0.00000  Uiso   1.00
H78    H     0.81395   0.56678   0.74234   0.00000  Uiso   1.00
H79    H     0.63348   0.60974   0.85732   0.00000  Uiso   1.00
H80    H     0.56312   0.38432   0.72784   0.00000  Uiso   1.00
H81    H     0.97564   0.60777   0.73095   0.00000  Uiso   1.00
H82    H     0.59509   0.69832   0.97338   0.00000  Uiso   1.00
H83    H     0.44671   0.22298   0.70033   0.00000  Uiso   1.00
O84    O     0.08016   0.59270   0.81970   0.00000  Uiso   1.00
O85    O     0.58088   0.71148   0.13776   0.00000  Uiso   1.00
O86    O     0.38620   0.08784   0.77953   0.00000  Uiso   1.00
N87    N     0.97119   0.53109   0.90591   0.00000  Uiso   1.00
N88    N     0.61541   0.61576   0.13256   0.00000  Uiso   1.00
N89    N     0.47667   0.17136   0.87730   0.00000  Uiso   1.00
N90    N     0.96050   0.58027   0.78670   0.00000  Uiso   1.00
N91    N     0.60472   0.66494   0.01336   0.00000  Uiso   1.00
N92    N     0.46598   0.22053   0.75809   0.00000  Uiso   1.00
C93    C     0.56494   0.25367   0.31573   0.00000  Uiso   1.00
C94    C     0.52647   0.29042   0.26551   0.00000  Uiso   1.00
C95    C     0.52150   0.35467   0.28969   0.00000  Uiso   1.00
C96    C     0.48397   0.37936   0.23498   0.00000  Uiso   1.00
C97    C     0.42897   0.44222   0.16861   0.00000  Uiso   1.00
C98    C     0.50312   0.16903   0.32798   0.00000  Uiso   1.00
C99    C     0.47854   0.13122   0.40469   0.00000  Uiso   1.00
C100   C     0.42135   0.05371   0.40255   0.00000  Uiso   1.00
C101   C     0.33015   0.92811   0.43317   0.00000  Uiso   1.00
C102   C     0.62560   0.25328   0.25763   0.00000  Uiso   1.00
C103   C     0.70400   0.28629   0.27519   0.00000  Uiso   1.00
C104   C     0.74993   0.27971   0.21383   0.00000  Uiso   1.00
C105   C     0.84889   0.28491   0.13520   0.00000  Uiso   1.00
C106   C     0.50711   0.18326   0.17554   0.00000  Uiso   1.00
C107   C     0.49506   0.25218   0.18937   0.00000  Uiso   1.00
C108   C     0.45752   0.27677   0.13460   0.00000  Uiso   1.00
C109   C     0.45250   0.34105   0.15869   0.00000  Uiso   1.00
C110   C     0.47171   0.13079   0.25184   0.00000  Uiso   1.00
C111   C     0.41455   0.05332   0.24959   0.00000  Uiso   1.00
C112   C     0.38988   0.01540   0.32628   0.00000  Uiso   1.00
C113   C     0.59419   0.21504   0.18148   0.00000  Uiso   1.00
C114   C     0.64001   0.20840   0.12008   0.00000  Uiso   1.00
C115   C     0.71846   0.24139   0.13755   0.00000  Uiso   1.00
H116   H     0.58940   0.28343   0.37501   0.00000  Uiso   1.00
H117   H     0.54581   0.38425   0.34863   0.00000  Uiso   1.00
H118   H     0.50286   0.16083   0.46360   0.00000  Uiso   1.00
H119   H     0.72828   0.31588   0.33412   0.00000  Uiso   1.00
H120   H     0.48362   0.47913   0.28582   0.00000  Uiso   1.00
H121   H     0.39307   0.00803   0.52825   0.00000  Uiso   1.00
H122   H     0.86841   0.33499   0.25520   0.00000  Uiso   1.00
H123   H     0.48266   0.15348   0.11626   0.00000  Uiso   1.00
H124   H     0.43322   0.24717   0.07568   0.00000  Uiso   1.00
H125   H     0.39026   0.02374   0.19065   0.00000  Uiso   1.00
H126   H     0.61568   0.17880   0.06117   0.00000  Uiso   1.00
H127   H     0.39223   0.36787   0.06428   0.00000  Uiso   1.00
H128   H     0.30168   0.89677   0.30671   0.00000  Uiso   1.00
H129   H     0.77702   0.22373   0.03367   0.00000  Uiso   1.00
O130   O     0.40730   0.48746   0.15304   0.00000  Uiso   1.00
O131   O     0.28852   0.86939   0.47109   0.00000  Uiso   1.00
O132   O     0.91216   0.29836   0.11287   0.00000  Uiso   1.00
N133   N     0.46891   0.44010   0.23924   0.00000  Uiso   1.00
N134   N     0.38424   0.99965   0.46590   0.00000  Uiso   1.00
N135   N     0.82864   0.30532   0.21063   0.00000  Uiso   1.00
N136   N     0.41973   0.38023   0.12003   0.00000  Uiso   1.00
N137   N     0.33506   0.93978   0.34669   0.00000  Uiso   1.00
N138   N     0.77947   0.24545   0.09143   0.00000  Uiso   1.00
C139   C     0.25367   0.68872   0.14906   0.00000  Uiso   1.00
C140   C     0.29042   0.76395   0.09884   0.00000  Uiso   1.00
C141   C     0.35467   0.83317   0.12303   0.00000  Uiso   1.00
C142   C     0.37936   0.89539   0.06831   0.00000  Uiso   1.00
C143   C     0.44222   0.01325   0.00194   0.00000  Uiso   1.00
C144   C     0.16903   0.66591   0.16131   0.00000  Uiso   1.00
C145   C     0.13122   0.65268   0.23802   0.00000  Uiso   1.00
C146   C     0.05371   0.63236   0.23589   0.00000  Uiso   1.00
C147   C     0.92811   0.59795   0.26650   0.00000  Uiso   1.00
C148   C     0.25328   0.62768   0.09096   0.00000  Uiso   1.00
C149   C     0.28629   0.58230   0.10852   0.00000  Uiso   1.00
C150   C     0.27971   0.52978   0.04716   0.00000  Uiso   1.00
C151   C     0.28491   0.43602   0.96854   0.00000  Uiso   1.00
C152   C     0.18326   0.67614   0.00887   0.00000  Uiso   1.00
C153   C     0.25218   0.75712   0.02270   0.00000  Uiso   1.00
C154   C     0.27677   0.81925   0.96793   0.00000  Uiso   1.00
C155   C     0.34105   0.88855   0.99203   0.00000  Uiso   1.00
C156   C     0.13079   0.65908   0.08517   0.00000  Uiso   1.00
C157   C     0.05332   0.63877   0.08292   0.00000  Uiso   1.00
C158   C     0.01540   0.62551   0.15961   0.00000  Uiso   1.00
C159   C     0.21504   0.62085   0.01481   0.00000  Uiso   1.00
C160   C     0.20840   0.56839   0.95342   0.00000  Uiso   1.00
C161   C     0.24139   0.52293   0.97088   0.00000  Uiso   1.00
H162   H     0.28343   0.69404   0.20834   0.00000  Uiso   1.00
H163   H     0.38425   0.83843   0.18196   0.00000  Uiso   1.00
H164   H     0.16083   0.65796   0.29694   0.00000  Uiso   1.00
H165   H     0.31588   0.58760   0.16745   0.00000  Uiso   1.00
H166   H     0.47913   0.99551   0.11915   0.00000  Uiso   1.00
H167   H     0.00803   0.61496   0.36158   0.00000  Uiso   1.00
H168   H     0.33499   0.46658   0.08854   0.00000  Uiso   1.00
H169   H     0.15348   0.67082   0.94959   0.00000  Uiso   1.00
H170   H     0.24717   0.81395   0.90901   0.00000  Uiso   1.00
H171   H     0.02374   0.63348   0.02399   0.00000  Uiso   1.00
H172   H     0.17880   0.56312   0.89450   0.00000  Uiso   1.00
H173   H     0.36787   0.97564   0.89762   0.00000  Uiso   1.00
H174   H     0.89677   0.59509   0.14004   0.00000  Uiso   1.00
H175   H     0.22373   0.44671   0.86700   0.00000  Uiso   1.00
O176   O     0.48746   0.08016   0.98637   0.00000  Uiso   1.00
O177   O     0.86939   0.58088   0.30443   0.00000  Uiso   1.00
O178   O     0.29836   0.38620   0.94620   0.00000  Uiso   1.00
N179   N     0.44010   0.97119   0.07257   0.00000  Uiso   1.00
N180   N     0.99965   0.61541   0.29923   0.00000  Uiso   1.00
N181   N     0.30532   0.47667   0.04397   0.00000  Uiso   1.00
N182   N     0.38023   0.96050   0.95337   0.00000  Uiso   1.00
N183   N     0.93978   0.60472   0.18002   0.00000  Uiso   1.00
N184   N     0.24545   0.46598   0.92476   0.00000  Uiso   1.00
C185   C     0.31128   0.56494   0.48239   0.00000  Uiso   1.00
C186   C     0.23605   0.52647   0.43218   0.00000  Uiso   1.00
C187   C     0.16683   0.52150   0.45636   0.00000  Uiso   1.00
C188   C     0.10461   0.48397   0.40164   0.00000  Uiso   1.00
C189   C     0.98675   0.42897   0.33527   0.00000  Uiso   1.00
C190   C     0.33409   0.50312   0.49465   0.00000  Uiso   1.00
C191   C     0.34732   0.47854   0.57136   0.00000  Uiso   1.00
C192   C     0.36764   0.42135   0.56922   0.00000  Uiso   1.00
C193   C     0.40205   0.33015   0.59983   0.00000  Uiso   1.00
C194   C     0.37232   0.62560   0.42429   0.00000  Uiso   1.00
C195   C     0.41770   0.70400   0.44185   0.00000  Uiso   1.00
C196   C     0.47022   0.74993   0.38049   0.00000  Uiso   1.00
C197   C     0.56398   0.84889   0.30187   0.00000  Uiso   1.00
C198   C     0.32386   0.50711   0.34221   0.00000  Uiso   1.00
C199   C     0.24288   0.49506   0.35603   0.00000  Uiso   1.00
C200   C     0.18075   0.45752   0.30126   0.00000  Uiso   1.00
C201   C     0.11145   0.45250   0.32536   0.00000  Uiso   1.00
C202   C     0.34092   0.47171   0.41851   0.00000  Uiso   1.00
C203   C     0.36123   0.41455   0.41626   0.00000  Uiso   1.00
C204   C     0.37449   0.38988   0.49294   0.00000  Uiso   1.00
C205   C     0.37915   0.59419   0.34815   0.00000  Uiso   1.00
C206   C     0.43161   0.64001   0.28675   0.00000  Uiso   1.00
C207   C     0.47707   0.71846   0.30421   0.00000  Uiso   1.00
H208   H     0.30596   0.58940   0.54167   0.00000  Uiso   1.00
H209   H     0.16157   0.54581   0.51530   0.00000  Uiso   1.00
H210   H     0.34204   0.50286   0.63027   0.00000  Uiso   1.00
H211   H     0.41240   0.72828   0.50078   0.00000  Uiso   1.00
H212   H     0.00449   0.48362   0.45249   0.00000  Uiso   1.00
H213   H     0.38504   0.39307   0.69491   0.00000  Uiso   1.00
H214   H     0.53342   0.86841   0.42187   0.00000  Uiso   1.00
H215   H     0.32918   0.48266   0.28292   0.00000  Uiso   1.00
H216   H     0.18605   0.43322   0.24234   0.00000  Uiso   1.00
H217   H     0.36652   0.39026   0.35732   0.00000  Uiso   1.00
H218   H     0.43688   0.61568   0.22784   0.00000  Uiso   1.00
H219   H     0.02436   0.39223   0.23095   0.00000  Uiso   1.00
H220   H     0.40491   0.30168   0.47338   0.00000  Uiso   1.00
H221   H     0.55329   0.77702   0.20033   0.00000  Uiso   1.00
O222   O     0.91984   0.40730   0.31970   0.00000  Uiso   1.00
O223   O     0.41912   0.28852   0.63776   0.00000  Uiso   1.00
O224   O     0.61380   0.91216   0.27953   0.00000  Uiso   1.00
N225   N     0.02881   0.46891   0.40591   0.00000  Uiso   1.00
N226   N     0.38459   0.38424   0.63256   0.00000  Uiso   1.00
N227   N     0.52333   0.82864   0.37730   0.00000  Uiso   1.00
N228   N     0.03950   0.41973   0.28670   0.00000  Uiso   1.00
N229   N     0.39528   0.33506   0.51336   0.00000  Uiso   1.00
N230   N     0.53402   0.77947   0.25809   0.00000  Uiso   1.00
C231   C     0.43506   0.74633   0.81573   0.00000  Uiso   1.00
C232   C     0.47353   0.70958   0.76551   0.00000  Uiso   1.00
C233   C     0.47850   0.64533   0.78969   0.00000  Uiso   1.00
C234   C     0.51603   0.62064   0.73498   0.00000  Uiso   1.00
C235   C     0.57103   0.55778   0.66861   0.00000  Uiso   1.00
C236   C     0.49688   0.83097   0.82798   0.00000  Uiso   1.00
C237   C     0.52146   0.86878   0.90469   0.00000  Uiso   1.00
C238   C     0.57865   0.94629   0.90255   0.00000  Uiso   1.00
C239   C     0.66985   0.07189   0.93317   0.00000  Uiso   1.00
C240   C     0.37440   0.74672   0.75763   0.00000  Uiso   1.00
C241   C     0.29600   0.71371   0.77519   0.00000  Uiso   1.00
C242   C     0.25007   0.72029   0.71383   0.00000  Uiso   1.00
C243   C     0.15111   0.71509   0.63520   0.00000  Uiso   1.00
C244   C     0.49289   0.81674   0.67554   0.00000  Uiso   1.00
C245   C     0.50494   0.74782   0.68937   0.00000  Uiso   1.00
C246   C     0.54248   0.72323   0.63460   0.00000  Uiso   1.00
C247   C     0.54750   0.65895   0.65869   0.00000  Uiso   1.00
C248   C     0.52829   0.86921   0.75184   0.00000  Uiso   1.00
C249   C     0.58545   0.94668   0.74959   0.00000  Uiso   1.00
C250   C     0.61012   0.98460   0.82628   0.00000  Uiso   1.00
C251   C     0.40581   0.78496   0.68148   0.00000  Uiso   1.00
C252   C     0.35999   0.79160   0.62008   0.00000  Uiso   1.00
C253   C     0.28154   0.75861   0.63755   0.00000  Uiso   1.00
H254   H     0.41060   0.71657   0.87501   0.00000  Uiso   1.00
H255   H     0.45419   0.61575   0.84863   0.00000  Uiso   1.00
H256   H     0.49714   0.83917   0.96360   0.00000  Uiso   1.00
H257   H     0.27172   0.68412   0.83412   0.00000  Uiso   1.00
H258   H     0.51638   0.52087   0.78582   0.00000  Uiso   1.00
H259   H     0.60693   0.99197   0.02825   0.00000  Uiso   1.00
H260   H     0.13159   0.66501   0.75520   0.00000  Uiso   1.00
H261   H     0.51734   0.84652   0.61626   0.00000  Uiso   1.00
H262   H     0.56678   0.75283   0.57568   0.00000  Uiso   1.00
H263   H     0.60974   0.97626   0.69065   0.00000  Uiso   1.00
H264   H     0.38432   0.82120   0.56117   0.00000  Uiso   1.00
H265   H     0.60777   0.63213   0.56428   0.00000  Uiso   1.00
H266   H     0.69832   0.10323   0.80671   0.00000  Uiso   1.00
H267   H     0.22298   0.77627   0.53367   0.00000  Uiso   1.00
O268   O     0.59270   0.51254   0.65304   0.00000  Uiso   1.00
O269   O     0.71148   0.13061   0.97109   0.00000  Uiso   1.00
O270   O     0.08784   0.70164   0.61287   0.00000  Uiso   1.00
N271   N     0.53109   0.55990   0.73924   0.00000  Uiso   1.00
N272   N     0.61576   0.00035   0.96590   0.00000  Uiso   1.00
N273   N     0.17136   0.69468   0.71063   0.00000  Uiso   1.00
N274   N     0.58027   0.61977   0.62003   0.00000  Uiso   1.00
N275   N     0.66494   0.06022   0.84669   0.00000  Uiso   1.00
N276   N     0.22053   0.75455   0.59143   0.00000  Uiso   1.00
