data_job_01466
_audit_creation_date              2018-12-19
_audit_creation_method            'Materials Studio'
_symmetry_space_group_name_H-M    'P1'
_symmetry_Int_Tables_number       1
_symmetry_cell_setting            triclinic
loop_
_symmetry_equiv_pos_as_xyz
  x,y,z
_cell_length_a                    12.8352
_cell_length_b                    18.9295
_cell_length_c                    12.7419
_cell_angle_alpha                 90.0000
_cell_angle_beta                  78.2968
_cell_angle_gamma                 90.0000
loop_
_atom_site_label
_atom_site_type_symbol
_atom_site_fract_x
_atom_site_fract_y
_atom_site_fract_z
_atom_site_U_iso_or_equiv
_atom_site_adp_type
_atom_site_occupancy
C1     C     0.28053   0.96469   0.35599   0.00000  Uiso   1.00
C2     C     0.22284   0.95575   0.26333   0.00000  Uiso   1.00
C3     C     0.16449   0.89697   0.24484   0.00000  Uiso   1.00
C4     C     0.11778   0.89904   0.15568   0.00000  Uiso   1.00
C5     C     0.02653   0.87620   0.02214   0.00000  Uiso   1.00
C6     C     0.39634   0.98019   0.30504   0.00000  Uiso   1.00
C7     C     0.48385   0.94197   0.32163   0.00000  Uiso   1.00
C8     C     0.58320   0.96462   0.26759   0.00000  Uiso   1.00
C9     C     0.76130   0.97976   0.19887   0.00000  Uiso   1.00
C10    C     0.23669   0.03228   0.41362   0.00000  Uiso   1.00
C11    C     0.19001   0.03787   0.52151   0.00000  Uiso   1.00
C12    C     0.15497   0.10439   0.55890   0.00000  Uiso   1.00
C13    C     0.08520   0.20041   0.65877   0.00000  Uiso   1.00
C14    C     0.30135   0.07289   0.23054   0.00000  Uiso   1.00
C15    C     0.23416   0.01451   0.19519   0.00000  Uiso   1.00
C16    C     0.18752   0.01668   0.10605   0.00000  Uiso   1.00
C17    C     0.12911   0.95792   0.08742   0.00000  Uiso   1.00
C18    C     0.40765   0.03895   0.23690   0.00000  Uiso   1.00
C19    C     0.50689   0.06167   0.18284   0.00000  Uiso   1.00
C20    C     0.59453   0.02350   0.19933   0.00000  Uiso   1.00
C21    C     0.24800   0.09105   0.34548   0.00000  Uiso   1.00
C22    C     0.21304   0.15757   0.38272   0.00000  Uiso   1.00
C23    C     0.16630   0.16326   0.49064   0.00000  Uiso   1.00
H24    H     0.27173   0.91894   0.40903   0.00000  Uiso   1.00
H25    H     0.15576   0.85150   0.29758   0.00000  Uiso   1.00
H26    H     0.47507   0.89650   0.37437   0.00000  Uiso   1.00
H27    H     0.18127   0.99238   0.57422   0.00000  Uiso   1.00
H28    H     0.03220   0.80264   0.14394   0.00000  Uiso   1.00
H29    H     0.70550   0.89753   0.30588   0.00000  Uiso   1.00
H30    H     0.08595   0.09972   0.72731   0.00000  Uiso   1.00
H31    H     0.31016   0.11864   0.17749   0.00000  Uiso   1.00
H32    H     0.19629   0.06216   0.05333   0.00000  Uiso   1.00
H33    H     0.51561   0.10716   0.13012   0.00000  Uiso   1.00
H34    H     0.22180   0.20304   0.32997   0.00000  Uiso   1.00
H35    H     0.06510   0.97362   0.94570   0.00000  Uiso   1.00
H36    H     0.73840   0.06851   0.10764   0.00000  Uiso   1.00
H37    H     0.11886   0.27070   0.52906   0.00000  Uiso   1.00
O38    O     0.97308   0.84736   0.96730   0.00000  Uiso   1.00
O39    O     0.85642   0.97186   0.17977   0.00000  Uiso   1.00
O40    O     0.04359   0.23713   0.73267   0.00000  Uiso   1.00
N41    N     0.05555   0.85064   0.11434   0.00000  Uiso   1.00
N42    N     0.68505   0.93935   0.26572   0.00000  Uiso   1.00
N43    N     0.10585   0.12838   0.65973   0.00000  Uiso   1.00
N44    N     0.07326   0.94264   0.00767   0.00000  Uiso   1.00
N45    N     0.70275   0.03135   0.15905   0.00000  Uiso   1.00
N46    N     0.12355   0.22039   0.55306   0.00000  Uiso   1.00
C47    C     0.71947   0.46469   0.14401   0.00000  Uiso   1.00
C48    C     0.77716   0.45575   0.23667   0.00000  Uiso   1.00
C49    C     0.83551   0.39697   0.25516   0.00000  Uiso   1.00
C50    C     0.88222   0.39904   0.34432   0.00000  Uiso   1.00
C51    C     0.97347   0.37620   0.47786   0.00000  Uiso   1.00
C52    C     0.60366   0.48019   0.19496   0.00000  Uiso   1.00
C53    C     0.51615   0.44197   0.17837   0.00000  Uiso   1.00
C54    C     0.41680   0.46462   0.23241   0.00000  Uiso   1.00
C55    C     0.23870   0.47976   0.30113   0.00000  Uiso   1.00
C56    C     0.76331   0.53228   0.08638   0.00000  Uiso   1.00
C57    C     0.80999   0.53787   0.97849   0.00000  Uiso   1.00
C58    C     0.84503   0.60439   0.94110   0.00000  Uiso   1.00
C59    C     0.91480   0.70041   0.84123   0.00000  Uiso   1.00
C60    C     0.69865   0.57289   0.26946   0.00000  Uiso   1.00
C61    C     0.76584   0.51451   0.30481   0.00000  Uiso   1.00
C62    C     0.81248   0.51668   0.39395   0.00000  Uiso   1.00
C63    C     0.87089   0.45792   0.41258   0.00000  Uiso   1.00
C64    C     0.59235   0.53895   0.26310   0.00000  Uiso   1.00
C65    C     0.49311   0.56167   0.31716   0.00000  Uiso   1.00
C66    C     0.40547   0.52350   0.30067   0.00000  Uiso   1.00
C67    C     0.75200   0.59105   0.15452   0.00000  Uiso   1.00
C68    C     0.78696   0.65757   0.11728   0.00000  Uiso   1.00
C69    C     0.83370   0.66326   0.00936   0.00000  Uiso   1.00
H70    H     0.72827   0.41894   0.09097   0.00000  Uiso   1.00
H71    H     0.84424   0.35150   0.20242   0.00000  Uiso   1.00
H72    H     0.52493   0.39650   0.12563   0.00000  Uiso   1.00
H73    H     0.81873   0.49238   0.92578   0.00000  Uiso   1.00
H74    H     0.96780   0.30264   0.35606   0.00000  Uiso   1.00
H75    H     0.29450   0.39753   0.19412   0.00000  Uiso   1.00
H76    H     0.91405   0.59972   0.77269   0.00000  Uiso   1.00
H77    H     0.68984   0.61864   0.32251   0.00000  Uiso   1.00
H78    H     0.80371   0.56216   0.44667   0.00000  Uiso   1.00
H79    H     0.48439   0.60716   0.36988   0.00000  Uiso   1.00
H80    H     0.77820   0.70304   0.17003   0.00000  Uiso   1.00
H81    H     0.93490   0.47362   0.55430   0.00000  Uiso   1.00
H82    H     0.26160   0.56851   0.39236   0.00000  Uiso   1.00
H83    H     0.88114   0.77070   0.97094   0.00000  Uiso   1.00
O84    O     0.02692   0.34736   0.53270   0.00000  Uiso   1.00
O85    O     0.14358   0.47186   0.32023   0.00000  Uiso   1.00
O86    O     0.95641   0.73713   0.76733   0.00000  Uiso   1.00
N87    N     0.94445   0.35064   0.38566   0.00000  Uiso   1.00
N88    N     0.31495   0.43935   0.23428   0.00000  Uiso   1.00
N89    N     0.89415   0.62838   0.84027   0.00000  Uiso   1.00
N90    N     0.92674   0.44264   0.49233   0.00000  Uiso   1.00
N91    N     0.29725   0.53135   0.34095   0.00000  Uiso   1.00
N92    N     0.87645   0.72039   0.94694   0.00000  Uiso   1.00
C93    C     0.71947   0.03531   0.64401   0.00000  Uiso   1.00
C94    C     0.77716   0.04425   0.73667   0.00000  Uiso   1.00
C95    C     0.83551   0.10303   0.75516   0.00000  Uiso   1.00
C96    C     0.88222   0.10096   0.84432   0.00000  Uiso   1.00
C97    C     0.97347   0.12380   0.97786   0.00000  Uiso   1.00
C98    C     0.60366   0.01981   0.69496   0.00000  Uiso   1.00
C99    C     0.51615   0.05803   0.67837   0.00000  Uiso   1.00
C100   C     0.41680   0.03538   0.73241   0.00000  Uiso   1.00
C101   C     0.23870   0.02024   0.80113   0.00000  Uiso   1.00
C102   C     0.76331   0.96772   0.58638   0.00000  Uiso   1.00
C103   C     0.80999   0.96213   0.47849   0.00000  Uiso   1.00
C104   C     0.84503   0.89561   0.44110   0.00000  Uiso   1.00
C105   C     0.91480   0.79959   0.34123   0.00000  Uiso   1.00
C106   C     0.69865   0.92711   0.76946   0.00000  Uiso   1.00
C107   C     0.76584   0.98549   0.80481   0.00000  Uiso   1.00
C108   C     0.81248   0.98332   0.89395   0.00000  Uiso   1.00
C109   C     0.87089   0.04208   0.91258   0.00000  Uiso   1.00
C110   C     0.59235   0.96105   0.76310   0.00000  Uiso   1.00
C111   C     0.49311   0.93833   0.81716   0.00000  Uiso   1.00
C112   C     0.40547   0.97650   0.80067   0.00000  Uiso   1.00
C113   C     0.75200   0.90895   0.65452   0.00000  Uiso   1.00
C114   C     0.78696   0.84243   0.61728   0.00000  Uiso   1.00
C115   C     0.83370   0.83674   0.50936   0.00000  Uiso   1.00
H116   H     0.72827   0.08106   0.59097   0.00000  Uiso   1.00
H117   H     0.84424   0.14850   0.70242   0.00000  Uiso   1.00
H118   H     0.52493   0.10350   0.62563   0.00000  Uiso   1.00
H119   H     0.81873   0.00762   0.42578   0.00000  Uiso   1.00
H120   H     0.96780   0.19736   0.85606   0.00000  Uiso   1.00
H121   H     0.29450   0.10247   0.69412   0.00000  Uiso   1.00
H122   H     0.91405   0.90028   0.27269   0.00000  Uiso   1.00
H123   H     0.68984   0.88136   0.82251   0.00000  Uiso   1.00
H124   H     0.80371   0.93784   0.94667   0.00000  Uiso   1.00
H125   H     0.48439   0.89284   0.86988   0.00000  Uiso   1.00
H126   H     0.77820   0.79696   0.67003   0.00000  Uiso   1.00
H127   H     0.93490   0.02638   0.05430   0.00000  Uiso   1.00
H128   H     0.26160   0.93149   0.89236   0.00000  Uiso   1.00
H129   H     0.88114   0.72930   0.47094   0.00000  Uiso   1.00
O130   O     0.02692   0.15264   0.03270   0.00000  Uiso   1.00
O131   O     0.14358   0.02814   0.82023   0.00000  Uiso   1.00
O132   O     0.95641   0.76287   0.26733   0.00000  Uiso   1.00
N133   N     0.94445   0.14936   0.88566   0.00000  Uiso   1.00
N134   N     0.31495   0.06065   0.73428   0.00000  Uiso   1.00
N135   N     0.89415   0.87162   0.34027   0.00000  Uiso   1.00
N136   N     0.92674   0.05736   0.99233   0.00000  Uiso   1.00
N137   N     0.29725   0.96865   0.84095   0.00000  Uiso   1.00
N138   N     0.87645   0.77961   0.44694   0.00000  Uiso   1.00
C139   C     0.28053   0.53531   0.85599   0.00000  Uiso   1.00
C140   C     0.22284   0.54425   0.76333   0.00000  Uiso   1.00
C141   C     0.16449   0.60303   0.74484   0.00000  Uiso   1.00
C142   C     0.11778   0.60096   0.65568   0.00000  Uiso   1.00
C143   C     0.02653   0.62380   0.52214   0.00000  Uiso   1.00
C144   C     0.39634   0.51981   0.80504   0.00000  Uiso   1.00
C145   C     0.48385   0.55803   0.82163   0.00000  Uiso   1.00
C146   C     0.58320   0.53538   0.76759   0.00000  Uiso   1.00
C147   C     0.76130   0.52024   0.69887   0.00000  Uiso   1.00
C148   C     0.23669   0.46772   0.91362   0.00000  Uiso   1.00
C149   C     0.19001   0.46213   0.02151   0.00000  Uiso   1.00
C150   C     0.15497   0.39561   0.05890   0.00000  Uiso   1.00
C151   C     0.08520   0.29959   0.15877   0.00000  Uiso   1.00
C152   C     0.30135   0.42711   0.73054   0.00000  Uiso   1.00
C153   C     0.23416   0.48549   0.69519   0.00000  Uiso   1.00
C154   C     0.18752   0.48332   0.60605   0.00000  Uiso   1.00
C155   C     0.12911   0.54208   0.58742   0.00000  Uiso   1.00
C156   C     0.40765   0.46105   0.73690   0.00000  Uiso   1.00
C157   C     0.50689   0.43833   0.68284   0.00000  Uiso   1.00
C158   C     0.59453   0.47650   0.69933   0.00000  Uiso   1.00
C159   C     0.24800   0.40895   0.84548   0.00000  Uiso   1.00
C160   C     0.21304   0.34243   0.88272   0.00000  Uiso   1.00
C161   C     0.16630   0.33674   0.99064   0.00000  Uiso   1.00
H162   H     0.27173   0.58106   0.90903   0.00000  Uiso   1.00
H163   H     0.15576   0.64850   0.79758   0.00000  Uiso   1.00
H164   H     0.47507   0.60350   0.87437   0.00000  Uiso   1.00
H165   H     0.18127   0.50762   0.07422   0.00000  Uiso   1.00
H166   H     0.03220   0.69736   0.64394   0.00000  Uiso   1.00
H167   H     0.70550   0.60247   0.80588   0.00000  Uiso   1.00
H168   H     0.08595   0.40028   0.22731   0.00000  Uiso   1.00
H169   H     0.31016   0.38136   0.67749   0.00000  Uiso   1.00
H170   H     0.19629   0.43784   0.55333   0.00000  Uiso   1.00
H171   H     0.51561   0.39284   0.63012   0.00000  Uiso   1.00
H172   H     0.22180   0.29696   0.82997   0.00000  Uiso   1.00
H173   H     0.06510   0.52638   0.44570   0.00000  Uiso   1.00
H174   H     0.73840   0.43149   0.60764   0.00000  Uiso   1.00
H175   H     0.11886   0.22930   0.02906   0.00000  Uiso   1.00
O176   O     0.97308   0.65264   0.46730   0.00000  Uiso   1.00
O177   O     0.85642   0.52814   0.67977   0.00000  Uiso   1.00
O178   O     0.04359   0.26287   0.23267   0.00000  Uiso   1.00
N179   N     0.05555   0.64936   0.61434   0.00000  Uiso   1.00
N180   N     0.68505   0.56065   0.76572   0.00000  Uiso   1.00
N181   N     0.10585   0.37162   0.15973   0.00000  Uiso   1.00
N182   N     0.07326   0.55736   0.50767   0.00000  Uiso   1.00
N183   N     0.70275   0.46865   0.65905   0.00000  Uiso   1.00
N184   N     0.12355   0.27961   0.05306   0.00000  Uiso   1.00
