data_job_04802
_audit_creation_date              2018-12-19
_audit_creation_method            'Materials Studio'
_symmetry_space_group_name_H-M    'P1'
_symmetry_Int_Tables_number       1
_symmetry_cell_setting            triclinic
loop_
_symmetry_equiv_pos_as_xyz
  x,y,z
_cell_length_a                    13.1918
_cell_length_b                    18.3427
_cell_length_c                    19.4896
_cell_angle_alpha                 90.0000
_cell_angle_beta                  90.0000
_cell_angle_gamma                 90.0000
loop_
_atom_site_label
_atom_site_type_symbol
_atom_site_fract_x
_atom_site_fract_y
_atom_site_fract_z
_atom_site_U_iso_or_equiv
_atom_site_adp_type
_atom_site_occupancy
C1     C     0.49294   0.68332   0.59779   0.00000  Uiso   1.00
C2     C     0.40413   0.66814   0.64579   0.00000  Uiso   1.00
C3     C     0.40791   0.62632   0.70508   0.00000  Uiso   1.00
C4     C     0.31843   0.61898   0.74193   0.00000  Uiso   1.00
C5     C     0.19419   0.59031   0.81975   0.00000  Uiso   1.00
C6     C     0.45932   0.65776   0.52690   0.00000  Uiso   1.00
C7     C     0.50953   0.60723   0.48622   0.00000  Uiso   1.00
C8     C     0.46650   0.59116   0.42299   0.00000  Uiso   1.00
C9     C     0.42800   0.54643   0.31621   0.00000  Uiso   1.00
C10    C     0.50185   0.76606   0.59328   0.00000  Uiso   1.00
C11    C     0.58783   0.80660   0.60841   0.00000  Uiso   1.00
C12    C     0.58063   0.88171   0.60105   0.00000  Uiso   1.00
C13    C     0.60817   0.00513   0.59733   0.00000  Uiso   1.00
C14    C     0.32728   0.74463   0.55781   0.00000  Uiso   1.00
C15    C     0.31415   0.70144   0.62407   0.00000  Uiso   1.00
C16    C     0.22463   0.69416   0.66085   0.00000  Uiso   1.00
C17    C     0.22829   0.65234   0.72018   0.00000  Uiso   1.00
C18    C     0.36934   0.69106   0.50519   0.00000  Uiso   1.00
C19    C     0.32624   0.67507   0.44200   0.00000  Uiso   1.00
C20    C     0.37636   0.62452   0.40124   0.00000  Uiso   1.00
C21    C     0.41187   0.79937   0.57157   0.00000  Uiso   1.00
C22    C     0.40454   0.87443   0.56418   0.00000  Uiso   1.00
C23    C     0.49049   0.91507   0.57929   0.00000  Uiso   1.00
H24    H     0.56300   0.65739   0.61469   0.00000  Uiso   1.00
H25    H     0.47756   0.60055   0.72186   0.00000  Uiso   1.00
H26    H     0.57916   0.58148   0.50304   0.00000  Uiso   1.00
H27    H     0.65745   0.78081   0.62521   0.00000  Uiso   1.00
H28    H     0.34315   0.55221   0.83109   0.00000  Uiso   1.00
H29    H     0.55740   0.51200   0.36968   0.00000  Uiso   1.00
H30    H     0.72249   0.93233   0.62729   0.00000  Uiso   1.00
H31    H     0.25723   0.77056   0.54091   0.00000  Uiso   1.00
H32    H     0.15501   0.71994   0.64403   0.00000  Uiso   1.00
H33    H     0.25661   0.70085   0.42521   0.00000  Uiso   1.00
H34    H     0.33490   0.90019   0.54738   0.00000  Uiso   1.00
H35    H     0.08136   0.64910   0.76792   0.00000  Uiso   1.00
H36    H     0.29561   0.60889   0.30651   0.00000  Uiso   1.00
H37    H     0.46069   0.02922   0.56412   0.00000  Uiso   1.00
O38    O     0.15052   0.56529   0.86866   0.00000  Uiso   1.00
O39    O     0.43162   0.51254   0.26331   0.00000  Uiso   1.00
O40    O     0.64821   0.06401   0.60129   0.00000  Uiso   1.00
N41    N     0.29557   0.58197   0.80208   0.00000  Uiso   1.00
N42    N     0.49587   0.54437   0.37069   0.00000  Uiso   1.00
N43    N     0.65022   0.93734   0.61152   0.00000  Uiso   1.00
N44    N     0.15470   0.63411   0.76809   0.00000  Uiso   1.00
N45    N     0.35500   0.59650   0.33670   0.00000  Uiso   1.00
N46    N     0.50935   0.98948   0.57753   0.00000  Uiso   1.00
C47    C     0.00706   0.31668   0.59779   0.00000  Uiso   1.00
C48    C     0.09587   0.33186   0.64579   0.00000  Uiso   1.00
C49    C     0.09209   0.37368   0.70508   0.00000  Uiso   1.00
C50    C     0.18157   0.38102   0.74193   0.00000  Uiso   1.00
C51    C     0.30581   0.40969   0.81975   0.00000  Uiso   1.00
C52    C     0.04068   0.34224   0.52690   0.00000  Uiso   1.00
C53    C     0.99047   0.39277   0.48622   0.00000  Uiso   1.00
C54    C     0.03350   0.40884   0.42299   0.00000  Uiso   1.00
C55    C     0.07200   0.45357   0.31621   0.00000  Uiso   1.00
C56    C     0.99815   0.23394   0.59328   0.00000  Uiso   1.00
C57    C     0.91217   0.19340   0.60841   0.00000  Uiso   1.00
C58    C     0.91937   0.11829   0.60105   0.00000  Uiso   1.00
C59    C     0.89183   0.99487   0.59733   0.00000  Uiso   1.00
C60    C     0.17272   0.25537   0.55781   0.00000  Uiso   1.00
C61    C     0.18585   0.29856   0.62407   0.00000  Uiso   1.00
C62    C     0.27537   0.30584   0.66085   0.00000  Uiso   1.00
C63    C     0.27171   0.34766   0.72018   0.00000  Uiso   1.00
C64    C     0.13066   0.30894   0.50519   0.00000  Uiso   1.00
C65    C     0.17376   0.32493   0.44200   0.00000  Uiso   1.00
C66    C     0.12364   0.37548   0.40124   0.00000  Uiso   1.00
C67    C     0.08813   0.20063   0.57157   0.00000  Uiso   1.00
C68    C     0.09546   0.12557   0.56418   0.00000  Uiso   1.00
C69    C     0.00951   0.08493   0.57929   0.00000  Uiso   1.00
H70    H     0.93700   0.34261   0.61469   0.00000  Uiso   1.00
H71    H     0.02244   0.39945   0.72186   0.00000  Uiso   1.00
H72    H     0.92084   0.41852   0.50304   0.00000  Uiso   1.00
H73    H     0.84255   0.21919   0.62521   0.00000  Uiso   1.00
H74    H     0.15685   0.44779   0.83109   0.00000  Uiso   1.00
H75    H     0.94260   0.48800   0.36968   0.00000  Uiso   1.00
H76    H     0.77751   0.06767   0.62729   0.00000  Uiso   1.00
H77    H     0.24277   0.22944   0.54091   0.00000  Uiso   1.00
H78    H     0.34499   0.28006   0.64403   0.00000  Uiso   1.00
H79    H     0.24339   0.29915   0.42521   0.00000  Uiso   1.00
H80    H     0.16510   0.09981   0.54738   0.00000  Uiso   1.00
H81    H     0.41864   0.35090   0.76792   0.00000  Uiso   1.00
H82    H     0.20439   0.39111   0.30651   0.00000  Uiso   1.00
H83    H     0.03931   0.97078   0.56412   0.00000  Uiso   1.00
O84    O     0.34948   0.43471   0.86866   0.00000  Uiso   1.00
O85    O     0.06838   0.48746   0.26331   0.00000  Uiso   1.00
O86    O     0.85179   0.93599   0.60129   0.00000  Uiso   1.00
N87    N     0.20443   0.41803   0.80208   0.00000  Uiso   1.00
N88    N     0.00413   0.45563   0.37069   0.00000  Uiso   1.00
N89    N     0.84978   0.06266   0.61152   0.00000  Uiso   1.00
N90    N     0.34530   0.36589   0.76809   0.00000  Uiso   1.00
N91    N     0.14500   0.40350   0.33670   0.00000  Uiso   1.00
N92    N     0.99065   0.01052   0.57753   0.00000  Uiso   1.00
C93    C     0.00706   0.18332   0.90221   0.00000  Uiso   1.00
C94    C     0.09587   0.16814   0.85421   0.00000  Uiso   1.00
C95    C     0.09209   0.12632   0.79492   0.00000  Uiso   1.00
C96    C     0.18157   0.11898   0.75807   0.00000  Uiso   1.00
C97    C     0.30581   0.09031   0.68025   0.00000  Uiso   1.00
C98    C     0.04068   0.15776   0.97310   0.00000  Uiso   1.00
C99    C     0.99047   0.10723   0.01378   0.00000  Uiso   1.00
C100   C     0.03350   0.09116   0.07701   0.00000  Uiso   1.00
C101   C     0.07200   0.04643   0.18379   0.00000  Uiso   1.00
C102   C     0.99815   0.26606   0.90672   0.00000  Uiso   1.00
C103   C     0.91217   0.30660   0.89159   0.00000  Uiso   1.00
C104   C     0.91937   0.38171   0.89895   0.00000  Uiso   1.00
C105   C     0.89183   0.50513   0.90267   0.00000  Uiso   1.00
C106   C     0.17272   0.24463   0.94219   0.00000  Uiso   1.00
C107   C     0.18585   0.20144   0.87593   0.00000  Uiso   1.00
C108   C     0.27537   0.19416   0.83915   0.00000  Uiso   1.00
C109   C     0.27171   0.15234   0.77982   0.00000  Uiso   1.00
C110   C     0.13066   0.19106   0.99481   0.00000  Uiso   1.00
C111   C     0.17376   0.17507   0.05800   0.00000  Uiso   1.00
C112   C     0.12364   0.12452   0.09876   0.00000  Uiso   1.00
C113   C     0.08813   0.29937   0.92843   0.00000  Uiso   1.00
C114   C     0.09546   0.37443   0.93582   0.00000  Uiso   1.00
C115   C     0.00951   0.41507   0.92071   0.00000  Uiso   1.00
H116   H     0.93700   0.15739   0.88531   0.00000  Uiso   1.00
H117   H     0.02244   0.10055   0.77814   0.00000  Uiso   1.00
H118   H     0.92084   0.08148   0.99696   0.00000  Uiso   1.00
H119   H     0.84255   0.28081   0.87479   0.00000  Uiso   1.00
H120   H     0.15685   0.05221   0.66891   0.00000  Uiso   1.00
H121   H     0.94260   0.01200   0.13032   0.00000  Uiso   1.00
H122   H     0.77751   0.43233   0.87271   0.00000  Uiso   1.00
H123   H     0.24277   0.27056   0.95909   0.00000  Uiso   1.00
H124   H     0.34499   0.21994   0.85597   0.00000  Uiso   1.00
H125   H     0.24339   0.20085   0.07479   0.00000  Uiso   1.00
H126   H     0.16510   0.40019   0.95262   0.00000  Uiso   1.00
H127   H     0.41864   0.14910   0.73208   0.00000  Uiso   1.00
H128   H     0.20439   0.10889   0.19349   0.00000  Uiso   1.00
H129   H     0.03931   0.52922   0.93588   0.00000  Uiso   1.00
O130   O     0.34948   0.06529   0.63134   0.00000  Uiso   1.00
O131   O     0.06838   0.01254   0.23669   0.00000  Uiso   1.00
O132   O     0.85179   0.56401   0.89871   0.00000  Uiso   1.00
N133   N     0.20443   0.08197   0.69792   0.00000  Uiso   1.00
N134   N     0.00413   0.04437   0.12931   0.00000  Uiso   1.00
N135   N     0.84978   0.43734   0.88848   0.00000  Uiso   1.00
N136   N     0.34530   0.13411   0.73191   0.00000  Uiso   1.00
N137   N     0.14500   0.09650   0.16330   0.00000  Uiso   1.00
N138   N     0.99065   0.48948   0.92247   0.00000  Uiso   1.00
C139   C     0.49294   0.81668   0.90221   0.00000  Uiso   1.00
C140   C     0.40413   0.83186   0.85421   0.00000  Uiso   1.00
C141   C     0.40791   0.87368   0.79492   0.00000  Uiso   1.00
C142   C     0.31843   0.88102   0.75807   0.00000  Uiso   1.00
C143   C     0.19419   0.90969   0.68025   0.00000  Uiso   1.00
C144   C     0.45932   0.84224   0.97310   0.00000  Uiso   1.00
C145   C     0.50953   0.89277   0.01378   0.00000  Uiso   1.00
C146   C     0.46650   0.90884   0.07701   0.00000  Uiso   1.00
C147   C     0.42800   0.95357   0.18379   0.00000  Uiso   1.00
C148   C     0.50185   0.73394   0.90672   0.00000  Uiso   1.00
C149   C     0.58783   0.69340   0.89159   0.00000  Uiso   1.00
C150   C     0.58063   0.61829   0.89895   0.00000  Uiso   1.00
C151   C     0.60817   0.49487   0.90267   0.00000  Uiso   1.00
C152   C     0.32728   0.75537   0.94219   0.00000  Uiso   1.00
C153   C     0.31415   0.79856   0.87593   0.00000  Uiso   1.00
C154   C     0.22463   0.80584   0.83915   0.00000  Uiso   1.00
C155   C     0.22829   0.84766   0.77982   0.00000  Uiso   1.00
C156   C     0.36934   0.80894   0.99481   0.00000  Uiso   1.00
C157   C     0.32624   0.82493   0.05800   0.00000  Uiso   1.00
C158   C     0.37636   0.87548   0.09876   0.00000  Uiso   1.00
C159   C     0.41187   0.70063   0.92843   0.00000  Uiso   1.00
C160   C     0.40454   0.62557   0.93582   0.00000  Uiso   1.00
C161   C     0.49049   0.58493   0.92071   0.00000  Uiso   1.00
H162   H     0.56300   0.84261   0.88531   0.00000  Uiso   1.00
H163   H     0.47756   0.89945   0.77814   0.00000  Uiso   1.00
H164   H     0.57916   0.91852   0.99696   0.00000  Uiso   1.00
H165   H     0.65745   0.71919   0.87479   0.00000  Uiso   1.00
H166   H     0.34315   0.94779   0.66891   0.00000  Uiso   1.00
H167   H     0.55740   0.98800   0.13032   0.00000  Uiso   1.00
H168   H     0.72249   0.56767   0.87271   0.00000  Uiso   1.00
H169   H     0.25723   0.72944   0.95909   0.00000  Uiso   1.00
H170   H     0.15501   0.78006   0.85597   0.00000  Uiso   1.00
H171   H     0.25661   0.79915   0.07479   0.00000  Uiso   1.00
H172   H     0.33490   0.59981   0.95262   0.00000  Uiso   1.00
H173   H     0.08136   0.85090   0.73208   0.00000  Uiso   1.00
H174   H     0.29561   0.89111   0.19349   0.00000  Uiso   1.00
H175   H     0.46069   0.47078   0.93588   0.00000  Uiso   1.00
O176   O     0.15052   0.93471   0.63134   0.00000  Uiso   1.00
O177   O     0.43162   0.98746   0.23669   0.00000  Uiso   1.00
O178   O     0.64821   0.43599   0.89871   0.00000  Uiso   1.00
N179   N     0.29557   0.91803   0.69792   0.00000  Uiso   1.00
N180   N     0.49587   0.95563   0.12931   0.00000  Uiso   1.00
N181   N     0.65022   0.56266   0.88848   0.00000  Uiso   1.00
N182   N     0.15470   0.86589   0.73191   0.00000  Uiso   1.00
N183   N     0.35500   0.90350   0.16330   0.00000  Uiso   1.00
N184   N     0.50935   0.51052   0.92247   0.00000  Uiso   1.00
C185   C     0.50706   0.31668   0.40221   0.00000  Uiso   1.00
C186   C     0.59587   0.33186   0.35421   0.00000  Uiso   1.00
C187   C     0.59209   0.37368   0.29492   0.00000  Uiso   1.00
C188   C     0.68157   0.38102   0.25807   0.00000  Uiso   1.00
C189   C     0.80581   0.40969   0.18025   0.00000  Uiso   1.00
C190   C     0.54068   0.34224   0.47310   0.00000  Uiso   1.00
C191   C     0.49047   0.39277   0.51378   0.00000  Uiso   1.00
C192   C     0.53350   0.40884   0.57701   0.00000  Uiso   1.00
C193   C     0.57200   0.45357   0.68379   0.00000  Uiso   1.00
C194   C     0.49815   0.23394   0.40672   0.00000  Uiso   1.00
C195   C     0.41217   0.19340   0.39159   0.00000  Uiso   1.00
C196   C     0.41937   0.11829   0.39895   0.00000  Uiso   1.00
C197   C     0.39183   0.99487   0.40267   0.00000  Uiso   1.00
C198   C     0.67272   0.25537   0.44219   0.00000  Uiso   1.00
C199   C     0.68585   0.29856   0.37593   0.00000  Uiso   1.00
C200   C     0.77537   0.30584   0.33915   0.00000  Uiso   1.00
C201   C     0.77171   0.34766   0.27982   0.00000  Uiso   1.00
C202   C     0.63066   0.30894   0.49481   0.00000  Uiso   1.00
C203   C     0.67376   0.32493   0.55800   0.00000  Uiso   1.00
C204   C     0.62364   0.37548   0.59876   0.00000  Uiso   1.00
C205   C     0.58813   0.20063   0.42843   0.00000  Uiso   1.00
C206   C     0.59546   0.12557   0.43582   0.00000  Uiso   1.00
C207   C     0.50951   0.08493   0.42071   0.00000  Uiso   1.00
H208   H     0.43700   0.34261   0.38531   0.00000  Uiso   1.00
H209   H     0.52244   0.39945   0.27814   0.00000  Uiso   1.00
H210   H     0.42084   0.41852   0.49696   0.00000  Uiso   1.00
H211   H     0.34255   0.21919   0.37479   0.00000  Uiso   1.00
H212   H     0.65685   0.44779   0.16891   0.00000  Uiso   1.00
H213   H     0.44260   0.48800   0.63032   0.00000  Uiso   1.00
H214   H     0.27751   0.06767   0.37271   0.00000  Uiso   1.00
H215   H     0.74277   0.22944   0.45909   0.00000  Uiso   1.00
H216   H     0.84499   0.28006   0.35597   0.00000  Uiso   1.00
H217   H     0.74339   0.29915   0.57479   0.00000  Uiso   1.00
H218   H     0.66510   0.09981   0.45262   0.00000  Uiso   1.00
H219   H     0.91864   0.35090   0.23208   0.00000  Uiso   1.00
H220   H     0.70439   0.39111   0.69349   0.00000  Uiso   1.00
H221   H     0.53931   0.97078   0.43588   0.00000  Uiso   1.00
O222   O     0.84948   0.43471   0.13134   0.00000  Uiso   1.00
O223   O     0.56838   0.48746   0.73669   0.00000  Uiso   1.00
O224   O     0.35179   0.93599   0.39871   0.00000  Uiso   1.00
N225   N     0.70443   0.41803   0.19792   0.00000  Uiso   1.00
N226   N     0.50413   0.45563   0.62931   0.00000  Uiso   1.00
N227   N     0.34978   0.06266   0.38848   0.00000  Uiso   1.00
N228   N     0.84530   0.36589   0.23191   0.00000  Uiso   1.00
N229   N     0.64500   0.40350   0.66330   0.00000  Uiso   1.00
N230   N     0.49065   0.01052   0.42247   0.00000  Uiso   1.00
C231   C     0.99294   0.68332   0.40221   0.00000  Uiso   1.00
C232   C     0.90413   0.66814   0.35421   0.00000  Uiso   1.00
C233   C     0.90791   0.62632   0.29492   0.00000  Uiso   1.00
C234   C     0.81843   0.61898   0.25807   0.00000  Uiso   1.00
C235   C     0.69419   0.59031   0.18025   0.00000  Uiso   1.00
C236   C     0.95932   0.65776   0.47310   0.00000  Uiso   1.00
C237   C     0.00953   0.60723   0.51378   0.00000  Uiso   1.00
C238   C     0.96650   0.59116   0.57701   0.00000  Uiso   1.00
C239   C     0.92800   0.54643   0.68379   0.00000  Uiso   1.00
C240   C     0.00185   0.76606   0.40672   0.00000  Uiso   1.00
C241   C     0.08783   0.80660   0.39159   0.00000  Uiso   1.00
C242   C     0.08063   0.88171   0.39895   0.00000  Uiso   1.00
C243   C     0.10817   0.00513   0.40267   0.00000  Uiso   1.00
C244   C     0.82728   0.74463   0.44219   0.00000  Uiso   1.00
C245   C     0.81415   0.70144   0.37593   0.00000  Uiso   1.00
C246   C     0.72463   0.69416   0.33915   0.00000  Uiso   1.00
C247   C     0.72829   0.65234   0.27982   0.00000  Uiso   1.00
C248   C     0.86934   0.69106   0.49481   0.00000  Uiso   1.00
C249   C     0.82624   0.67507   0.55800   0.00000  Uiso   1.00
C250   C     0.87636   0.62452   0.59876   0.00000  Uiso   1.00
C251   C     0.91187   0.79937   0.42843   0.00000  Uiso   1.00
C252   C     0.90454   0.87443   0.43582   0.00000  Uiso   1.00
C253   C     0.99049   0.91507   0.42071   0.00000  Uiso   1.00
H254   H     0.06300   0.65739   0.38531   0.00000  Uiso   1.00
H255   H     0.97756   0.60055   0.27814   0.00000  Uiso   1.00
H256   H     0.07916   0.58148   0.49696   0.00000  Uiso   1.00
H257   H     0.15745   0.78081   0.37479   0.00000  Uiso   1.00
H258   H     0.84315   0.55221   0.16891   0.00000  Uiso   1.00
H259   H     0.05740   0.51200   0.63032   0.00000  Uiso   1.00
H260   H     0.22249   0.93233   0.37271   0.00000  Uiso   1.00
H261   H     0.75723   0.77056   0.45909   0.00000  Uiso   1.00
H262   H     0.65501   0.71994   0.35597   0.00000  Uiso   1.00
H263   H     0.75661   0.70085   0.57479   0.00000  Uiso   1.00
H264   H     0.83490   0.90019   0.45262   0.00000  Uiso   1.00
H265   H     0.58136   0.64910   0.23208   0.00000  Uiso   1.00
H266   H     0.79561   0.60889   0.69349   0.00000  Uiso   1.00
H267   H     0.96069   0.02922   0.43588   0.00000  Uiso   1.00
O268   O     0.65052   0.56529   0.13134   0.00000  Uiso   1.00
O269   O     0.93162   0.51254   0.73669   0.00000  Uiso   1.00
O270   O     0.14821   0.06401   0.39871   0.00000  Uiso   1.00
N271   N     0.79557   0.58197   0.19792   0.00000  Uiso   1.00
N272   N     0.99587   0.54437   0.62931   0.00000  Uiso   1.00
N273   N     0.15022   0.93734   0.38848   0.00000  Uiso   1.00
N274   N     0.65470   0.63411   0.23191   0.00000  Uiso   1.00
N275   N     0.85500   0.59650   0.66330   0.00000  Uiso   1.00
N276   N     0.00935   0.98948   0.42247   0.00000  Uiso   1.00
C277   C     0.99294   0.81668   0.09779   0.00000  Uiso   1.00
C278   C     0.90413   0.83186   0.14579   0.00000  Uiso   1.00
C279   C     0.90791   0.87368   0.20508   0.00000  Uiso   1.00
C280   C     0.81843   0.88102   0.24193   0.00000  Uiso   1.00
C281   C     0.69419   0.90969   0.31975   0.00000  Uiso   1.00
C282   C     0.95932   0.84224   0.02690   0.00000  Uiso   1.00
C283   C     0.00953   0.89277   0.98622   0.00000  Uiso   1.00
C284   C     0.96650   0.90884   0.92299   0.00000  Uiso   1.00
C285   C     0.92800   0.95357   0.81621   0.00000  Uiso   1.00
C286   C     0.00185   0.73394   0.09328   0.00000  Uiso   1.00
C287   C     0.08783   0.69340   0.10841   0.00000  Uiso   1.00
C288   C     0.08063   0.61829   0.10105   0.00000  Uiso   1.00
C289   C     0.10817   0.49487   0.09733   0.00000  Uiso   1.00
C290   C     0.82728   0.75537   0.05781   0.00000  Uiso   1.00
C291   C     0.81415   0.79856   0.12407   0.00000  Uiso   1.00
C292   C     0.72463   0.80584   0.16085   0.00000  Uiso   1.00
C293   C     0.72829   0.84766   0.22018   0.00000  Uiso   1.00
C294   C     0.86934   0.80894   0.00519   0.00000  Uiso   1.00
C295   C     0.82624   0.82493   0.94200   0.00000  Uiso   1.00
C296   C     0.87636   0.87548   0.90124   0.00000  Uiso   1.00
C297   C     0.91187   0.70063   0.07157   0.00000  Uiso   1.00
C298   C     0.90454   0.62557   0.06418   0.00000  Uiso   1.00
C299   C     0.99049   0.58493   0.07929   0.00000  Uiso   1.00
H300   H     0.06300   0.84261   0.11469   0.00000  Uiso   1.00
H301   H     0.97756   0.89945   0.22186   0.00000  Uiso   1.00
H302   H     0.07916   0.91852   0.00304   0.00000  Uiso   1.00
H303   H     0.15745   0.71919   0.12521   0.00000  Uiso   1.00
H304   H     0.84315   0.94779   0.33109   0.00000  Uiso   1.00
H305   H     0.05740   0.98800   0.86968   0.00000  Uiso   1.00
H306   H     0.22249   0.56767   0.12729   0.00000  Uiso   1.00
H307   H     0.75723   0.72944   0.04091   0.00000  Uiso   1.00
H308   H     0.65501   0.78006   0.14403   0.00000  Uiso   1.00
H309   H     0.75661   0.79915   0.92521   0.00000  Uiso   1.00
H310   H     0.83490   0.59981   0.04738   0.00000  Uiso   1.00
H311   H     0.58136   0.85090   0.26792   0.00000  Uiso   1.00
H312   H     0.79561   0.89111   0.80651   0.00000  Uiso   1.00
H313   H     0.96069   0.47078   0.06412   0.00000  Uiso   1.00
O314   O     0.65052   0.93471   0.36866   0.00000  Uiso   1.00
O315   O     0.93162   0.98746   0.76331   0.00000  Uiso   1.00
O316   O     0.14821   0.43599   0.10129   0.00000  Uiso   1.00
N317   N     0.79557   0.91803   0.30208   0.00000  Uiso   1.00
N318   N     0.99587   0.95563   0.87069   0.00000  Uiso   1.00
N319   N     0.15022   0.56266   0.11152   0.00000  Uiso   1.00
N320   N     0.65470   0.86589   0.26809   0.00000  Uiso   1.00
N321   N     0.85500   0.90350   0.83670   0.00000  Uiso   1.00
N322   N     0.00935   0.51052   0.07753   0.00000  Uiso   1.00
C323   C     0.50706   0.18332   0.09779   0.00000  Uiso   1.00
C324   C     0.59587   0.16814   0.14579   0.00000  Uiso   1.00
C325   C     0.59209   0.12632   0.20508   0.00000  Uiso   1.00
C326   C     0.68157   0.11898   0.24193   0.00000  Uiso   1.00
C327   C     0.80581   0.09031   0.31975   0.00000  Uiso   1.00
C328   C     0.54068   0.15776   0.02690   0.00000  Uiso   1.00
C329   C     0.49047   0.10723   0.98622   0.00000  Uiso   1.00
C330   C     0.53350   0.09116   0.92299   0.00000  Uiso   1.00
C331   C     0.57200   0.04643   0.81621   0.00000  Uiso   1.00
C332   C     0.49815   0.26606   0.09328   0.00000  Uiso   1.00
C333   C     0.41217   0.30660   0.10841   0.00000  Uiso   1.00
C334   C     0.41937   0.38171   0.10105   0.00000  Uiso   1.00
C335   C     0.39183   0.50513   0.09733   0.00000  Uiso   1.00
C336   C     0.67272   0.24463   0.05781   0.00000  Uiso   1.00
C337   C     0.68585   0.20144   0.12407   0.00000  Uiso   1.00
C338   C     0.77537   0.19416   0.16085   0.00000  Uiso   1.00
C339   C     0.77171   0.15234   0.22018   0.00000  Uiso   1.00
C340   C     0.63066   0.19106   0.00519   0.00000  Uiso   1.00
C341   C     0.67376   0.17507   0.94200   0.00000  Uiso   1.00
C342   C     0.62364   0.12452   0.90124   0.00000  Uiso   1.00
C343   C     0.58813   0.29937   0.07157   0.00000  Uiso   1.00
C344   C     0.59546   0.37443   0.06418   0.00000  Uiso   1.00
C345   C     0.50951   0.41507   0.07929   0.00000  Uiso   1.00
H346   H     0.43700   0.15739   0.11469   0.00000  Uiso   1.00
H347   H     0.52244   0.10055   0.22186   0.00000  Uiso   1.00
H348   H     0.42084   0.08148   0.00304   0.00000  Uiso   1.00
H349   H     0.34255   0.28081   0.12521   0.00000  Uiso   1.00
H350   H     0.65685   0.05221   0.33109   0.00000  Uiso   1.00
H351   H     0.44260   0.01200   0.86968   0.00000  Uiso   1.00
H352   H     0.27751   0.43233   0.12729   0.00000  Uiso   1.00
H353   H     0.74277   0.27056   0.04091   0.00000  Uiso   1.00
H354   H     0.84499   0.21994   0.14403   0.00000  Uiso   1.00
H355   H     0.74339   0.20085   0.92521   0.00000  Uiso   1.00
H356   H     0.66510   0.40019   0.04738   0.00000  Uiso   1.00
H357   H     0.91864   0.14910   0.26792   0.00000  Uiso   1.00
H358   H     0.70439   0.10889   0.80651   0.00000  Uiso   1.00
H359   H     0.53931   0.52922   0.06412   0.00000  Uiso   1.00
O360   O     0.84948   0.06529   0.36866   0.00000  Uiso   1.00
O361   O     0.56838   0.01254   0.76331   0.00000  Uiso   1.00
O362   O     0.35179   0.56401   0.10129   0.00000  Uiso   1.00
N363   N     0.70443   0.08197   0.30208   0.00000  Uiso   1.00
N364   N     0.50413   0.04437   0.87069   0.00000  Uiso   1.00
N365   N     0.34978   0.43734   0.11152   0.00000  Uiso   1.00
N366   N     0.84530   0.13411   0.26809   0.00000  Uiso   1.00
N367   N     0.64500   0.09650   0.83670   0.00000  Uiso   1.00
N368   N     0.49065   0.48948   0.07753   0.00000  Uiso   1.00
