data_job_02090
_audit_creation_date              2018-12-19
_audit_creation_method            'Materials Studio'
_symmetry_space_group_name_H-M    'P1'
_symmetry_Int_Tables_number       1
_symmetry_cell_setting            triclinic
loop_
_symmetry_equiv_pos_as_xyz
  x,y,z
_cell_length_a                    9.9616
_cell_length_b                    43.6543
_cell_length_c                    9.0820
_cell_angle_alpha                 90.0000
_cell_angle_beta                  98.0278
_cell_angle_gamma                 90.0000
loop_
_atom_site_label
_atom_site_type_symbol
_atom_site_fract_x
_atom_site_fract_y
_atom_site_fract_z
_atom_site_U_iso_or_equiv
_atom_site_adp_type
_atom_site_occupancy
C1     C     0.66989   0.83538   0.48537   0.00000  Uiso   1.00
C2     C     0.63342   0.86923   0.49210   0.00000  Uiso   1.00
C3     C     0.56700   0.88288   0.59956   0.00000  Uiso   1.00
C4     C     0.54298   0.91415   0.58612   0.00000  Uiso   1.00
C5     C     0.48006   0.96413   0.61429   0.00000  Uiso   1.00
C6     C     0.60527   0.82411   0.33288   0.00000  Uiso   1.00
C7     C     0.51519   0.79983   0.30647   0.00000  Uiso   1.00
C8     C     0.46749   0.79312   0.15899   0.00000  Uiso   1.00
C9     C     0.36094   0.77304   0.93996   0.00000  Uiso   1.00
C10    C     0.82267   0.83421   0.48383   0.00000  Uiso   1.00
C11    C     0.91540   0.81842   0.58432   0.00000  Uiso   1.00
C12    C     0.05074   0.82021   0.56391   0.00000  Uiso   1.00
C13    C     0.28174   0.81581   0.57926   0.00000  Uiso   1.00
C14    C     0.74535   0.86663   0.27043   0.00000  Uiso   1.00
C15    C     0.67441   0.88620   0.37535   0.00000  Uiso   1.00
C16    C     0.65049   0.91746   0.36175   0.00000  Uiso   1.00
C17    C     0.58404   0.93116   0.46917   0.00000  Uiso   1.00
C18    C     0.64625   0.84109   0.21613   0.00000  Uiso   1.00
C19    C     0.59868   0.83441   0.06866   0.00000  Uiso   1.00
C20    C     0.50855   0.81013   0.04203   0.00000  Uiso   1.00
C21    C     0.86366   0.85119   0.36708   0.00000  Uiso   1.00
C22    C     0.99888   0.85300   0.34651   0.00000  Uiso   1.00
C23    C     0.09179   0.83722   0.44695   0.00000  Uiso   1.00
H24    H     0.63797   0.82216   0.57626   0.00000  Uiso   1.00
H25    H     0.53528   0.86973   0.68989   0.00000  Uiso   1.00
H26    H     0.48350   0.78669   0.39684   0.00000  Uiso   1.00
H27    H     0.88364   0.80528   0.67465   0.00000  Uiso   1.00
H28    H     0.43947   0.92996   0.76434   0.00000  Uiso   1.00
H29    H     0.33031   0.75486   0.14644   0.00000  Uiso   1.00
H30    H     0.17409   0.79406   0.73226   0.00000  Uiso   1.00
H31    H     0.77726   0.87985   0.17953   0.00000  Uiso   1.00
H32    H     0.68222   0.93059   0.27139   0.00000  Uiso   1.00
H33    H     0.63042   0.84755   0.97834   0.00000  Uiso   1.00
H34    H     0.03056   0.86614   0.25615   0.00000  Uiso   1.00
H35    H     0.55871   0.97936   0.42467   0.00000  Uiso   1.00
H36    H     0.44956   0.80426   0.80676   0.00000  Uiso   1.00
H37    H     0.29334   0.84346   0.39258   0.00000  Uiso   1.00
O38    O     0.43402   0.98700   0.66206   0.00000  Uiso   1.00
O39    O     0.29083   0.75727   0.85140   0.00000  Uiso   1.00
O40    O     0.39784   0.80870   0.61998   0.00000  Uiso   1.00
N41    N     0.48060   0.93463   0.67181   0.00000  Uiso   1.00
N42    N     0.37853   0.77092   0.09411   0.00000  Uiso   1.00
N43    N     0.16738   0.80756   0.64177   0.00000  Uiso   1.00
N44    N     0.54477   0.96121   0.48904   0.00000  Uiso   1.00
N45    N     0.44269   0.79750   0.91133   0.00000  Uiso   1.00
N46    N     0.23155   0.83414   0.45900   0.00000  Uiso   1.00
C47    C     0.33011   0.33538   0.01463   0.00000  Uiso   1.00
C48    C     0.36658   0.36923   0.00790   0.00000  Uiso   1.00
C49    C     0.43300   0.38288   0.90044   0.00000  Uiso   1.00
C50    C     0.45702   0.41415   0.91388   0.00000  Uiso   1.00
C51    C     0.51994   0.46413   0.88571   0.00000  Uiso   1.00
C52    C     0.39473   0.32411   0.16712   0.00000  Uiso   1.00
C53    C     0.48481   0.29983   0.19353   0.00000  Uiso   1.00
C54    C     0.53251   0.29312   0.34101   0.00000  Uiso   1.00
C55    C     0.63906   0.27304   0.56004   0.00000  Uiso   1.00
C56    C     0.17733   0.33421   0.01617   0.00000  Uiso   1.00
C57    C     0.08460   0.31842   0.91568   0.00000  Uiso   1.00
C58    C     0.94926   0.32021   0.93609   0.00000  Uiso   1.00
C59    C     0.71826   0.31581   0.92074   0.00000  Uiso   1.00
C60    C     0.25465   0.36663   0.22957   0.00000  Uiso   1.00
C61    C     0.32559   0.38620   0.12465   0.00000  Uiso   1.00
C62    C     0.34951   0.41746   0.13825   0.00000  Uiso   1.00
C63    C     0.41596   0.43116   0.03083   0.00000  Uiso   1.00
C64    C     0.35375   0.34109   0.28387   0.00000  Uiso   1.00
C65    C     0.40132   0.33441   0.43134   0.00000  Uiso   1.00
C66    C     0.49145   0.31013   0.45797   0.00000  Uiso   1.00
C67    C     0.13634   0.35119   0.13292   0.00000  Uiso   1.00
C68    C     0.00112   0.35300   0.15349   0.00000  Uiso   1.00
C69    C     0.90821   0.33722   0.05305   0.00000  Uiso   1.00
H70    H     0.36203   0.32216   0.92374   0.00000  Uiso   1.00
H71    H     0.46472   0.36973   0.81011   0.00000  Uiso   1.00
H72    H     0.51650   0.28669   0.10316   0.00000  Uiso   1.00
H73    H     0.11636   0.30528   0.82535   0.00000  Uiso   1.00
H74    H     0.56053   0.42996   0.73566   0.00000  Uiso   1.00
H75    H     0.66969   0.25486   0.35356   0.00000  Uiso   1.00
H76    H     0.82591   0.29406   0.76774   0.00000  Uiso   1.00
H77    H     0.22274   0.37985   0.32047   0.00000  Uiso   1.00
H78    H     0.31778   0.43059   0.22861   0.00000  Uiso   1.00
H79    H     0.36958   0.34755   0.52166   0.00000  Uiso   1.00
H80    H     0.96944   0.36614   0.24385   0.00000  Uiso   1.00
H81    H     0.44129   0.47936   0.07533   0.00000  Uiso   1.00
H82    H     0.55044   0.30426   0.69324   0.00000  Uiso   1.00
H83    H     0.70666   0.34346   0.10742   0.00000  Uiso   1.00
O84    O     0.56598   0.48700   0.83794   0.00000  Uiso   1.00
O85    O     0.70917   0.25727   0.64860   0.00000  Uiso   1.00
O86    O     0.60216   0.30870   0.88002   0.00000  Uiso   1.00
N87    N     0.51940   0.43463   0.82819   0.00000  Uiso   1.00
N88    N     0.62147   0.27092   0.40589   0.00000  Uiso   1.00
N89    N     0.83262   0.30756   0.85823   0.00000  Uiso   1.00
N90    N     0.45523   0.46121   0.01096   0.00000  Uiso   1.00
N91    N     0.55731   0.29750   0.58867   0.00000  Uiso   1.00
N92    N     0.76845   0.33414   0.04100   0.00000  Uiso   1.00
C93    C     0.33011   0.16462   0.51463   0.00000  Uiso   1.00
C94    C     0.36658   0.13077   0.50790   0.00000  Uiso   1.00
C95    C     0.43300   0.11712   0.40044   0.00000  Uiso   1.00
C96    C     0.45702   0.08585   0.41388   0.00000  Uiso   1.00
C97    C     0.51994   0.03587   0.38571   0.00000  Uiso   1.00
C98    C     0.39473   0.17589   0.66712   0.00000  Uiso   1.00
C99    C     0.48481   0.20017   0.69353   0.00000  Uiso   1.00
C100   C     0.53251   0.20688   0.84101   0.00000  Uiso   1.00
C101   C     0.63906   0.22696   0.06004   0.00000  Uiso   1.00
C102   C     0.17733   0.16579   0.51617   0.00000  Uiso   1.00
C103   C     0.08460   0.18158   0.41568   0.00000  Uiso   1.00
C104   C     0.94926   0.17979   0.43609   0.00000  Uiso   1.00
C105   C     0.71826   0.18419   0.42074   0.00000  Uiso   1.00
C106   C     0.25465   0.13337   0.72957   0.00000  Uiso   1.00
C107   C     0.32559   0.11380   0.62465   0.00000  Uiso   1.00
C108   C     0.34951   0.08254   0.63825   0.00000  Uiso   1.00
C109   C     0.41596   0.06884   0.53083   0.00000  Uiso   1.00
C110   C     0.35375   0.15891   0.78387   0.00000  Uiso   1.00
C111   C     0.40132   0.16559   0.93134   0.00000  Uiso   1.00
C112   C     0.49145   0.18987   0.95797   0.00000  Uiso   1.00
C113   C     0.13634   0.14881   0.63292   0.00000  Uiso   1.00
C114   C     0.00112   0.14700   0.65349   0.00000  Uiso   1.00
C115   C     0.90821   0.16278   0.55305   0.00000  Uiso   1.00
H116   H     0.36203   0.17784   0.42374   0.00000  Uiso   1.00
H117   H     0.46472   0.13027   0.31011   0.00000  Uiso   1.00
H118   H     0.51650   0.21331   0.60316   0.00000  Uiso   1.00
H119   H     0.11636   0.19472   0.32535   0.00000  Uiso   1.00
H120   H     0.56053   0.07004   0.23566   0.00000  Uiso   1.00
H121   H     0.66969   0.24514   0.85356   0.00000  Uiso   1.00
H122   H     0.82591   0.20594   0.26774   0.00000  Uiso   1.00
H123   H     0.22274   0.12015   0.82047   0.00000  Uiso   1.00
H124   H     0.31778   0.06941   0.72861   0.00000  Uiso   1.00
H125   H     0.36958   0.15245   0.02166   0.00000  Uiso   1.00
H126   H     0.96944   0.13386   0.74385   0.00000  Uiso   1.00
H127   H     0.44129   0.02064   0.57533   0.00000  Uiso   1.00
H128   H     0.55044   0.19574   0.19324   0.00000  Uiso   1.00
H129   H     0.70666   0.15654   0.60742   0.00000  Uiso   1.00
O130   O     0.56598   0.01300   0.33794   0.00000  Uiso   1.00
O131   O     0.70917   0.24273   0.14860   0.00000  Uiso   1.00
O132   O     0.60216   0.19130   0.38002   0.00000  Uiso   1.00
N133   N     0.51940   0.06537   0.32819   0.00000  Uiso   1.00
N134   N     0.62147   0.22908   0.90589   0.00000  Uiso   1.00
N135   N     0.83262   0.19244   0.35823   0.00000  Uiso   1.00
N136   N     0.45523   0.03879   0.51096   0.00000  Uiso   1.00
N137   N     0.55731   0.20250   0.08867   0.00000  Uiso   1.00
N138   N     0.76845   0.16586   0.54100   0.00000  Uiso   1.00
C139   C     0.66989   0.66462   0.98537   0.00000  Uiso   1.00
C140   C     0.63342   0.63077   0.99210   0.00000  Uiso   1.00
C141   C     0.56700   0.61712   0.09956   0.00000  Uiso   1.00
C142   C     0.54298   0.58585   0.08612   0.00000  Uiso   1.00
C143   C     0.48006   0.53587   0.11429   0.00000  Uiso   1.00
C144   C     0.60527   0.67589   0.83288   0.00000  Uiso   1.00
C145   C     0.51519   0.70017   0.80647   0.00000  Uiso   1.00
C146   C     0.46749   0.70688   0.65899   0.00000  Uiso   1.00
C147   C     0.36094   0.72696   0.43996   0.00000  Uiso   1.00
C148   C     0.82267   0.66579   0.98383   0.00000  Uiso   1.00
C149   C     0.91540   0.68158   0.08432   0.00000  Uiso   1.00
C150   C     0.05074   0.67979   0.06391   0.00000  Uiso   1.00
C151   C     0.28174   0.68419   0.07926   0.00000  Uiso   1.00
C152   C     0.74535   0.63337   0.77043   0.00000  Uiso   1.00
C153   C     0.67441   0.61380   0.87535   0.00000  Uiso   1.00
C154   C     0.65049   0.58254   0.86175   0.00000  Uiso   1.00
C155   C     0.58404   0.56884   0.96917   0.00000  Uiso   1.00
C156   C     0.64625   0.65891   0.71613   0.00000  Uiso   1.00
C157   C     0.59868   0.66559   0.56866   0.00000  Uiso   1.00
C158   C     0.50855   0.68987   0.54203   0.00000  Uiso   1.00
C159   C     0.86366   0.64881   0.86708   0.00000  Uiso   1.00
C160   C     0.99888   0.64700   0.84651   0.00000  Uiso   1.00
C161   C     0.09179   0.66278   0.94695   0.00000  Uiso   1.00
H162   H     0.63797   0.67784   0.07626   0.00000  Uiso   1.00
H163   H     0.53528   0.63027   0.18989   0.00000  Uiso   1.00
H164   H     0.48350   0.71331   0.89684   0.00000  Uiso   1.00
H165   H     0.88364   0.69472   0.17465   0.00000  Uiso   1.00
H166   H     0.43947   0.57004   0.26434   0.00000  Uiso   1.00
H167   H     0.33031   0.74514   0.64644   0.00000  Uiso   1.00
H168   H     0.17409   0.70594   0.23226   0.00000  Uiso   1.00
H169   H     0.77726   0.62015   0.67953   0.00000  Uiso   1.00
H170   H     0.68222   0.56941   0.77139   0.00000  Uiso   1.00
H171   H     0.63042   0.65245   0.47834   0.00000  Uiso   1.00
H172   H     0.03056   0.63386   0.75615   0.00000  Uiso   1.00
H173   H     0.55871   0.52064   0.92467   0.00000  Uiso   1.00
H174   H     0.44956   0.69574   0.30676   0.00000  Uiso   1.00
H175   H     0.29334   0.65654   0.89258   0.00000  Uiso   1.00
O176   O     0.43402   0.51300   0.16206   0.00000  Uiso   1.00
O177   O     0.29083   0.74273   0.35140   0.00000  Uiso   1.00
O178   O     0.39784   0.69130   0.11998   0.00000  Uiso   1.00
N179   N     0.48060   0.56537   0.17181   0.00000  Uiso   1.00
N180   N     0.37853   0.72908   0.59411   0.00000  Uiso   1.00
N181   N     0.16738   0.69244   0.14177   0.00000  Uiso   1.00
N182   N     0.54477   0.53879   0.98904   0.00000  Uiso   1.00
N183   N     0.44269   0.70250   0.41133   0.00000  Uiso   1.00
N184   N     0.23155   0.66586   0.95900   0.00000  Uiso   1.00
