data_job_06772
_audit_creation_date              2018-12-19
_audit_creation_method            'Materials Studio'
_symmetry_space_group_name_H-M    'P1'
_symmetry_Int_Tables_number       1
_symmetry_cell_setting            triclinic
loop_
_symmetry_equiv_pos_as_xyz
  x,y,z
_cell_length_a                    20.6272
_cell_length_b                    22.5533
_cell_length_c                    22.6494
_cell_angle_alpha                 61.8351
_cell_angle_beta                  76.0825
_cell_angle_gamma                 103.2310
loop_
_atom_site_label
_atom_site_type_symbol
_atom_site_fract_x
_atom_site_fract_y
_atom_site_fract_z
_atom_site_U_iso_or_equiv
_atom_site_adp_type
_atom_site_occupancy
C1     C     0.32707   0.19939   0.81823   0.00000  Uiso   1.00
C2     C     0.31620   0.24941   0.75047   0.00000  Uiso   1.00
C3     C     0.24987   0.25032   0.74789   0.00000  Uiso   1.00
C4     C     0.25145   0.30014   0.68064   0.00000  Uiso   1.00
C5     C     0.22459   0.37061   0.58490   0.00000  Uiso   1.00
C6     C     0.36722   0.15830   0.79797   0.00000  Uiso   1.00
C7     C     0.34379   0.08259   0.83535   0.00000  Uiso   1.00
C8     C     0.38832   0.05572   0.80809   0.00000  Uiso   1.00
C9     C     0.44070   0.98473   0.78613   0.00000  Uiso   1.00
C10    C     0.38053   0.24997   0.82754   0.00000  Uiso   1.00
C11    C     0.36829   0.25134   0.88979   0.00000  Uiso   1.00
C12    C     0.42403   0.30164   0.88744   0.00000  Uiso   1.00
C13    C     0.49707   0.37300   0.91139   0.00000  Uiso   1.00
C14    C     0.44782   0.28625   0.70337   0.00000  Uiso   1.00
C15    C     0.38179   0.29659   0.68808   0.00000  Uiso   1.00
C16    C     0.38347   0.34643   0.62081   0.00000  Uiso   1.00
C17    C     0.31715   0.34741   0.61814   0.00000  Uiso   1.00
C18    C     0.43281   0.20547   0.73558   0.00000  Uiso   1.00
C19    C     0.47738   0.17870   0.70827   0.00000  Uiso   1.00
C20    C     0.45402   0.10298   0.74559   0.00000  Uiso   1.00
C21    C     0.44611   0.29716   0.76515   0.00000  Uiso   1.00
C22    C     0.50189   0.34745   0.76271   0.00000  Uiso   1.00
C23    C     0.48974   0.34890   0.82494   0.00000  Uiso   1.00
H24    H     0.27601   0.16265   0.86680   0.00000  Uiso   1.00
H25    H     0.19913   0.21379   0.79619   0.00000  Uiso   1.00
H26    H     0.29304   0.04610   0.88363   0.00000  Uiso   1.00
H27    H     0.31753   0.21482   0.93806   0.00000  Uiso   1.00
H28    H     0.14281   0.29128   0.69037   0.00000  Uiso   1.00
H29    H     0.34084   0.93769   0.87476   0.00000  Uiso   1.00
H30    H     0.39249   0.29348   0.98955   0.00000  Uiso   1.00
H31    H     0.49888   0.32298   0.65480   0.00000  Uiso   1.00
H32    H     0.43423   0.38293   0.57254   0.00000  Uiso   1.00
H33    H     0.52814   0.21523   0.65999   0.00000  Uiso   1.00
H34    H     0.55263   0.38396   0.71442   0.00000  Uiso   1.00
H35    H     0.33363   0.42856   0.50886   0.00000  Uiso   1.00
H36    H     0.53165   0.07496   0.69325   0.00000  Uiso   1.00
H37    H     0.58331   0.43075   0.80803   0.00000  Uiso   1.00
O38    O     0.19166   0.39644   0.54933   0.00000  Uiso   1.00
O39    O     0.45147   0.93254   0.79125   0.00000  Uiso   1.00
O40    O     0.51924   0.39933   0.94184   0.00000  Uiso   1.00
N41    N     0.19659   0.31538   0.65895   0.00000  Uiso   1.00
N42    N     0.38173   0.98478   0.83133   0.00000  Uiso   1.00
N43    N     0.43003   0.31740   0.93865   0.00000  Uiso   1.00
N44    N     0.29927   0.38924   0.56127   0.00000  Uiso   1.00
N45    N     0.48441   0.05865   0.73366   0.00000  Uiso   1.00
N46    N     0.53271   0.39127   0.84098   0.00000  Uiso   1.00
C47    C     0.68222   0.74308   0.03825   0.00000  Uiso   1.00
C48    C     0.73840   0.73204   0.99130   0.00000  Uiso   1.00
C49    C     0.76900   0.77233   0.91529   0.00000  Uiso   1.00
C50    C     0.81940   0.75373   0.88260   0.00000  Uiso   1.00
C51    C     0.90371   0.74520   0.80332   0.00000  Uiso   1.00
C52    C     0.61725   0.66916   0.08963   0.00000  Uiso   1.00
C53    C     0.54598   0.65658   0.09631   0.00000  Uiso   1.00
C54    C     0.49440   0.58505   0.14641   0.00000  Uiso   1.00
C55    C     0.39060   0.47891   0.21983   0.00000  Uiso   1.00
C56    C     0.71507   0.75631   0.08668   0.00000  Uiso   1.00
C57    C     0.72603   0.81700   0.09090   0.00000  Uiso   1.00
C58    C     0.75679   0.81884   0.13853   0.00000  Uiso   1.00
C59    C     0.80487   0.84802   0.20737   0.00000  Uiso   1.00
C60    C     0.71733   0.63840   0.11537   0.00000  Uiso   1.00
C61    C     0.75747   0.67518   0.03319   0.00000  Uiso   1.00
C62    C     0.80784   0.65651   0.00061   0.00000  Uiso   1.00
C63    C     0.83851   0.69677   0.92457   0.00000  Uiso   1.00
C64    C     0.63631   0.61230   0.13152   0.00000  Uiso   1.00
C65    C     0.58483   0.54077   0.18163   0.00000  Uiso   1.00
C66    C     0.51350   0.52809   0.18837   0.00000  Uiso   1.00
C67    C     0.73414   0.69945   0.12857   0.00000  Uiso   1.00
C68    C     0.76488   0.70119   0.17622   0.00000  Uiso   1.00
C69    C     0.77589   0.76188   0.18050   0.00000  Uiso   1.00
H70    H     0.66737   0.78734   0.00564   0.00000  Uiso   1.00
H71    H     0.75422   0.81632   0.88289   0.00000  Uiso   1.00
H72    H     0.53123   0.70059   0.06389   0.00000  Uiso   1.00
H73    H     0.71126   0.86099   0.05847   0.00000  Uiso   1.00
H74    H     0.85890   0.82336   0.76527   0.00000  Uiso   1.00
H75    H     0.38872   0.57934   0.14692   0.00000  Uiso   1.00
H76    H     0.76834   0.91758   0.13551   0.00000  Uiso   1.00
H77    H     0.73218   0.59413   0.14799   0.00000  Uiso   1.00
H78    H     0.82259   0.61251   0.03304   0.00000  Uiso   1.00
H79    H     0.59960   0.49678   0.21404   0.00000  Uiso   1.00
H80    H     0.77963   0.65718   0.20862   0.00000  Uiso   1.00
H81    H     0.91439   0.65793   0.88713   0.00000  Uiso   1.00
H82    H     0.44421   0.41392   0.26880   0.00000  Uiso   1.00
H83    H     0.82384   0.75215   0.25738   0.00000  Uiso   1.00
O84    O     0.94493   0.75620   0.74802   0.00000  Uiso   1.00
O85    O     0.32808   0.43607   0.24875   0.00000  Uiso   1.00
O86    O     0.82614   0.87983   0.23377   0.00000  Uiso   1.00
N87    N     0.85956   0.78191   0.80972   0.00000  Uiso   1.00
N88    N     0.41998   0.55377   0.16654   0.00000  Uiso   1.00
N89    N     0.77487   0.86998   0.15589   0.00000  Uiso   1.00
N90    N     0.88942   0.69290   0.87530   0.00000  Uiso   1.00
N91    N     0.44984   0.46476   0.23212   0.00000  Uiso   1.00
N92    N     0.80473   0.78097   0.22146   0.00000  Uiso   1.00
C93    C     0.83682   0.20860   0.02418   0.00000  Uiso   1.00
C94    C     0.77263   0.17806   0.01003   0.00000  Uiso   1.00
C95    C     0.77747   0.17073   0.95181   0.00000  Uiso   1.00
C96    C     0.71241   0.14160   0.94857   0.00000  Uiso   1.00
C97    C     0.62300   0.09742   0.91849   0.00000  Uiso   1.00
C98    C     0.82833   0.27210   0.02835   0.00000  Uiso   1.00
C99    C     0.88001   0.34383   0.98555   0.00000  Uiso   1.00
C100   C     0.86183   0.39386   0.99774   0.00000  Uiso   1.00
C101   C     0.85891   0.49567   0.99614   0.00000  Uiso   1.00
C102   C     0.82442   0.14912   0.10116   0.00000  Uiso   1.00
C103   C     0.87281   0.11745   0.11959   0.00000  Uiso   1.00
C104   C     0.85135   0.06394   0.19308   0.00000  Uiso   1.00
C105   C     0.84236   0.97480   0.30453   0.00000  Uiso   1.00
C106   C     0.71267   0.16990   0.12194   0.00000  Uiso   1.00
C107   C     0.70520   0.15705   0.06312   0.00000  Uiso   1.00
C108   C     0.64011   0.12791   0.05997   0.00000  Uiso   1.00
C109   C     0.64485   0.12054   0.00176   0.00000  Uiso   1.00
C110   C     0.76090   0.25109   0.08144   0.00000  Uiso   1.00
C111   C     0.74264   0.30102   0.09370   0.00000  Uiso   1.00
C112   C     0.79427   0.37281   0.05093   0.00000  Uiso   1.00
C113   C     0.75698   0.12810   0.15426   0.00000  Uiso   1.00
C114   C     0.73545   0.07463   0.22774   0.00000  Uiso   1.00
C115   C     0.78379   0.04289   0.24627   0.00000  Uiso   1.00
H116   H     0.88932   0.22497   0.98284   0.00000  Uiso   1.00
H117   H     0.82967   0.18701   0.91073   0.00000  Uiso   1.00
H118   H     0.93219   0.36008   0.94447   0.00000  Uiso   1.00
H119   H     0.92499   0.13373   0.07848   0.00000  Uiso   1.00
H120   H     0.73380   0.13568   0.85418   0.00000  Uiso   1.00
H121   H     0.94997   0.50061   0.92533   0.00000  Uiso   1.00
H122   H     0.93480   0.02331   0.20793   0.00000  Uiso   1.00
H123   H     0.66016   0.15354   0.16328   0.00000  Uiso   1.00
H124   H     0.58793   0.11165   0.10107   0.00000  Uiso   1.00
H125   H     0.69045   0.28473   0.13480   0.00000  Uiso   1.00
H126   H     0.68326   0.05838   0.26882   0.00000  Uiso   1.00
H127   H     0.53759   0.07452   0.00866   0.00000  Uiso   1.00
H128   H     0.75377   0.43946   0.07982   0.00000  Uiso   1.00
H129   H     0.73860   0.96215   0.36241   0.00000  Uiso   1.00
O130   O     0.59231   0.07886   0.88723   0.00000  Uiso   1.00
O131   O     0.87594   0.55763   0.98059   0.00000  Uiso   1.00
O132   O     0.85603   0.93142   0.35134   0.00000  Uiso   1.00
N133   N     0.69753   0.12702   0.89908   0.00000  Uiso   1.00
N134   N     0.89964   0.46821   0.96560   0.00000  Uiso   1.00
N135   N     0.88546   0.02199   0.22980   0.00000  Uiso   1.00
N136   N     0.59196   0.09411   0.98221   0.00000  Uiso   1.00
N137   N     0.79406   0.43530   0.04873   0.00000  Uiso   1.00
N138   N     0.77989   0.98908   0.31293   0.00000  Uiso   1.00
C139   C     0.16446   0.52243   0.23325   0.00000  Uiso   1.00
C140   C     0.22958   0.55440   0.16243   0.00000  Uiso   1.00
C141   C     0.25899   0.51430   0.14157   0.00000  Uiso   1.00
C142   C     0.31856   0.55377   0.07469   0.00000  Uiso   1.00
C143   C     0.41523   0.59173   0.97146   0.00000  Uiso   1.00
C144   C     0.10936   0.55242   0.21022   0.00000  Uiso   1.00
C145   C     0.03769   0.51066   0.22954   0.00000  Uiso   1.00
C146   C     0.99606   0.54847   0.20289   0.00000  Uiso   1.00
C147   C     0.90607   0.58336   0.17390   0.00000  Uiso   1.00
C148   C     0.19108   0.55736   0.27113   0.00000  Uiso   1.00
C149   C     0.18810   0.51976   0.34168   0.00000  Uiso   1.00
C150   C     0.21525   0.56173   0.36632   0.00000  Uiso   1.00
C151   C     0.25215   0.60429   0.43190   0.00000  Uiso   1.00
C152   C     0.21793   0.66383   0.15158   0.00000  Uiso   1.00
C153   C     0.25862   0.63120   0.11807   0.00000  Uiso   1.00
C154   C     0.31816   0.67074   0.05121   0.00000  Uiso   1.00
C155   C     0.34766   0.63071   0.03025   0.00000  Uiso   1.00
C156   C     0.13840   0.62922   0.16586   0.00000  Uiso   1.00
C157   C     0.09686   0.66710   0.13918   0.00000  Uiso   1.00
C158   C     0.02515   0.62541   0.15846   0.00000  Uiso   1.00
C159   C     0.22013   0.63417   0.22677   0.00000  Uiso   1.00
C160   C     0.24728   0.67620   0.25132   0.00000  Uiso   1.00
C161   C     0.24435   0.63867   0.32189   0.00000  Uiso   1.00
H162   H     0.14184   0.46263   0.26778   0.00000  Uiso   1.00
H163   H     0.23650   0.45486   0.17591   0.00000  Uiso   1.00
H164   H     0.01523   0.45123   0.26387   0.00000  Uiso   1.00
H165   H     0.16562   0.46033   0.37599   0.00000  Uiso   1.00
H166   H     0.35423   0.48012   0.05447   0.00000  Uiso   1.00
H167   H     0.88767   0.47245   0.23997   0.00000  Uiso   1.00
H168   H     0.20480   0.49164   0.47639   0.00000  Uiso   1.00
H169   H     0.24055   0.72362   0.11704   0.00000  Uiso   1.00
H170   H     0.34063   0.73018   0.01689   0.00000  Uiso   1.00
H171   H     0.11936   0.72653   0.10486   0.00000  Uiso   1.00
H172   H     0.26975   0.73563   0.21697   0.00000  Uiso   1.00
H173   H     0.43875   0.70357   0.92541   0.00000  Uiso   1.00
H174   H     0.97218   0.69590   0.11091   0.00000  Uiso   1.00
H175   H     0.28932   0.71509   0.34733   0.00000  Uiso   1.00
O176   O     0.46053   0.59145   0.92677   0.00000  Uiso   1.00
O177   O     0.84842   0.58138   0.17015   0.00000  Uiso   1.00
O178   O     0.26449   0.60656   0.48032   0.00000  Uiso   1.00
N179   N     0.36040   0.53181   0.03785   0.00000  Uiso   1.00
N180   N     0.92420   0.52464   0.21127   0.00000  Uiso   1.00
N181   N     0.22067   0.54258   0.43231   0.00000  Uiso   1.00
N182   N     0.40587   0.65205   0.96840   0.00000  Uiso   1.00
N183   N     0.96967   0.64487   0.14182   0.00000  Uiso   1.00
N184   N     0.26614   0.66281   0.36286   0.00000  Uiso   1.00
C185   C     0.54112   0.74153   0.61337   0.00000  Uiso   1.00
C186   C     0.51299   0.77340   0.55381   0.00000  Uiso   1.00
C187   C     0.54558   0.79315   0.48240   0.00000  Uiso   1.00
C188   C     0.51135   0.82129   0.43626   0.00000  Uiso   1.00
C189   C     0.47746   0.86951   0.34006   0.00000  Uiso   1.00
C190   C     0.47901   0.66894   0.67716   0.00000  Uiso   1.00
C191   C     0.48303   0.60088   0.70947   0.00000  Uiso   1.00
C192   C     0.42020   0.54108   0.76717   0.00000  Uiso   1.00
C193   C     0.33357   0.42715   0.86251   0.00000  Uiso   1.00
C194   C     0.54998   0.79242   0.64001   0.00000  Uiso   1.00
C195   C     0.61367   0.82815   0.64111   0.00000  Uiso   1.00
C196   C     0.61058   0.87230   0.66755   0.00000  Uiso   1.00
C197   C     0.63415   0.95007   0.70522   0.00000  Uiso   1.00
C198   C     0.42237   0.75637   0.65840   0.00000  Uiso   1.00
C199   C     0.44849   0.78146   0.57827   0.00000  Uiso   1.00
C200   C     0.41420   0.80957   0.53222   0.00000  Uiso   1.00
C201   C     0.44674   0.82937   0.46076   0.00000  Uiso   1.00
C202   C     0.41451   0.67700   0.70162   0.00000  Uiso   1.00
C203   C     0.35166   0.61730   0.75929   0.00000  Uiso   1.00
C204   C     0.35558   0.54916   0.79167   0.00000  Uiso   1.00
C205   C     0.48548   0.80048   0.66447   0.00000  Uiso   1.00
C206   C     0.48229   0.84458   0.69092   0.00000  Uiso   1.00
C207   C     0.54597   0.88037   0.69206   0.00000  Uiso   1.00
H208   H     0.59133   0.73525   0.59434   0.00000  Uiso   1.00
H209   H     0.59549   0.78690   0.46350   0.00000  Uiso   1.00
H210   H     0.53295   0.59465   0.69053   0.00000  Uiso   1.00
H211   H     0.66357   0.82190   0.62218   0.00000  Uiso   1.00
H212   H     0.57164   0.84769   0.32923   0.00000  Uiso   1.00
H213   H     0.43979   0.44234   0.80796   0.00000  Uiso   1.00
H214   H     0.71522   0.92152   0.66383   0.00000  Uiso   1.00
H215   H     0.37216   0.76265   0.67745   0.00000  Uiso   1.00
H216   H     0.36429   0.81581   0.55116   0.00000  Uiso   1.00
H217   H     0.30176   0.62356   0.77820   0.00000  Uiso   1.00
H218   H     0.43237   0.85080   0.70985   0.00000  Uiso   1.00
H219   H     0.38399   0.87115   0.40039   0.00000  Uiso   1.00
H220   H     0.25214   0.46580   0.87912   0.00000  Uiso   1.00
H221   H     0.52757   0.94498   0.73499   0.00000  Uiso   1.00
O222   O     0.47658   0.89387   0.28024   0.00000  Uiso   1.00
O223   O     0.30361   0.36207   0.90833   0.00000  Uiso   1.00
O224   O     0.66496   0.99075   0.71923   0.00000  Uiso   1.00
N225   N     0.52857   0.84593   0.36330   0.00000  Uiso   1.00
N226   N     0.40529   0.46695   0.81088   0.00000  Uiso   1.00
N227   N     0.66279   0.91493   0.67615   0.00000  Uiso   1.00
N228   N     0.42759   0.85855   0.40159   0.00000  Uiso   1.00
N229   N     0.30432   0.47957   0.84917   0.00000  Uiso   1.00
N230   N     0.56182   0.92755   0.71444   0.00000  Uiso   1.00
C231   C     0.09079   0.83742   0.44918   0.00000  Uiso   1.00
C232   C     0.05563   0.80055   0.41655   0.00000  Uiso   1.00
C233   C     0.99990   0.81118   0.39424   0.00000  Uiso   1.00
C234   C     0.97521   0.77235   0.36580   0.00000  Uiso   1.00
C235   C     0.91608   0.72239   0.31600   0.00000  Uiso   1.00
C236   C     0.17217   0.87608   0.40055   0.00000  Uiso   1.00
C237   C     0.21442   0.95022   0.36480   0.00000  Uiso   1.00
C238   C     0.28785   0.97496   0.32289   0.00000  Uiso   1.00
C239   C     0.40966   0.04225   0.24829   0.00000  Uiso   1.00
C240   C     0.08245   0.77542   0.52301   0.00000  Uiso   1.00
C241   C     0.04928   0.76492   0.59021   0.00000  Uiso   1.00
C242   C     0.04718   0.70492   0.65141   0.00000  Uiso   1.00
C243   C     0.02968   0.61591   0.76693   0.00000  Uiso   1.00
C244   C     0.14607   0.74954   0.43834   0.00000  Uiso   1.00
C245   C     0.08566   0.75282   0.41066   0.00000  Uiso   1.00
C246   C     0.06106   0.71396   0.38225   0.00000  Uiso   1.00
C247   C     0.00529   0.72453   0.35990   0.00000  Uiso   1.00
C248   C     0.20220   0.82835   0.39466   0.00000  Uiso   1.00
C249   C     0.27558   0.85299   0.35281   0.00000  Uiso   1.00
C250   C     0.31793   0.92714   0.31699   0.00000  Uiso   1.00
C251   C     0.11248   0.72768   0.51712   0.00000  Uiso   1.00
C252   C     0.11043   0.66769   0.57822   0.00000  Uiso   1.00
C253   C     0.07726   0.65710   0.64551   0.00000  Uiso   1.00
H254   H     0.06742   0.87459   0.45376   0.00000  Uiso   1.00
H255   H     0.97668   0.84813   0.39880   0.00000  Uiso   1.00
H256   H     0.19117   0.98714   0.36937   0.00000  Uiso   1.00
H257   H     0.02605   0.80187   0.59475   0.00000  Uiso   1.00
H258   H     0.88934   0.79778   0.33525   0.00000  Uiso   1.00
H259   H     0.34161   0.09088   0.27320   0.00000  Uiso   1.00
H260   H     0.99342   0.70019   0.74846   0.00000  Uiso   1.00
H261   H     0.16945   0.71238   0.43376   0.00000  Uiso   1.00
H262   H     0.08430   0.67703   0.37770   0.00000  Uiso   1.00
H263   H     0.29880   0.81604   0.34827   0.00000  Uiso   1.00
H264   H     0.13368   0.63076   0.57364   0.00000  Uiso   1.00
H265   H     0.97669   0.65890   0.31812   0.00000  Uiso   1.00
H266   H     0.42897   0.95200   0.25608   0.00000  Uiso   1.00
H267   H     0.08078   0.56132   0.73133   0.00000  Uiso   1.00
O268   O     0.87518   0.70803   0.29014   0.00000  Uiso   1.00
O269   O     0.46855   0.09256   0.20876   0.00000  Uiso   1.00
O270   O     0.01173   0.57999   0.83228   0.00000  Uiso   1.00
N271   N     0.92157   0.76993   0.33892   0.00000  Uiso   1.00
N272   N     0.34442   0.04397   0.28091   0.00000  Uiso   1.00
N273   N     0.01891   0.67872   0.72523   0.00000  Uiso   1.00
N274   N     0.96857   0.69521   0.32971   0.00000  Uiso   1.00
N275   N     0.39142   0.96924   0.27169   0.00000  Uiso   1.00
N276   N     0.06591   0.60400   0.71601   0.00000  Uiso   1.00
C277   C     0.52193   0.87857   0.12624   0.00000  Uiso   1.00
C278   C     0.48887   0.79582   0.18243   0.00000  Uiso   1.00
C279   C     0.49683   0.76026   0.24794   0.00000  Uiso   1.00
C280   C     0.46228   0.68422   0.29182   0.00000  Uiso   1.00
C281   C     0.41714   0.56167   0.38226   0.00000  Uiso   1.00
C282   C     0.45830   0.89942   0.11587   0.00000  Uiso   1.00
C283   C     0.44057   0.95097   0.12542   0.00000  Uiso   1.00
C284   C     0.38029   0.96214   0.11327   0.00000  Uiso   1.00
C285   C     0.28773   0.00046   0.10033   0.00000  Uiso   1.00
C286   C     0.56687   0.89127   0.05400   0.00000  Uiso   1.00
C287   C     0.64043   0.93598   0.01151   0.00000  Uiso   1.00
C288   C     0.67156   0.94030   0.94725   0.00000  Uiso   1.00
C289   C     0.74758   0.96597   0.83825   0.00000  Uiso   1.00
C290   C     0.44642   0.80676   0.08768   0.00000  Uiso   1.00
C291   C     0.44785   0.75682   0.16148   0.00000  Uiso   1.00
C292   C     0.41328   0.68081   0.20527   0.00000  Uiso   1.00
C293   C     0.42119   0.64514   0.27083   0.00000  Uiso   1.00
C294   C     0.41728   0.86041   0.09493   0.00000  Uiso   1.00
C295   C     0.35702   0.87151   0.08275   0.00000  Uiso   1.00
C296   C     0.33920   0.92306   0.09228   0.00000  Uiso   1.00
C297   C     0.52586   0.85226   0.03305   0.00000  Uiso   1.00
C298   C     0.55688   0.85652   0.96884   0.00000  Uiso   1.00
C299   C     0.63047   0.90123   0.92627   0.00000  Uiso   1.00
H300   H     0.55386   0.90894   0.14255   0.00000  Uiso   1.00
H301   H     0.52857   0.79047   0.26413   0.00000  Uiso   1.00
H302   H     0.47232   0.98115   0.14162   0.00000  Uiso   1.00
H303   H     0.67215   0.96616   0.02774   0.00000  Uiso   1.00
H304   H     0.48241   0.64192   0.38970   0.00000  Uiso   1.00
H305   H     0.36383   0.04399   0.13136   0.00000  Uiso   1.00
H306   H     0.78521   0.01239   0.89121   0.00000  Uiso   1.00
H307   H     0.41449   0.77639   0.07137   0.00000  Uiso   1.00
H308   H     0.38155   0.65064   0.18904   0.00000  Uiso   1.00
H309   H     0.32530   0.84132   0.06654   0.00000  Uiso   1.00
H310   H     0.52512   0.82633   0.95265   0.00000  Uiso   1.00
H311   H     0.36308   0.52843   0.32876   0.00000  Uiso   1.00
H312   H     0.24450   0.93051   0.07042   0.00000  Uiso   1.00
H313   H     0.66588   0.89890   0.83027   0.00000  Uiso   1.00
O314   O     0.40357   0.50484   0.43794   0.00000  Uiso   1.00
O315   O     0.24801   0.03236   0.09899   0.00000  Uiso   1.00
O316   O     0.80084   0.99089   0.78392   0.00000  Uiso   1.00
N317   N     0.45886   0.63247   0.35920   0.00000  Uiso   1.00
N318   N     0.34799   0.00837   0.11768   0.00000  Uiso   1.00
N319   N     0.74193   0.97884   0.89315   0.00000  Uiso   1.00
N320   N     0.39465   0.57140   0.32641   0.00000  Uiso   1.00
N321   N     0.28378   0.94731   0.08489   0.00000  Uiso   1.00
N322   N     0.67772   0.91777   0.86036   0.00000  Uiso   1.00
C323   C     0.16940   0.32657   0.85431   0.00000  Uiso   1.00
C324   C     0.14039   0.36112   0.89273   0.00000  Uiso   1.00
C325   C     0.14538   0.35166   0.95639   0.00000  Uiso   1.00
C326   C     0.11546   0.38797   0.98285   0.00000  Uiso   1.00
C327   C     0.07557   0.43493   0.04795   0.00000  Uiso   1.00
C328   C     0.22084   0.39010   0.77597   0.00000  Uiso   1.00
C329   C     0.29345   0.40499   0.74145   0.00000  Uiso   1.00
C330   C     0.33125   0.46569   0.66962   0.00000  Uiso   1.00
C331   C     0.41624   0.55760   0.55344   0.00000  Uiso   1.00
C332   C     0.10450   0.28424   0.84885   0.00000  Uiso   1.00
C333   C     0.07930   0.21012   0.87560   0.00000  Uiso   1.00
C334   C     0.01916   0.18171   0.86511   0.00000  Uiso   1.00
C335   C     0.92351   0.10925   0.86208   0.00000  Uiso   1.00
C336   C     0.10741   0.40790   0.78810   0.00000  Uiso   1.00
C337   C     0.10672   0.40530   0.85676   0.00000  Uiso   1.00
C338   C     0.07679   0.44163   0.88313   0.00000  Uiso   1.00
C339   C     0.08173   0.43222   0.94682   0.00000  Uiso   1.00
C340   C     0.18717   0.43427   0.74000   0.00000  Uiso   1.00
C341   C     0.22487   0.49496   0.66820   0.00000  Uiso   1.00
C342   C     0.29752   0.50994   0.63359   0.00000  Uiso   1.00
C343   C     0.07082   0.32841   0.81289   0.00000  Uiso   1.00
C344   C     0.01071   0.30010   0.80235   0.00000  Uiso   1.00
C345   C     0.98543   0.22596   0.82908   0.00000  Uiso   1.00
H346   H     0.19562   0.29219   0.88230   0.00000  Uiso   1.00
H347   H     0.17144   0.31747   0.98420   0.00000  Uiso   1.00
H348   H     0.31949   0.37079   0.76930   0.00000  Uiso   1.00
H349   H     0.10537   0.17596   0.90342   0.00000  Uiso   1.00
H350   H     0.12982   0.36501   0.08129   0.00000  Uiso   1.00
H351   H     0.44198   0.47742   0.62816   0.00000  Uiso   1.00
H352   H     0.99046   0.06658   0.91098   0.00000  Uiso   1.00
H353   H     0.08119   0.44229   0.76009   0.00000  Uiso   1.00
H354   H     0.05074   0.47581   0.85529   0.00000  Uiso   1.00
H355   H     0.19879   0.52913   0.64039   0.00000  Uiso   1.00
H356   H     0.98467   0.33430   0.77451   0.00000  Uiso   1.00
H357   H     0.03185   0.49353   0.97667   0.00000  Uiso   1.00
H358   H     0.34402   0.60593   0.52353   0.00000  Uiso   1.00
H359   H     0.89250   0.19509   0.80636   0.00000  Uiso   1.00
O360   O     0.06288   0.44863   0.09379   0.00000  Uiso   1.00
O361   O     0.47243   0.59610   0.49929   0.00000  Uiso   1.00
O362   O     0.88005   0.05708   0.87036   0.00000  Uiso   1.00
N363   N     0.11093   0.39064   0.04361   0.00000  Uiso   1.00
N364   N     0.40279   0.49575   0.61996   0.00000  Uiso   1.00
N365   N     0.98067   0.11165   0.88436   0.00000  Uiso   1.00
N366   N     0.05821   0.45980   0.98732   0.00000  Uiso   1.00
N367   N     0.35007   0.56490   0.56366   0.00000  Uiso   1.00
N368   N     0.92795   0.18080   0.82807   0.00000  Uiso   1.00
C369   C     0.02032   0.92187   0.91196   0.00000  Uiso   1.00
C370   C     0.03534   0.93970   0.96569   0.00000  Uiso   1.00
C371   C     0.98573   0.94433   0.01528   0.00000  Uiso   1.00
C372   C     0.01004   0.96128   0.05970   0.00000  Uiso   1.00
C373   C     0.02249   0.98713   0.14392   0.00000  Uiso   1.00
C374   C     0.03819   0.85534   0.92772   0.00000  Uiso   1.00
C375   C     0.99097   0.78903   0.94537   0.00000  Uiso   1.00
C376   C     0.01769   0.73496   0.95781   0.00000  Uiso   1.00
C377   C     0.03458   0.62986   0.98303   0.00000  Uiso   1.00
C378   C     0.07746   0.98554   0.83611   0.00000  Uiso   1.00
C379   C     0.06328   0.02870   0.77672   0.00000  Uiso   1.00
C380   C     0.12307   0.08425   0.71203   0.00000  Uiso   1.00
C381   C     0.20095   0.18130   0.59500   0.00000  Uiso   1.00
C382   C     0.15170   0.94374   0.90267   0.00000  Uiso   1.00
C383   C     0.10670   0.95158   0.96064   0.00000  Uiso   1.00
C384   C     0.13109   0.96854   0.00499   0.00000  Uiso   1.00
C385   C     0.08153   0.97319   0.05464   0.00000  Uiso   1.00
C386   C     0.10955   0.86722   0.92267   0.00000  Uiso   1.00
C387   C     0.13633   0.81324   0.93509   0.00000  Uiso   1.00
C388   C     0.08918   0.74687   0.95276   0.00000  Uiso   1.00
C389   C     0.14883   0.99742   0.83106   0.00000  Uiso   1.00
C390   C     0.20864   0.05291   0.76644   0.00000  Uiso   1.00
C391   C     0.19456   0.09615   0.70697   0.00000  Uiso   1.00
H392   H     0.96476   0.91261   0.91589   0.00000  Uiso   1.00
H393   H     0.93051   0.93512   0.01917   0.00000  Uiso   1.00
H394   H     0.93576   0.77986   0.94927   0.00000  Uiso   1.00
H395   H     0.00805   0.01949   0.78065   0.00000  Uiso   1.00
H396   H     0.92400   0.96530   0.13147   0.00000  Uiso   1.00
H397   H     0.93507   0.63791   0.98405   0.00000  Uiso   1.00
H398   H     0.08752   0.14323   0.62848   0.00000  Uiso   1.00
H399   H     0.20726   0.95299   0.89874   0.00000  Uiso   1.00
H400   H     0.18632   0.97773   0.00108   0.00000  Uiso   1.00
H401   H     0.19156   0.82245   0.93117   0.00000  Uiso   1.00
H402   H     0.26386   0.06209   0.76255   0.00000  Uiso   1.00
H403   H     0.13162   0.99987   0.11678   0.00000  Uiso   1.00
H404   H     0.14269   0.67249   0.96936   0.00000  Uiso   1.00
H405   H     0.29514   0.17780   0.61379   0.00000  Uiso   1.00
O406   O     0.00965   0.99810   0.19178   0.00000  Uiso   1.00
O407   O     0.02418   0.56859   0.99835   0.00000  Uiso   1.00
O408   O     0.22419   0.23155   0.53185   0.00000  Uiso   1.00
N409   N     0.97574   0.97006   0.11396   0.00000  Uiso   1.00
N410   N     0.98609   0.66397   0.97614   0.00000  Uiso   1.00
N411   N     0.12862   0.13638   0.64371   0.00000  Uiso   1.00
N412   N     0.08746   0.98866   0.10606   0.00000  Uiso   1.00
N413   N     0.09781   0.68257   0.96824   0.00000  Uiso   1.00
N414   N     0.24034   0.15498   0.63580   0.00000  Uiso   1.00
C415   C     0.79390   0.70957   0.59642   0.00000  Uiso   1.00
C416   C     0.74382   0.70485   0.66160   0.00000  Uiso   1.00
C417   C     0.75804   0.75628   0.67917   0.00000  Uiso   1.00
C418   C     0.70533   0.74191   0.74103   0.00000  Uiso   1.00
C419   C     0.63742   0.74423   0.83576   0.00000  Uiso   1.00
C420   C     0.80748   0.63941   0.62826   0.00000  Uiso   1.00
C421   C     0.87523   0.63582   0.61778   0.00000  Uiso   1.00
C422   C     0.87610   0.56636   0.65157   0.00000  Uiso   1.00
C423   C     0.90702   0.46708   0.69449   0.00000  Uiso   1.00
C424   C     0.74891   0.70430   0.55328   0.00000  Uiso   1.00
C425   C     0.76742   0.75525   0.47976   0.00000  Uiso   1.00
C426   C     0.71899   0.74042   0.45042   0.00000  Uiso   1.00
C427   C     0.65897   0.74188   0.37693   0.00000  Uiso   1.00
C428   C     0.67500   0.59261   0.67503   0.00000  Uiso   1.00
C429   C     0.67924   0.64132   0.70430   0.00000  Uiso   1.00
C430   C     0.62649   0.62688   0.76615   0.00000  Uiso   1.00
C431   C     0.64063   0.67827   0.78381   0.00000  Uiso   1.00
C432   C     0.74290   0.57588   0.67095   0.00000  Uiso   1.00
C433   C     0.74368   0.50641   0.70476   0.00000  Uiso   1.00
C434   C     0.81141   0.50272   0.69434   0.00000  Uiso   1.00
C435   C     0.68433   0.64077   0.59598   0.00000  Uiso   1.00
C436   C     0.63587   0.62585   0.56674   0.00000  Uiso   1.00
C437   C     0.65429   0.67677   0.49320   0.00000  Uiso   1.00
H438   H     0.84418   0.75903   0.56318   0.00000  Uiso   1.00
H439   H     0.80803   0.80543   0.64612   0.00000  Uiso   1.00
H440   H     0.92520   0.68499   0.58473   0.00000  Uiso   1.00
H441   H     0.81740   0.80441   0.44674   0.00000  Uiso   1.00
H442   H     0.73949   0.82885   0.75692   0.00000  Uiso   1.00
H443   H     0.98654   0.57489   0.62746   0.00000  Uiso   1.00
H444   H     0.75923   0.82671   0.33647   0.00000  Uiso   1.00
H445   H     0.62472   0.54315   0.70828   0.00000  Uiso   1.00
H446   H     0.57652   0.57771   0.79918   0.00000  Uiso   1.00
H447   H     0.69369   0.45726   0.73779   0.00000  Uiso   1.00
H448   H     0.58589   0.57668   0.59980   0.00000  Uiso   1.00
H449   H     0.55159   0.64402   0.88115   0.00000  Uiso   1.00
H450   H     0.79864   0.39006   0.75169   0.00000  Uiso   1.00
H451   H     0.57133   0.64188   0.46070   0.00000  Uiso   1.00
O452   O     0.61780   0.76305   0.87623   0.00000  Uiso   1.00
O453   O     0.94192   0.42987   0.70637   0.00000  Uiso   1.00
O454   O     0.64370   0.76025   0.32461   0.00000  Uiso   1.00
N455   N     0.70187   0.78061   0.77367   0.00000  Uiso   1.00
N456   N     0.93285   0.54318   0.65265   0.00000  Uiso   1.00
N457   N     0.72035   0.77859   0.38059   0.00000  Uiso   1.00
N458   N     0.60076   0.68116   0.84052   0.00000  Uiso   1.00
N459   N     0.83174   0.44372   0.71949   0.00000  Uiso   1.00
N460   N     0.61924   0.67914   0.44744   0.00000  Uiso   1.00
C461   C     0.37871   0.33344   0.17889   0.00000  Uiso   1.00
C462   C     0.38024   0.28090   0.25177   0.00000  Uiso   1.00
C463   C     0.35242   0.27721   0.31618   0.00000  Uiso   1.00
C464   C     0.35918   0.22540   0.37694   0.00000  Uiso   1.00
C465   C     0.35651   0.15090   0.49063   0.00000  Uiso   1.00
C466   C     0.45771   0.37537   0.12296   0.00000  Uiso   1.00
C467   C     0.49503   0.45113   0.07907   0.00000  Uiso   1.00
C468   C     0.56700   0.47884   0.03139   0.00000  Uiso   1.00
C469   C     0.68460   0.55101   0.94508   0.00000  Uiso   1.00
C470   C     0.34030   0.28548   0.15739   0.00000  Uiso   1.00
C471   C     0.27891   0.28566   0.14243   0.00000  Uiso   1.00
C472   C     0.25204   0.23770   0.12373   0.00000  Uiso   1.00
C473   C     0.18733   0.17031   0.09088   0.00000  Uiso   1.00
C474   C     0.44017   0.24796   0.17225   0.00000  Uiso   1.00
C475   C     0.41363   0.23447   0.24815   0.00000  Uiso   1.00
C476   C     0.42043   0.18264   0.30883   0.00000  Uiso   1.00
C477   C     0.39262   0.17888   0.37333   0.00000  Uiso   1.00
C478   C     0.49110   0.32895   0.11935   0.00000  Uiso   1.00
C479   C     0.56303   0.35655   0.07172   0.00000  Uiso   1.00
C480   C     0.60045   0.43233   0.02778   0.00000  Uiso   1.00
C481   C     0.37369   0.23905   0.15378   0.00000  Uiso   1.00
C482   C     0.34691   0.19109   0.13509   0.00000  Uiso   1.00
C483   C     0.28548   0.19119   0.12011   0.00000  Uiso   1.00
H484   H     0.35272   0.36959   0.18170   0.00000  Uiso   1.00
H485   H     0.32659   0.31316   0.31895   0.00000  Uiso   1.00
H486   H     0.46918   0.48704   0.08187   0.00000  Uiso   1.00
H487   H     0.25308   0.32160   0.14523   0.00000  Uiso   1.00
H488   H     0.31238   0.23014   0.46952   0.00000  Uiso   1.00
H489   H     0.61301   0.59678   0.96961   0.00000  Uiso   1.00
H490   H     0.15734   0.24792   0.10322   0.00000  Uiso   1.00
H491   H     0.46617   0.21182   0.16943   0.00000  Uiso   1.00
H492   H     0.44627   0.14672   0.30602   0.00000  Uiso   1.00
H493   H     0.58885   0.32061   0.06894   0.00000  Uiso   1.00
H494   H     0.37276   0.15517   0.13230   0.00000  Uiso   1.00
H495   H     0.40951   0.09505   0.45903   0.00000  Uiso   1.00
H496   H     0.71015   0.46170   0.95911   0.00000  Uiso   1.00
H497   H     0.25447   0.11283   0.09272   0.00000  Uiso   1.00
O498   O     0.34583   0.12264   0.55434   0.00000  Uiso   1.00
O499   O     0.74024   0.60366   0.89847   0.00000  Uiso   1.00
O500   O     0.14241   0.14596   0.07376   0.00000  Uiso   1.00
N501   N     0.33795   0.20727   0.44831   0.00000  Uiso   1.00
N502   N     0.61903   0.55005   0.98093   0.00000  Uiso   1.00
N503   N     0.19303   0.22391   0.10583   0.00000  Uiso   1.00
N504   N     0.39022   0.13458   0.44266   0.00000  Uiso   1.00
N505   N     0.67130   0.47737   0.97529   0.00000  Uiso   1.00
N506   N     0.24530   0.15123   0.10018   0.00000  Uiso   1.00
C507   C     0.80194   0.11352   0.49794   0.00000  Uiso   1.00
C508   C     0.80870   0.14817   0.54114   0.00000  Uiso   1.00
C509   C     0.81351   0.11557   0.60851   0.00000  Uiso   1.00
C510   C     0.81935   0.15630   0.63907   0.00000  Uiso   1.00
C511   C     0.82966   0.19932   0.71159   0.00000  Uiso   1.00
C512   C     0.73303   0.11516   0.48488   0.00000  Uiso   1.00
C513   C     0.67422   0.05480   0.50493   0.00000  Uiso   1.00
C514   C     0.61637   0.06775   0.48812   0.00000  Uiso   1.00
C515   C     0.50922   0.05953   0.47324   0.00000  Uiso   1.00
C516   C     0.86533   0.16654   0.42289   0.00000  Uiso   1.00
C517   C     0.91776   0.14939   0.39081   0.00000  Uiso   1.00
C518   C     0.97129   0.20560   0.32180   0.00000  Uiso   1.00
C519   C     0.06956   0.27715   0.21067   0.00000  Uiso   1.00
C520   C     0.80376   0.24384   0.43241   0.00000  Uiso   1.00
C521   C     0.80969   0.21895   0.50555   0.00000  Uiso   1.00
C522   C     0.81552   0.25975   0.53602   0.00000  Uiso   1.00
C523   C     0.82034   0.22722   0.60342   0.00000  Uiso   1.00
C524   C     0.73402   0.18594   0.44929   0.00000  Uiso   1.00
C525   C     0.67624   0.19899   0.43244   0.00000  Uiso   1.00
C526   C     0.61736   0.13867   0.45246   0.00000  Uiso   1.00
C527   C     0.86632   0.23733   0.38730   0.00000  Uiso   1.00
C528   C     0.91978   0.29357   0.31832   0.00000  Uiso   1.00
C529   C     0.97228   0.27651   0.28614   0.00000  Uiso   1.00
H530   H     0.80117   0.05841   0.52564   0.00000  Uiso   1.00
H531   H     0.81274   0.06078   0.63604   0.00000  Uiso   1.00
H532   H     0.67348   0.00003   0.53247   0.00000  Uiso   1.00
H533   H     0.91698   0.09460   0.41837   0.00000  Uiso   1.00
H534   H     0.82598   0.09462   0.74275   0.00000  Uiso   1.00
H535   H     0.53235   0.96652   0.52434   0.00000  Uiso   1.00
H536   H     0.04582   0.16595   0.28374   0.00000  Uiso   1.00
H537   H     0.80453   0.29895   0.40470   0.00000  Uiso   1.00
H538   H     0.81629   0.31453   0.50846   0.00000  Uiso   1.00
H539   H     0.67702   0.25377   0.40489   0.00000  Uiso   1.00
H540   H     0.92052   0.34835   0.29079   0.00000  Uiso   1.00
H541   H     0.82885   0.30057   0.63921   0.00000  Uiso   1.00
H542   H     0.53522   0.17247   0.42079   0.00000  Uiso   1.00
H543   H     0.04869   0.37189   0.18019   0.00000  Uiso   1.00
O544   O     0.83506   0.20349   0.76143   0.00000  Uiso   1.00
O545   O     0.44984   0.03543   0.47487   0.00000  Uiso   1.00
O546   O     0.12350   0.29707   0.15921   0.00000  Uiso   1.00
N547   N     0.82505   0.14096   0.70414   0.00000  Uiso   1.00
N548   N     0.55052   0.02119   0.49995   0.00000  Uiso   1.00
N549   N     0.03056   0.20763   0.27499   0.00000  Uiso   1.00
N550   N     0.82660   0.25178   0.64842   0.00000  Uiso   1.00
N551   N     0.55207   0.13201   0.44423   0.00000  Uiso   1.00
N552   N     0.03211   0.31845   0.21928   0.00000  Uiso   1.00
