data_job_02875
_audit_creation_date              2018-12-19
_audit_creation_method            'Materials Studio'
_symmetry_space_group_name_H-M    'P1'
_symmetry_Int_Tables_number       1
_symmetry_cell_setting            triclinic
loop_
_symmetry_equiv_pos_as_xyz
  x,y,z
_cell_length_a                    24.4802
_cell_length_b                    11.2327
_cell_length_c                    19.8378
_cell_angle_alpha                 90.0000
_cell_angle_beta                  90.0000
_cell_angle_gamma                 90.0000
loop_
_atom_site_label
_atom_site_type_symbol
_atom_site_fract_x
_atom_site_fract_y
_atom_site_fract_z
_atom_site_U_iso_or_equiv
_atom_site_adp_type
_atom_site_occupancy
C1     C     0.37273   0.16718   0.02304   0.00000  Uiso   1.00
C2     C     0.32553   0.19113   0.07134   0.00000  Uiso   1.00
C3     C     0.27683   0.12805   0.07391   0.00000  Uiso   1.00
C4     C     0.23878   0.16382   0.12170   0.00000  Uiso   1.00
C5     C     0.16390   0.18652   0.19003   0.00000  Uiso   1.00
C6     C     0.38278   0.28379   0.98568   0.00000  Uiso   1.00
C7     C     0.38223   0.29861   0.91623   0.00000  Uiso   1.00
C8     C     0.39238   0.41238   0.89190   0.00000  Uiso   1.00
C9     C     0.40643   0.57892   0.82724   0.00000  Uiso   1.00
C10    C     0.42292   0.14704   0.06712   0.00000  Uiso   1.00
C11    C     0.45612   0.04691   0.06614   0.00000  Uiso   1.00
C12    C     0.50007   0.04556   0.11038   0.00000  Uiso   1.00
C13    C     0.57643   0.99978   0.17218   0.00000  Uiso   1.00
C14    C     0.39176   0.34286   0.10333   0.00000  Uiso   1.00
C15    C     0.33587   0.28655   0.11495   0.00000  Uiso   1.00
C16    C     0.29788   0.32242   0.16274   0.00000  Uiso   1.00
C17    C     0.24913   0.25941   0.16538   0.00000  Uiso   1.00
C18    C     0.39312   0.37921   0.02928   0.00000  Uiso   1.00
C19    C     0.40328   0.49298   0.00505   0.00000  Uiso   1.00
C20    C     0.40273   0.50798   0.93558   0.00000  Uiso   1.00
C21    C     0.43325   0.24246   0.11073   0.00000  Uiso   1.00
C22    C     0.47716   0.24127   0.15497   0.00000  Uiso   1.00
C23    C     0.51042   0.14115   0.15406   0.00000  Uiso   1.00
H24    H     0.36469   0.09290   0.98909   0.00000  Uiso   1.00
H25    H     0.26884   0.05422   0.04015   0.00000  Uiso   1.00
H26    H     0.37423   0.22475   0.88249   0.00000  Uiso   1.00
H27    H     0.44810   0.97308   0.03239   0.00000  Uiso   1.00
H28    H     0.16714   0.05345   0.11598   0.00000  Uiso   1.00
H29    H     0.38937   0.41301   0.78355   0.00000  Uiso   1.00
H30    H     0.54515   0.88232   0.09963   0.00000  Uiso   1.00
H31    H     0.39980   0.41716   0.13728   0.00000  Uiso   1.00
H32    H     0.30589   0.39627   0.19648   0.00000  Uiso   1.00
H33    H     0.41127   0.56680   0.03881   0.00000  Uiso   1.00
H34    H     0.48515   0.31513   0.18871   0.00000  Uiso   1.00
H35    H     0.19720   0.33107   0.24286   0.00000  Uiso   1.00
H36    H     0.41943   0.69063   0.91042   0.00000  Uiso   1.00
H37    H     0.57521   0.15994   0.22651   0.00000  Uiso   1.00
O38    O     0.11975   0.17269   0.21567   0.00000  Uiso   1.00
O39    O     0.41132   0.64441   0.77953   0.00000  Uiso   1.00
O40    O     0.61569   0.94816   0.19423   0.00000  Uiso   1.00
N41    N     0.18711   0.12163   0.13773   0.00000  Uiso   1.00
N42    N     0.39487   0.45781   0.82692   0.00000  Uiso   1.00
N43    N     0.54052   0.96167   0.12242   0.00000  Uiso   1.00
N44    N     0.20328   0.27102   0.20600   0.00000  Uiso   1.00
N45    N     0.41105   0.60719   0.89519   0.00000  Uiso   1.00
N46    N     0.55670   0.11105   0.19069   0.00000  Uiso   1.00
C47    C     0.12727   0.33282   0.52304   0.00000  Uiso   1.00
C48    C     0.17447   0.30887   0.57134   0.00000  Uiso   1.00
C49    C     0.22317   0.37195   0.57391   0.00000  Uiso   1.00
C50    C     0.26122   0.33618   0.62170   0.00000  Uiso   1.00
C51    C     0.33610   0.31348   0.69003   0.00000  Uiso   1.00
C52    C     0.11722   0.21621   0.48568   0.00000  Uiso   1.00
C53    C     0.11777   0.20139   0.41623   0.00000  Uiso   1.00
C54    C     0.10762   0.08762   0.39190   0.00000  Uiso   1.00
C55    C     0.09357   0.92108   0.32724   0.00000  Uiso   1.00
C56    C     0.07708   0.35296   0.56712   0.00000  Uiso   1.00
C57    C     0.04388   0.45309   0.56614   0.00000  Uiso   1.00
C58    C     0.99993   0.45444   0.61038   0.00000  Uiso   1.00
C59    C     0.92357   0.50022   0.67218   0.00000  Uiso   1.00
C60    C     0.10824   0.15714   0.60333   0.00000  Uiso   1.00
C61    C     0.16413   0.21345   0.61495   0.00000  Uiso   1.00
C62    C     0.20212   0.17758   0.66274   0.00000  Uiso   1.00
C63    C     0.25087   0.24059   0.66538   0.00000  Uiso   1.00
C64    C     0.10688   0.12079   0.52928   0.00000  Uiso   1.00
C65    C     0.09672   0.00702   0.50505   0.00000  Uiso   1.00
C66    C     0.09727   0.99202   0.43558   0.00000  Uiso   1.00
C67    C     0.06675   0.25754   0.61073   0.00000  Uiso   1.00
C68    C     0.02284   0.25873   0.65497   0.00000  Uiso   1.00
C69    C     0.98958   0.35885   0.65406   0.00000  Uiso   1.00
H70    H     0.13531   0.40710   0.48909   0.00000  Uiso   1.00
H71    H     0.23116   0.44578   0.54015   0.00000  Uiso   1.00
H72    H     0.12577   0.27525   0.38249   0.00000  Uiso   1.00
H73    H     0.05190   0.52692   0.53239   0.00000  Uiso   1.00
H74    H     0.33286   0.44655   0.61598   0.00000  Uiso   1.00
H75    H     0.11063   0.08699   0.28355   0.00000  Uiso   1.00
H76    H     0.95485   0.61768   0.59963   0.00000  Uiso   1.00
H77    H     0.10020   0.08284   0.63728   0.00000  Uiso   1.00
H78    H     0.19411   0.10373   0.69648   0.00000  Uiso   1.00
H79    H     0.08873   0.93320   0.53881   0.00000  Uiso   1.00
H80    H     0.01485   0.18487   0.68871   0.00000  Uiso   1.00
H81    H     0.30280   0.16893   0.74286   0.00000  Uiso   1.00
H82    H     0.08057   0.80937   0.41042   0.00000  Uiso   1.00
H83    H     0.92479   0.34006   0.72651   0.00000  Uiso   1.00
O84    O     0.38025   0.32731   0.71567   0.00000  Uiso   1.00
O85    O     0.08868   0.85559   0.27953   0.00000  Uiso   1.00
O86    O     0.88431   0.55184   0.69423   0.00000  Uiso   1.00
N87    N     0.31289   0.37837   0.63773   0.00000  Uiso   1.00
N88    N     0.10513   0.04219   0.32692   0.00000  Uiso   1.00
N89    N     0.95948   0.53833   0.62242   0.00000  Uiso   1.00
N90    N     0.29672   0.22898   0.70600   0.00000  Uiso   1.00
N91    N     0.08895   0.89281   0.39519   0.00000  Uiso   1.00
N92    N     0.94330   0.38895   0.69069   0.00000  Uiso   1.00
C93    C     0.62727   0.16718   0.47696   0.00000  Uiso   1.00
C94    C     0.67447   0.19113   0.42866   0.00000  Uiso   1.00
C95    C     0.72317   0.12805   0.42609   0.00000  Uiso   1.00
C96    C     0.76122   0.16382   0.37830   0.00000  Uiso   1.00
C97    C     0.83610   0.18652   0.30997   0.00000  Uiso   1.00
C98    C     0.61722   0.28379   0.51432   0.00000  Uiso   1.00
C99    C     0.61777   0.29861   0.58377   0.00000  Uiso   1.00
C100   C     0.60762   0.41238   0.60810   0.00000  Uiso   1.00
C101   C     0.59357   0.57892   0.67276   0.00000  Uiso   1.00
C102   C     0.57708   0.14704   0.43288   0.00000  Uiso   1.00
C103   C     0.54388   0.04691   0.43386   0.00000  Uiso   1.00
C104   C     0.49993   0.04556   0.38962   0.00000  Uiso   1.00
C105   C     0.42357   0.99978   0.32782   0.00000  Uiso   1.00
C106   C     0.60824   0.34286   0.39667   0.00000  Uiso   1.00
C107   C     0.66413   0.28655   0.38505   0.00000  Uiso   1.00
C108   C     0.70212   0.32242   0.33726   0.00000  Uiso   1.00
C109   C     0.75087   0.25941   0.33462   0.00000  Uiso   1.00
C110   C     0.60688   0.37921   0.47072   0.00000  Uiso   1.00
C111   C     0.59672   0.49298   0.49495   0.00000  Uiso   1.00
C112   C     0.59727   0.50798   0.56442   0.00000  Uiso   1.00
C113   C     0.56675   0.24246   0.38927   0.00000  Uiso   1.00
C114   C     0.52284   0.24127   0.34503   0.00000  Uiso   1.00
C115   C     0.48958   0.14115   0.34594   0.00000  Uiso   1.00
H116   H     0.63531   0.09290   0.51091   0.00000  Uiso   1.00
H117   H     0.73116   0.05422   0.45985   0.00000  Uiso   1.00
H118   H     0.62577   0.22475   0.61751   0.00000  Uiso   1.00
H119   H     0.55190   0.97308   0.46761   0.00000  Uiso   1.00
H120   H     0.83286   0.05345   0.38402   0.00000  Uiso   1.00
H121   H     0.61063   0.41301   0.71645   0.00000  Uiso   1.00
H122   H     0.45485   0.88232   0.40037   0.00000  Uiso   1.00
H123   H     0.60020   0.41716   0.36272   0.00000  Uiso   1.00
H124   H     0.69411   0.39627   0.30352   0.00000  Uiso   1.00
H125   H     0.58873   0.56680   0.46119   0.00000  Uiso   1.00
H126   H     0.51485   0.31513   0.31129   0.00000  Uiso   1.00
H127   H     0.80280   0.33107   0.25714   0.00000  Uiso   1.00
H128   H     0.58057   0.69063   0.58958   0.00000  Uiso   1.00
H129   H     0.42479   0.15994   0.27349   0.00000  Uiso   1.00
O130   O     0.88025   0.17269   0.28433   0.00000  Uiso   1.00
O131   O     0.58868   0.64441   0.72047   0.00000  Uiso   1.00
O132   O     0.38431   0.94816   0.30577   0.00000  Uiso   1.00
N133   N     0.81289   0.12163   0.36227   0.00000  Uiso   1.00
N134   N     0.60513   0.45781   0.67308   0.00000  Uiso   1.00
N135   N     0.45948   0.96167   0.37758   0.00000  Uiso   1.00
N136   N     0.79672   0.27102   0.29400   0.00000  Uiso   1.00
N137   N     0.58895   0.60719   0.60481   0.00000  Uiso   1.00
N138   N     0.44330   0.11105   0.30931   0.00000  Uiso   1.00
C139   C     0.87273   0.33282   0.97696   0.00000  Uiso   1.00
C140   C     0.82553   0.30887   0.92866   0.00000  Uiso   1.00
C141   C     0.77683   0.37195   0.92609   0.00000  Uiso   1.00
C142   C     0.73878   0.33618   0.87830   0.00000  Uiso   1.00
C143   C     0.66390   0.31348   0.80997   0.00000  Uiso   1.00
C144   C     0.88278   0.21621   0.01432   0.00000  Uiso   1.00
C145   C     0.88223   0.20139   0.08377   0.00000  Uiso   1.00
C146   C     0.89238   0.08762   0.10810   0.00000  Uiso   1.00
C147   C     0.90643   0.92108   0.17276   0.00000  Uiso   1.00
C148   C     0.92292   0.35296   0.93288   0.00000  Uiso   1.00
C149   C     0.95612   0.45309   0.93386   0.00000  Uiso   1.00
C150   C     0.00007   0.45444   0.88962   0.00000  Uiso   1.00
C151   C     0.07643   0.50022   0.82782   0.00000  Uiso   1.00
C152   C     0.89176   0.15714   0.89667   0.00000  Uiso   1.00
C153   C     0.83587   0.21345   0.88505   0.00000  Uiso   1.00
C154   C     0.79788   0.17758   0.83726   0.00000  Uiso   1.00
C155   C     0.74913   0.24059   0.83462   0.00000  Uiso   1.00
C156   C     0.89312   0.12079   0.97072   0.00000  Uiso   1.00
C157   C     0.90328   0.00702   0.99495   0.00000  Uiso   1.00
C158   C     0.90273   0.99202   0.06442   0.00000  Uiso   1.00
C159   C     0.93325   0.25754   0.88927   0.00000  Uiso   1.00
C160   C     0.97716   0.25873   0.84503   0.00000  Uiso   1.00
C161   C     0.01042   0.35885   0.84594   0.00000  Uiso   1.00
H162   H     0.86469   0.40710   0.01091   0.00000  Uiso   1.00
H163   H     0.76884   0.44578   0.95985   0.00000  Uiso   1.00
H164   H     0.87423   0.27525   0.11751   0.00000  Uiso   1.00
H165   H     0.94810   0.52692   0.96761   0.00000  Uiso   1.00
H166   H     0.66714   0.44655   0.88402   0.00000  Uiso   1.00
H167   H     0.88937   0.08699   0.21645   0.00000  Uiso   1.00
H168   H     0.04515   0.61768   0.90037   0.00000  Uiso   1.00
H169   H     0.89980   0.08284   0.86272   0.00000  Uiso   1.00
H170   H     0.80589   0.10373   0.80352   0.00000  Uiso   1.00
H171   H     0.91127   0.93320   0.96119   0.00000  Uiso   1.00
H172   H     0.98515   0.18487   0.81129   0.00000  Uiso   1.00
H173   H     0.69720   0.16893   0.75714   0.00000  Uiso   1.00
H174   H     0.91943   0.80937   0.08958   0.00000  Uiso   1.00
H175   H     0.07521   0.34006   0.77349   0.00000  Uiso   1.00
O176   O     0.61975   0.32731   0.78433   0.00000  Uiso   1.00
O177   O     0.91132   0.85559   0.22047   0.00000  Uiso   1.00
O178   O     0.11569   0.55184   0.80577   0.00000  Uiso   1.00
N179   N     0.68711   0.37837   0.86227   0.00000  Uiso   1.00
N180   N     0.89487   0.04219   0.17308   0.00000  Uiso   1.00
N181   N     0.04052   0.53833   0.87758   0.00000  Uiso   1.00
N182   N     0.70328   0.22898   0.79400   0.00000  Uiso   1.00
N183   N     0.91105   0.89281   0.10481   0.00000  Uiso   1.00
N184   N     0.05670   0.38895   0.80931   0.00000  Uiso   1.00
C185   C     0.62727   0.83282   0.97696   0.00000  Uiso   1.00
C186   C     0.67447   0.80887   0.92866   0.00000  Uiso   1.00
C187   C     0.72317   0.87195   0.92609   0.00000  Uiso   1.00
C188   C     0.76122   0.83618   0.87830   0.00000  Uiso   1.00
C189   C     0.83610   0.81348   0.80997   0.00000  Uiso   1.00
C190   C     0.61722   0.71621   0.01432   0.00000  Uiso   1.00
C191   C     0.61777   0.70139   0.08377   0.00000  Uiso   1.00
C192   C     0.60762   0.58762   0.10810   0.00000  Uiso   1.00
C193   C     0.59357   0.42108   0.17276   0.00000  Uiso   1.00
C194   C     0.57708   0.85296   0.93288   0.00000  Uiso   1.00
C195   C     0.54388   0.95309   0.93386   0.00000  Uiso   1.00
C196   C     0.49993   0.95444   0.88962   0.00000  Uiso   1.00
C197   C     0.42357   0.00022   0.82782   0.00000  Uiso   1.00
C198   C     0.60824   0.65714   0.89667   0.00000  Uiso   1.00
C199   C     0.66413   0.71345   0.88505   0.00000  Uiso   1.00
C200   C     0.70212   0.67758   0.83726   0.00000  Uiso   1.00
C201   C     0.75087   0.74059   0.83462   0.00000  Uiso   1.00
C202   C     0.60688   0.62079   0.97072   0.00000  Uiso   1.00
C203   C     0.59672   0.50702   0.99495   0.00000  Uiso   1.00
C204   C     0.59727   0.49202   0.06442   0.00000  Uiso   1.00
C205   C     0.56675   0.75754   0.88927   0.00000  Uiso   1.00
C206   C     0.52284   0.75873   0.84503   0.00000  Uiso   1.00
C207   C     0.48958   0.85885   0.84594   0.00000  Uiso   1.00
H208   H     0.63531   0.90710   0.01091   0.00000  Uiso   1.00
H209   H     0.73116   0.94578   0.95985   0.00000  Uiso   1.00
H210   H     0.62577   0.77525   0.11751   0.00000  Uiso   1.00
H211   H     0.55190   0.02692   0.96761   0.00000  Uiso   1.00
H212   H     0.83286   0.94655   0.88402   0.00000  Uiso   1.00
H213   H     0.61063   0.58699   0.21645   0.00000  Uiso   1.00
H214   H     0.45485   0.11768   0.90037   0.00000  Uiso   1.00
H215   H     0.60020   0.58284   0.86272   0.00000  Uiso   1.00
H216   H     0.69411   0.60373   0.80352   0.00000  Uiso   1.00
H217   H     0.58873   0.43320   0.96119   0.00000  Uiso   1.00
H218   H     0.51485   0.68487   0.81129   0.00000  Uiso   1.00
H219   H     0.80280   0.66893   0.75714   0.00000  Uiso   1.00
H220   H     0.58057   0.30937   0.08958   0.00000  Uiso   1.00
H221   H     0.42479   0.84006   0.77349   0.00000  Uiso   1.00
O222   O     0.88025   0.82731   0.78433   0.00000  Uiso   1.00
O223   O     0.58868   0.35559   0.22047   0.00000  Uiso   1.00
O224   O     0.38431   0.05184   0.80577   0.00000  Uiso   1.00
N225   N     0.81289   0.87837   0.86227   0.00000  Uiso   1.00
N226   N     0.60513   0.54219   0.17308   0.00000  Uiso   1.00
N227   N     0.45948   0.03833   0.87758   0.00000  Uiso   1.00
N228   N     0.79672   0.72898   0.79400   0.00000  Uiso   1.00
N229   N     0.58895   0.39281   0.10481   0.00000  Uiso   1.00
N230   N     0.44330   0.88895   0.80931   0.00000  Uiso   1.00
C231   C     0.87273   0.66718   0.47696   0.00000  Uiso   1.00
C232   C     0.82553   0.69113   0.42866   0.00000  Uiso   1.00
C233   C     0.77683   0.62805   0.42609   0.00000  Uiso   1.00
C234   C     0.73878   0.66382   0.37830   0.00000  Uiso   1.00
C235   C     0.66390   0.68652   0.30997   0.00000  Uiso   1.00
C236   C     0.88278   0.78379   0.51432   0.00000  Uiso   1.00
C237   C     0.88223   0.79861   0.58377   0.00000  Uiso   1.00
C238   C     0.89238   0.91238   0.60810   0.00000  Uiso   1.00
C239   C     0.90643   0.07892   0.67276   0.00000  Uiso   1.00
C240   C     0.92292   0.64704   0.43288   0.00000  Uiso   1.00
C241   C     0.95612   0.54691   0.43386   0.00000  Uiso   1.00
C242   C     0.00007   0.54556   0.38962   0.00000  Uiso   1.00
C243   C     0.07643   0.49978   0.32782   0.00000  Uiso   1.00
C244   C     0.89176   0.84286   0.39667   0.00000  Uiso   1.00
C245   C     0.83587   0.78655   0.38505   0.00000  Uiso   1.00
C246   C     0.79788   0.82242   0.33726   0.00000  Uiso   1.00
C247   C     0.74913   0.75941   0.33462   0.00000  Uiso   1.00
C248   C     0.89312   0.87921   0.47072   0.00000  Uiso   1.00
C249   C     0.90328   0.99298   0.49495   0.00000  Uiso   1.00
C250   C     0.90273   0.00798   0.56442   0.00000  Uiso   1.00
C251   C     0.93325   0.74246   0.38927   0.00000  Uiso   1.00
C252   C     0.97716   0.74127   0.34503   0.00000  Uiso   1.00
C253   C     0.01042   0.64115   0.34594   0.00000  Uiso   1.00
H254   H     0.86469   0.59290   0.51091   0.00000  Uiso   1.00
H255   H     0.76884   0.55422   0.45985   0.00000  Uiso   1.00
H256   H     0.87423   0.72475   0.61751   0.00000  Uiso   1.00
H257   H     0.94810   0.47308   0.46761   0.00000  Uiso   1.00
H258   H     0.66714   0.55345   0.38402   0.00000  Uiso   1.00
H259   H     0.88937   0.91301   0.71645   0.00000  Uiso   1.00
H260   H     0.04515   0.38232   0.40037   0.00000  Uiso   1.00
H261   H     0.89980   0.91716   0.36272   0.00000  Uiso   1.00
H262   H     0.80589   0.89627   0.30352   0.00000  Uiso   1.00
H263   H     0.91127   0.06680   0.46119   0.00000  Uiso   1.00
H264   H     0.98515   0.81513   0.31129   0.00000  Uiso   1.00
H265   H     0.69720   0.83107   0.25714   0.00000  Uiso   1.00
H266   H     0.91943   0.19063   0.58958   0.00000  Uiso   1.00
H267   H     0.07521   0.65994   0.27349   0.00000  Uiso   1.00
O268   O     0.61975   0.67269   0.28433   0.00000  Uiso   1.00
O269   O     0.91132   0.14441   0.72047   0.00000  Uiso   1.00
O270   O     0.11569   0.44816   0.30577   0.00000  Uiso   1.00
N271   N     0.68711   0.62163   0.36227   0.00000  Uiso   1.00
N272   N     0.89487   0.95781   0.67308   0.00000  Uiso   1.00
N273   N     0.04052   0.46167   0.37758   0.00000  Uiso   1.00
N274   N     0.70328   0.77102   0.29400   0.00000  Uiso   1.00
N275   N     0.91105   0.10719   0.60481   0.00000  Uiso   1.00
N276   N     0.05670   0.61105   0.30931   0.00000  Uiso   1.00
C277   C     0.37273   0.83282   0.52304   0.00000  Uiso   1.00
C278   C     0.32553   0.80887   0.57134   0.00000  Uiso   1.00
C279   C     0.27683   0.87195   0.57391   0.00000  Uiso   1.00
C280   C     0.23878   0.83618   0.62170   0.00000  Uiso   1.00
C281   C     0.16390   0.81348   0.69003   0.00000  Uiso   1.00
C282   C     0.38278   0.71621   0.48568   0.00000  Uiso   1.00
C283   C     0.38223   0.70139   0.41623   0.00000  Uiso   1.00
C284   C     0.39238   0.58762   0.39190   0.00000  Uiso   1.00
C285   C     0.40643   0.42108   0.32724   0.00000  Uiso   1.00
C286   C     0.42292   0.85296   0.56712   0.00000  Uiso   1.00
C287   C     0.45612   0.95309   0.56614   0.00000  Uiso   1.00
C288   C     0.50007   0.95444   0.61038   0.00000  Uiso   1.00
C289   C     0.57643   0.00022   0.67218   0.00000  Uiso   1.00
C290   C     0.39176   0.65714   0.60333   0.00000  Uiso   1.00
C291   C     0.33587   0.71345   0.61495   0.00000  Uiso   1.00
C292   C     0.29788   0.67758   0.66274   0.00000  Uiso   1.00
C293   C     0.24913   0.74059   0.66538   0.00000  Uiso   1.00
C294   C     0.39312   0.62079   0.52928   0.00000  Uiso   1.00
C295   C     0.40328   0.50702   0.50505   0.00000  Uiso   1.00
C296   C     0.40273   0.49202   0.43558   0.00000  Uiso   1.00
C297   C     0.43325   0.75754   0.61073   0.00000  Uiso   1.00
C298   C     0.47716   0.75873   0.65497   0.00000  Uiso   1.00
C299   C     0.51042   0.85885   0.65406   0.00000  Uiso   1.00
H300   H     0.36469   0.90710   0.48909   0.00000  Uiso   1.00
H301   H     0.26884   0.94578   0.54015   0.00000  Uiso   1.00
H302   H     0.37423   0.77525   0.38249   0.00000  Uiso   1.00
H303   H     0.44810   0.02692   0.53239   0.00000  Uiso   1.00
H304   H     0.16714   0.94655   0.61598   0.00000  Uiso   1.00
H305   H     0.38937   0.58699   0.28355   0.00000  Uiso   1.00
H306   H     0.54515   0.11768   0.59963   0.00000  Uiso   1.00
H307   H     0.39980   0.58284   0.63728   0.00000  Uiso   1.00
H308   H     0.30589   0.60373   0.69648   0.00000  Uiso   1.00
H309   H     0.41127   0.43320   0.53881   0.00000  Uiso   1.00
H310   H     0.48515   0.68487   0.68871   0.00000  Uiso   1.00
H311   H     0.19720   0.66893   0.74286   0.00000  Uiso   1.00
H312   H     0.41943   0.30937   0.41042   0.00000  Uiso   1.00
H313   H     0.57521   0.84006   0.72651   0.00000  Uiso   1.00
O314   O     0.11975   0.82731   0.71567   0.00000  Uiso   1.00
O315   O     0.41132   0.35559   0.27953   0.00000  Uiso   1.00
O316   O     0.61569   0.05184   0.69423   0.00000  Uiso   1.00
N317   N     0.18711   0.87837   0.63773   0.00000  Uiso   1.00
N318   N     0.39487   0.54219   0.32692   0.00000  Uiso   1.00
N319   N     0.54052   0.03833   0.62242   0.00000  Uiso   1.00
N320   N     0.20328   0.72898   0.70600   0.00000  Uiso   1.00
N321   N     0.41105   0.39281   0.39519   0.00000  Uiso   1.00
N322   N     0.55670   0.88895   0.69069   0.00000  Uiso   1.00
C323   C     0.12727   0.66718   0.02304   0.00000  Uiso   1.00
C324   C     0.17447   0.69113   0.07134   0.00000  Uiso   1.00
C325   C     0.22317   0.62805   0.07391   0.00000  Uiso   1.00
C326   C     0.26122   0.66382   0.12170   0.00000  Uiso   1.00
C327   C     0.33610   0.68652   0.19003   0.00000  Uiso   1.00
C328   C     0.11722   0.78379   0.98568   0.00000  Uiso   1.00
C329   C     0.11777   0.79861   0.91623   0.00000  Uiso   1.00
C330   C     0.10762   0.91238   0.89190   0.00000  Uiso   1.00
C331   C     0.09357   0.07892   0.82724   0.00000  Uiso   1.00
C332   C     0.07708   0.64704   0.06712   0.00000  Uiso   1.00
C333   C     0.04388   0.54691   0.06614   0.00000  Uiso   1.00
C334   C     0.99993   0.54556   0.11038   0.00000  Uiso   1.00
C335   C     0.92357   0.49978   0.17218   0.00000  Uiso   1.00
C336   C     0.10824   0.84286   0.10333   0.00000  Uiso   1.00
C337   C     0.16413   0.78655   0.11495   0.00000  Uiso   1.00
C338   C     0.20212   0.82242   0.16274   0.00000  Uiso   1.00
C339   C     0.25087   0.75941   0.16538   0.00000  Uiso   1.00
C340   C     0.10688   0.87921   0.02928   0.00000  Uiso   1.00
C341   C     0.09672   0.99298   0.00505   0.00000  Uiso   1.00
C342   C     0.09727   0.00798   0.93558   0.00000  Uiso   1.00
C343   C     0.06675   0.74246   0.11073   0.00000  Uiso   1.00
C344   C     0.02284   0.74127   0.15497   0.00000  Uiso   1.00
C345   C     0.98958   0.64115   0.15406   0.00000  Uiso   1.00
H346   H     0.13531   0.59290   0.98909   0.00000  Uiso   1.00
H347   H     0.23116   0.55422   0.04015   0.00000  Uiso   1.00
H348   H     0.12577   0.72475   0.88249   0.00000  Uiso   1.00
H349   H     0.05190   0.47308   0.03239   0.00000  Uiso   1.00
H350   H     0.33286   0.55345   0.11598   0.00000  Uiso   1.00
H351   H     0.11063   0.91301   0.78355   0.00000  Uiso   1.00
H352   H     0.95485   0.38232   0.09963   0.00000  Uiso   1.00
H353   H     0.10020   0.91716   0.13728   0.00000  Uiso   1.00
H354   H     0.19411   0.89627   0.19648   0.00000  Uiso   1.00
H355   H     0.08873   0.06680   0.03881   0.00000  Uiso   1.00
H356   H     0.01485   0.81513   0.18871   0.00000  Uiso   1.00
H357   H     0.30280   0.83107   0.24286   0.00000  Uiso   1.00
H358   H     0.08057   0.19063   0.91042   0.00000  Uiso   1.00
H359   H     0.92479   0.65994   0.22651   0.00000  Uiso   1.00
O360   O     0.38025   0.67269   0.21567   0.00000  Uiso   1.00
O361   O     0.08868   0.14441   0.77953   0.00000  Uiso   1.00
O362   O     0.88431   0.44816   0.19423   0.00000  Uiso   1.00
N363   N     0.31289   0.62163   0.13773   0.00000  Uiso   1.00
N364   N     0.10513   0.95781   0.82692   0.00000  Uiso   1.00
N365   N     0.95948   0.46167   0.12242   0.00000  Uiso   1.00
N366   N     0.29672   0.77102   0.20600   0.00000  Uiso   1.00
N367   N     0.08895   0.10719   0.89519   0.00000  Uiso   1.00
N368   N     0.94330   0.61105   0.19069   0.00000  Uiso   1.00
