data_job_02294
_audit_creation_date              2018-12-19
_audit_creation_method            'Materials Studio'
_symmetry_space_group_name_H-M    'P1'
_symmetry_Int_Tables_number       1
_symmetry_cell_setting            triclinic
loop_
_symmetry_equiv_pos_as_xyz
  x,y,z
_cell_length_a                    12.2145
_cell_length_b                    26.5189
_cell_length_c                    8.8797
_cell_angle_alpha                 90.0000
_cell_angle_beta                  73.4493
_cell_angle_gamma                 90.0000
loop_
_atom_site_label
_atom_site_type_symbol
_atom_site_fract_x
_atom_site_fract_y
_atom_site_fract_z
_atom_site_U_iso_or_equiv
_atom_site_adp_type
_atom_site_occupancy
C1     C     0.82236   0.11469   0.92832   0.00000  Uiso   1.00
C2     C     0.71202   0.14005   0.92071   0.00000  Uiso   1.00
C3     C     0.65988   0.18082   0.01095   0.00000  Uiso   1.00
C4     C     0.55935   0.19852   0.98646   0.00000  Uiso   1.00
C5     C     0.39508   0.24128   0.99156   0.00000  Uiso   1.00
C6     C     0.79330   0.05915   0.96250   0.00000  Uiso   1.00
C7     C     0.80953   0.03191   0.08786   0.00000  Uiso   1.00
C8     C     0.77744   0.98151   0.09852   0.00000  Uiso   1.00
C9     C     0.73944   0.89867   0.16842   0.00000  Uiso   1.00
C10    C     0.90294   0.11671   0.76197   0.00000  Uiso   1.00
C11    C     0.01138   0.13785   0.71872   0.00000  Uiso   1.00
C12    C     0.07161   0.13589   0.56055   0.00000  Uiso   1.00
C13    C     0.20384   0.14242   0.31911   0.00000  Uiso   1.00
C14    C     0.73653   0.07362   0.72433   0.00000  Uiso   1.00
C15    C     0.66540   0.11774   0.80992   0.00000  Uiso   1.00
C16    C     0.56492   0.13539   0.78527   0.00000  Uiso   1.00
C17    C     0.51265   0.17618   0.87546   0.00000  Uiso   1.00
C18    C     0.74668   0.03685   0.85171   0.00000  Uiso   1.00
C19    C     0.71457   0.98648   0.86218   0.00000  Uiso   1.00
C20    C     0.73074   0.95916   0.98752   0.00000  Uiso   1.00
C21    C     0.85633   0.09441   0.65117   0.00000  Uiso   1.00
C22    C     0.91641   0.09242   0.49304   0.00000  Uiso   1.00
C23    C     0.02491   0.11355   0.44956   0.00000  Uiso   1.00
H24    H     0.85866   0.13205   0.01458   0.00000  Uiso   1.00
H25    H     0.69598   0.19807   0.09670   0.00000  Uiso   1.00
H26    H     0.84562   0.04918   0.17357   0.00000  Uiso   1.00
H27    H     0.04742   0.15510   0.80449   0.00000  Uiso   1.00
H28    H     0.49505   0.26142   0.13892   0.00000  Uiso   1.00
H29    H     0.81060   0.94747   0.30098   0.00000  Uiso   1.00
H30    H     0.23615   0.17083   0.52272   0.00000  Uiso   1.00
H31    H     0.70024   0.05625   0.63807   0.00000  Uiso   1.00
H32    H     0.52887   0.11812   0.69952   0.00000  Uiso   1.00
H33    H     0.67850   0.96923   0.77641   0.00000  Uiso   1.00
H34    H     0.88031   0.07515   0.40733   0.00000  Uiso   1.00
H35    H     0.35941   0.19653   0.81657   0.00000  Uiso   1.00
H36    H     0.67496   0.88258   0.97863   0.00000  Uiso   1.00
H37    H     0.10051   0.10594   0.20036   0.00000  Uiso   1.00
O38    O     0.31733   0.27102   0.02500   0.00000  Uiso   1.00
O39    O     0.73135   0.85914   0.23761   0.00000  Uiso   1.00
O40    O     0.28965   0.15218   0.21654   0.00000  Uiso   1.00
N41    N     0.48666   0.23766   0.05459   0.00000  Uiso   1.00
N42    N     0.78166   0.94414   0.20613   0.00000  Uiso   1.00
N43    N     0.17953   0.15295   0.47852   0.00000  Uiso   1.00
N44    N     0.41367   0.20274   0.88114   0.00000  Uiso   1.00
N45    N     0.70867   0.90923   0.03268   0.00000  Uiso   1.00
N46    N     0.10654   0.11804   0.30507   0.00000  Uiso   1.00
C47    C     0.17764   0.61469   0.57168   0.00000  Uiso   1.00
C48    C     0.28798   0.64005   0.57929   0.00000  Uiso   1.00
C49    C     0.34012   0.68082   0.48905   0.00000  Uiso   1.00
C50    C     0.44065   0.69852   0.51354   0.00000  Uiso   1.00
C51    C     0.60492   0.74128   0.50844   0.00000  Uiso   1.00
C52    C     0.20670   0.55915   0.53750   0.00000  Uiso   1.00
C53    C     0.19047   0.53191   0.41214   0.00000  Uiso   1.00
C54    C     0.22256   0.48151   0.40148   0.00000  Uiso   1.00
C55    C     0.26056   0.39867   0.33158   0.00000  Uiso   1.00
C56    C     0.09706   0.61671   0.73803   0.00000  Uiso   1.00
C57    C     0.98862   0.63785   0.78128   0.00000  Uiso   1.00
C58    C     0.92839   0.63589   0.93945   0.00000  Uiso   1.00
C59    C     0.79616   0.64242   0.18089   0.00000  Uiso   1.00
C60    C     0.26347   0.57362   0.77567   0.00000  Uiso   1.00
C61    C     0.33460   0.61774   0.69008   0.00000  Uiso   1.00
C62    C     0.43508   0.63539   0.71473   0.00000  Uiso   1.00
C63    C     0.48735   0.67618   0.62454   0.00000  Uiso   1.00
C64    C     0.25332   0.53685   0.64829   0.00000  Uiso   1.00
C65    C     0.28543   0.48648   0.63782   0.00000  Uiso   1.00
C66    C     0.26926   0.45916   0.51248   0.00000  Uiso   1.00
C67    C     0.14367   0.59441   0.84883   0.00000  Uiso   1.00
C68    C     0.08359   0.59242   0.00696   0.00000  Uiso   1.00
C69    C     0.97509   0.61355   0.05044   0.00000  Uiso   1.00
H70    H     0.14134   0.63205   0.48542   0.00000  Uiso   1.00
H71    H     0.30402   0.69807   0.40330   0.00000  Uiso   1.00
H72    H     0.15438   0.54918   0.32643   0.00000  Uiso   1.00
H73    H     0.95258   0.65510   0.69551   0.00000  Uiso   1.00
H74    H     0.50495   0.76142   0.36108   0.00000  Uiso   1.00
H75    H     0.18940   0.44747   0.19902   0.00000  Uiso   1.00
H76    H     0.76385   0.67083   0.97728   0.00000  Uiso   1.00
H77    H     0.29976   0.55625   0.86193   0.00000  Uiso   1.00
H78    H     0.47113   0.61812   0.80048   0.00000  Uiso   1.00
H79    H     0.32150   0.46923   0.72359   0.00000  Uiso   1.00
H80    H     0.11969   0.57515   0.09267   0.00000  Uiso   1.00
H81    H     0.64059   0.69653   0.68343   0.00000  Uiso   1.00
H82    H     0.32504   0.38258   0.52137   0.00000  Uiso   1.00
H83    H     0.89949   0.60594   0.29964   0.00000  Uiso   1.00
O84    O     0.68267   0.77102   0.47500   0.00000  Uiso   1.00
O85    O     0.26865   0.35914   0.26239   0.00000  Uiso   1.00
O86    O     0.71035   0.65218   0.28346   0.00000  Uiso   1.00
N87    N     0.51334   0.73766   0.44541   0.00000  Uiso   1.00
N88    N     0.21834   0.44414   0.29387   0.00000  Uiso   1.00
N89    N     0.82047   0.65295   0.02148   0.00000  Uiso   1.00
N90    N     0.58633   0.70274   0.61886   0.00000  Uiso   1.00
N91    N     0.29133   0.40923   0.46732   0.00000  Uiso   1.00
N92    N     0.89346   0.61804   0.19493   0.00000  Uiso   1.00
C93    C     0.17764   0.88531   0.07168   0.00000  Uiso   1.00
C94    C     0.28798   0.85995   0.07929   0.00000  Uiso   1.00
C95    C     0.34012   0.81918   0.98905   0.00000  Uiso   1.00
C96    C     0.44065   0.80148   0.01354   0.00000  Uiso   1.00
C97    C     0.60492   0.75872   0.00844   0.00000  Uiso   1.00
C98    C     0.20670   0.94085   0.03750   0.00000  Uiso   1.00
C99    C     0.19047   0.96809   0.91214   0.00000  Uiso   1.00
C100   C     0.22256   0.01849   0.90148   0.00000  Uiso   1.00
C101   C     0.26056   0.10133   0.83158   0.00000  Uiso   1.00
C102   C     0.09706   0.88329   0.23803   0.00000  Uiso   1.00
C103   C     0.98862   0.86215   0.28128   0.00000  Uiso   1.00
C104   C     0.92839   0.86411   0.43945   0.00000  Uiso   1.00
C105   C     0.79616   0.85758   0.68089   0.00000  Uiso   1.00
C106   C     0.26347   0.92638   0.27567   0.00000  Uiso   1.00
C107   C     0.33460   0.88226   0.19008   0.00000  Uiso   1.00
C108   C     0.43508   0.86461   0.21473   0.00000  Uiso   1.00
C109   C     0.48735   0.82382   0.12454   0.00000  Uiso   1.00
C110   C     0.25332   0.96315   0.14829   0.00000  Uiso   1.00
C111   C     0.28543   0.01352   0.13782   0.00000  Uiso   1.00
C112   C     0.26926   0.04084   0.01248   0.00000  Uiso   1.00
C113   C     0.14367   0.90559   0.34883   0.00000  Uiso   1.00
C114   C     0.08359   0.90758   0.50696   0.00000  Uiso   1.00
C115   C     0.97509   0.88645   0.55044   0.00000  Uiso   1.00
H116   H     0.14134   0.86795   0.98542   0.00000  Uiso   1.00
H117   H     0.30402   0.80193   0.90330   0.00000  Uiso   1.00
H118   H     0.15438   0.95082   0.82643   0.00000  Uiso   1.00
H119   H     0.95258   0.84490   0.19551   0.00000  Uiso   1.00
H120   H     0.50495   0.73858   0.86108   0.00000  Uiso   1.00
H121   H     0.18940   0.05253   0.69902   0.00000  Uiso   1.00
H122   H     0.76385   0.82917   0.47728   0.00000  Uiso   1.00
H123   H     0.29976   0.94375   0.36193   0.00000  Uiso   1.00
H124   H     0.47113   0.88188   0.30048   0.00000  Uiso   1.00
H125   H     0.32150   0.03077   0.22359   0.00000  Uiso   1.00
H126   H     0.11969   0.92485   0.59267   0.00000  Uiso   1.00
H127   H     0.64059   0.80347   0.18343   0.00000  Uiso   1.00
H128   H     0.32504   0.11742   0.02137   0.00000  Uiso   1.00
H129   H     0.89949   0.89406   0.79964   0.00000  Uiso   1.00
O130   O     0.68267   0.72898   0.97500   0.00000  Uiso   1.00
O131   O     0.26865   0.14086   0.76239   0.00000  Uiso   1.00
O132   O     0.71035   0.84782   0.78346   0.00000  Uiso   1.00
N133   N     0.51334   0.76234   0.94541   0.00000  Uiso   1.00
N134   N     0.21834   0.05586   0.79387   0.00000  Uiso   1.00
N135   N     0.82047   0.84705   0.52148   0.00000  Uiso   1.00
N136   N     0.58633   0.79726   0.11886   0.00000  Uiso   1.00
N137   N     0.29133   0.09077   0.96732   0.00000  Uiso   1.00
N138   N     0.89346   0.88196   0.69493   0.00000  Uiso   1.00
C139   C     0.82236   0.38531   0.42832   0.00000  Uiso   1.00
C140   C     0.71202   0.35995   0.42071   0.00000  Uiso   1.00
C141   C     0.65988   0.31918   0.51095   0.00000  Uiso   1.00
C142   C     0.55935   0.30148   0.48646   0.00000  Uiso   1.00
C143   C     0.39508   0.25872   0.49156   0.00000  Uiso   1.00
C144   C     0.79330   0.44085   0.46250   0.00000  Uiso   1.00
C145   C     0.80953   0.46809   0.58786   0.00000  Uiso   1.00
C146   C     0.77744   0.51849   0.59852   0.00000  Uiso   1.00
C147   C     0.73944   0.60133   0.66842   0.00000  Uiso   1.00
C148   C     0.90294   0.38329   0.26197   0.00000  Uiso   1.00
C149   C     0.01138   0.36215   0.21872   0.00000  Uiso   1.00
C150   C     0.07161   0.36411   0.06055   0.00000  Uiso   1.00
C151   C     0.20384   0.35758   0.81911   0.00000  Uiso   1.00
C152   C     0.73653   0.42638   0.22433   0.00000  Uiso   1.00
C153   C     0.66540   0.38226   0.30992   0.00000  Uiso   1.00
C154   C     0.56492   0.36461   0.28527   0.00000  Uiso   1.00
C155   C     0.51265   0.32382   0.37546   0.00000  Uiso   1.00
C156   C     0.74668   0.46315   0.35171   0.00000  Uiso   1.00
C157   C     0.71457   0.51352   0.36218   0.00000  Uiso   1.00
C158   C     0.73074   0.54084   0.48752   0.00000  Uiso   1.00
C159   C     0.85633   0.40559   0.15117   0.00000  Uiso   1.00
C160   C     0.91641   0.40758   0.99304   0.00000  Uiso   1.00
C161   C     0.02491   0.38645   0.94956   0.00000  Uiso   1.00
H162   H     0.85866   0.36795   0.51458   0.00000  Uiso   1.00
H163   H     0.69598   0.30193   0.59670   0.00000  Uiso   1.00
H164   H     0.84562   0.45082   0.67357   0.00000  Uiso   1.00
H165   H     0.04742   0.34490   0.30449   0.00000  Uiso   1.00
H166   H     0.49505   0.23858   0.63892   0.00000  Uiso   1.00
H167   H     0.81060   0.55253   0.80098   0.00000  Uiso   1.00
H168   H     0.23615   0.32917   0.02272   0.00000  Uiso   1.00
H169   H     0.70024   0.44375   0.13807   0.00000  Uiso   1.00
H170   H     0.52887   0.38188   0.19952   0.00000  Uiso   1.00
H171   H     0.67850   0.53077   0.27641   0.00000  Uiso   1.00
H172   H     0.88031   0.42485   0.90733   0.00000  Uiso   1.00
H173   H     0.35941   0.30347   0.31657   0.00000  Uiso   1.00
H174   H     0.67496   0.61742   0.47863   0.00000  Uiso   1.00
H175   H     0.10051   0.39406   0.70036   0.00000  Uiso   1.00
O176   O     0.31733   0.22898   0.52500   0.00000  Uiso   1.00
O177   O     0.73135   0.64086   0.73761   0.00000  Uiso   1.00
O178   O     0.28965   0.34782   0.71654   0.00000  Uiso   1.00
N179   N     0.48666   0.26234   0.55459   0.00000  Uiso   1.00
N180   N     0.78166   0.55586   0.70613   0.00000  Uiso   1.00
N181   N     0.17953   0.34705   0.97852   0.00000  Uiso   1.00
N182   N     0.41367   0.29726   0.38114   0.00000  Uiso   1.00
N183   N     0.70867   0.59077   0.53268   0.00000  Uiso   1.00
N184   N     0.10654   0.38196   0.80507   0.00000  Uiso   1.00
