data_job_03954
_audit_creation_date              2018-12-19
_audit_creation_method            'Materials Studio'
_symmetry_space_group_name_H-M    'P1'
_symmetry_Int_Tables_number       1
_symmetry_cell_setting            triclinic
loop_
_symmetry_equiv_pos_as_xyz
  x,y,z
_cell_length_a                    23.1646
_cell_length_b                    23.1646
_cell_length_c                    10.3445
_cell_angle_alpha                 90.0000
_cell_angle_beta                  90.0000
_cell_angle_gamma                 90.0000
loop_
_atom_site_label
_atom_site_type_symbol
_atom_site_fract_x
_atom_site_fract_y
_atom_site_fract_z
_atom_site_U_iso_or_equiv
_atom_site_adp_type
_atom_site_occupancy
C1     C     0.57760   0.23512   0.61206   0.00000  Uiso   1.00
C2     C     0.57663   0.23793   0.46479   0.00000  Uiso   1.00
C3     C     0.58895   0.19256   0.38162   0.00000  Uiso   1.00
C4     C     0.58569   0.20388   0.25002   0.00000  Uiso   1.00
C5     C     0.58651   0.19992   0.02845   0.00000  Uiso   1.00
C6     C     0.61930   0.28213   0.65594   0.00000  Uiso   1.00
C7     C     0.66750   0.27393   0.73350   0.00000  Uiso   1.00
C8     C     0.70015   0.32246   0.76282   0.00000  Uiso   1.00
C9     C     0.76719   0.38714   0.83809   0.00000  Uiso   1.00
C10    C     0.51787   0.25435   0.65664   0.00000  Uiso   1.00
C11    C     0.48078   0.22280   0.73481   0.00000  Uiso   1.00
C12    C     0.42804   0.24794   0.76474   0.00000  Uiso   1.00
C13    C     0.33759   0.26948   0.84108   0.00000  Uiso   1.00
C14    C     0.54988   0.33587   0.52625   0.00000  Uiso   1.00
C15    C     0.56158   0.29265   0.41819   0.00000  Uiso   1.00
C16    C     0.55829   0.30404   0.28668   0.00000  Uiso   1.00
C17    C     0.57061   0.25870   0.20333   0.00000  Uiso   1.00
C18    C     0.60425   0.33686   0.60934   0.00000  Uiso   1.00
C19    C     0.63684   0.38541   0.63856   0.00000  Uiso   1.00
C20    C     0.68507   0.37729   0.71613   0.00000  Uiso   1.00
C21    C     0.50281   0.30907   0.61003   0.00000  Uiso   1.00
C22    C     0.45012   0.33427   0.63986   0.00000  Uiso   1.00
C23    C     0.41296   0.30277   0.71805   0.00000  Uiso   1.00
H24    H     0.58932   0.19251   0.64835   0.00000  Uiso   1.00
H25    H     0.60061   0.15022   0.41773   0.00000  Uiso   1.00
H26    H     0.67913   0.23158   0.76956   0.00000  Uiso   1.00
H27    H     0.49245   0.18045   0.77086   0.00000  Uiso   1.00
H28    H     0.60651   0.12747   0.14149   0.00000  Uiso   1.00
H29    H     0.77207   0.29902   0.88339   0.00000  Uiso   1.00
H30    H     0.37841   0.19121   0.88612   0.00000  Uiso   1.00
H31    H     0.53816   0.37848   0.48996   0.00000  Uiso   1.00
H32    H     0.54664   0.34640   0.25064   0.00000  Uiso   1.00
H33    H     0.62517   0.42775   0.60248   0.00000  Uiso   1.00
H34    H     0.43849   0.37662   0.60377   0.00000  Uiso   1.00
H35    H     0.56271   0.28669   0.00587   0.00000  Uiso   1.00
H36    H     0.72827   0.45825   0.74778   0.00000  Uiso   1.00
H37    H     0.33461   0.35043   0.75051   0.00000  Uiso   1.00
O38    O     0.59113   0.18262   0.91910   0.00000  Uiso   1.00
O39    O     0.80833   0.40769   0.89247   0.00000  Uiso   1.00
O40    O     0.29186   0.26624   0.89605   0.00000  Uiso   1.00
N41    N     0.59502   0.16934   0.14241   0.00000  Uiso   1.00
N42    N     0.74982   0.32973   0.83603   0.00000  Uiso   1.00
N43    N     0.38178   0.22894   0.83862   0.00000  Uiso   1.00
N44    N     0.57146   0.25502   0.06944   0.00000  Uiso   1.00
N45    N     0.72625   0.41541   0.76306   0.00000  Uiso   1.00
N46    N     0.35822   0.31462   0.76564   0.00000  Uiso   1.00
C47    C     0.42240   0.76488   0.61206   0.00000  Uiso   1.00
C48    C     0.42337   0.76207   0.46479   0.00000  Uiso   1.00
C49    C     0.41105   0.80744   0.38162   0.00000  Uiso   1.00
C50    C     0.41431   0.79612   0.25002   0.00000  Uiso   1.00
C51    C     0.41349   0.80008   0.02845   0.00000  Uiso   1.00
C52    C     0.38070   0.71787   0.65594   0.00000  Uiso   1.00
C53    C     0.33250   0.72607   0.73350   0.00000  Uiso   1.00
C54    C     0.29985   0.67754   0.76282   0.00000  Uiso   1.00
C55    C     0.23281   0.61286   0.83809   0.00000  Uiso   1.00
C56    C     0.48213   0.74565   0.65664   0.00000  Uiso   1.00
C57    C     0.51922   0.77720   0.73481   0.00000  Uiso   1.00
C58    C     0.57196   0.75206   0.76474   0.00000  Uiso   1.00
C59    C     0.66241   0.73052   0.84108   0.00000  Uiso   1.00
C60    C     0.45012   0.66413   0.52625   0.00000  Uiso   1.00
C61    C     0.43842   0.70735   0.41819   0.00000  Uiso   1.00
C62    C     0.44171   0.69596   0.28668   0.00000  Uiso   1.00
C63    C     0.42939   0.74130   0.20333   0.00000  Uiso   1.00
C64    C     0.39575   0.66314   0.60934   0.00000  Uiso   1.00
C65    C     0.36316   0.61459   0.63856   0.00000  Uiso   1.00
C66    C     0.31493   0.62271   0.71613   0.00000  Uiso   1.00
C67    C     0.49719   0.69093   0.61003   0.00000  Uiso   1.00
C68    C     0.54988   0.66573   0.63986   0.00000  Uiso   1.00
C69    C     0.58704   0.69723   0.71805   0.00000  Uiso   1.00
H70    H     0.41068   0.80749   0.64835   0.00000  Uiso   1.00
H71    H     0.39939   0.84978   0.41773   0.00000  Uiso   1.00
H72    H     0.32087   0.76842   0.76956   0.00000  Uiso   1.00
H73    H     0.50755   0.81955   0.77086   0.00000  Uiso   1.00
H74    H     0.39349   0.87253   0.14149   0.00000  Uiso   1.00
H75    H     0.22793   0.70098   0.88339   0.00000  Uiso   1.00
H76    H     0.62159   0.80879   0.88612   0.00000  Uiso   1.00
H77    H     0.46184   0.62152   0.48996   0.00000  Uiso   1.00
H78    H     0.45336   0.65360   0.25064   0.00000  Uiso   1.00
H79    H     0.37483   0.57225   0.60248   0.00000  Uiso   1.00
H80    H     0.56151   0.62338   0.60377   0.00000  Uiso   1.00
H81    H     0.43729   0.71331   0.00587   0.00000  Uiso   1.00
H82    H     0.27173   0.54175   0.74778   0.00000  Uiso   1.00
H83    H     0.66539   0.64957   0.75051   0.00000  Uiso   1.00
O84    O     0.40887   0.81738   0.91910   0.00000  Uiso   1.00
O85    O     0.19167   0.59231   0.89247   0.00000  Uiso   1.00
O86    O     0.70814   0.73376   0.89605   0.00000  Uiso   1.00
N87    N     0.40498   0.83066   0.14241   0.00000  Uiso   1.00
N88    N     0.25018   0.67027   0.83603   0.00000  Uiso   1.00
N89    N     0.61822   0.77106   0.83862   0.00000  Uiso   1.00
N90    N     0.42854   0.74498   0.06944   0.00000  Uiso   1.00
N91    N     0.27375   0.58459   0.76306   0.00000  Uiso   1.00
N92    N     0.64178   0.68538   0.76564   0.00000  Uiso   1.00
C93    C     0.26488   0.07760   0.61206   0.00000  Uiso   1.00
C94    C     0.26207   0.07663   0.46479   0.00000  Uiso   1.00
C95    C     0.30744   0.08895   0.38162   0.00000  Uiso   1.00
C96    C     0.29612   0.08569   0.25002   0.00000  Uiso   1.00
C97    C     0.30008   0.08651   0.02845   0.00000  Uiso   1.00
C98    C     0.21787   0.11930   0.65594   0.00000  Uiso   1.00
C99    C     0.22607   0.16750   0.73350   0.00000  Uiso   1.00
C100   C     0.17754   0.20015   0.76282   0.00000  Uiso   1.00
C101   C     0.11286   0.26719   0.83809   0.00000  Uiso   1.00
C102   C     0.24565   0.01787   0.65664   0.00000  Uiso   1.00
C103   C     0.27720   0.98078   0.73481   0.00000  Uiso   1.00
C104   C     0.25206   0.92804   0.76474   0.00000  Uiso   1.00
C105   C     0.23052   0.83759   0.84108   0.00000  Uiso   1.00
C106   C     0.16413   0.04988   0.52625   0.00000  Uiso   1.00
C107   C     0.20735   0.06158   0.41819   0.00000  Uiso   1.00
C108   C     0.19596   0.05829   0.28668   0.00000  Uiso   1.00
C109   C     0.24130   0.07061   0.20333   0.00000  Uiso   1.00
C110   C     0.16314   0.10425   0.60934   0.00000  Uiso   1.00
C111   C     0.11459   0.13684   0.63856   0.00000  Uiso   1.00
C112   C     0.12271   0.18507   0.71613   0.00000  Uiso   1.00
C113   C     0.19093   0.00281   0.61003   0.00000  Uiso   1.00
C114   C     0.16573   0.95012   0.63986   0.00000  Uiso   1.00
C115   C     0.19723   0.91296   0.71805   0.00000  Uiso   1.00
H116   H     0.30749   0.08932   0.64835   0.00000  Uiso   1.00
H117   H     0.34978   0.10061   0.41773   0.00000  Uiso   1.00
H118   H     0.26842   0.17913   0.76956   0.00000  Uiso   1.00
H119   H     0.31955   0.99245   0.77086   0.00000  Uiso   1.00
H120   H     0.37253   0.10651   0.14149   0.00000  Uiso   1.00
H121   H     0.20098   0.27207   0.88339   0.00000  Uiso   1.00
H122   H     0.30879   0.87841   0.88612   0.00000  Uiso   1.00
H123   H     0.12152   0.03816   0.48996   0.00000  Uiso   1.00
H124   H     0.15360   0.04664   0.25064   0.00000  Uiso   1.00
H125   H     0.07225   0.12517   0.60248   0.00000  Uiso   1.00
H126   H     0.12338   0.93849   0.60377   0.00000  Uiso   1.00
H127   H     0.21331   0.06271   0.00587   0.00000  Uiso   1.00
H128   H     0.04175   0.22827   0.74778   0.00000  Uiso   1.00
H129   H     0.14957   0.83461   0.75051   0.00000  Uiso   1.00
O130   O     0.31738   0.09113   0.91910   0.00000  Uiso   1.00
O131   O     0.09231   0.30833   0.89247   0.00000  Uiso   1.00
O132   O     0.23376   0.79186   0.89605   0.00000  Uiso   1.00
N133   N     0.33066   0.09502   0.14241   0.00000  Uiso   1.00
N134   N     0.17027   0.24982   0.83603   0.00000  Uiso   1.00
N135   N     0.27106   0.88178   0.83862   0.00000  Uiso   1.00
N136   N     0.24498   0.07146   0.06944   0.00000  Uiso   1.00
N137   N     0.08459   0.22625   0.76306   0.00000  Uiso   1.00
N138   N     0.18538   0.85822   0.76564   0.00000  Uiso   1.00
C139   C     0.73512   0.92240   0.61206   0.00000  Uiso   1.00
C140   C     0.73793   0.92337   0.46479   0.00000  Uiso   1.00
C141   C     0.69256   0.91105   0.38162   0.00000  Uiso   1.00
C142   C     0.70388   0.91431   0.25002   0.00000  Uiso   1.00
C143   C     0.69992   0.91349   0.02845   0.00000  Uiso   1.00
C144   C     0.78213   0.88070   0.65594   0.00000  Uiso   1.00
C145   C     0.77393   0.83250   0.73350   0.00000  Uiso   1.00
C146   C     0.82246   0.79985   0.76282   0.00000  Uiso   1.00
C147   C     0.88714   0.73281   0.83809   0.00000  Uiso   1.00
C148   C     0.75435   0.98213   0.65664   0.00000  Uiso   1.00
C149   C     0.72280   0.01922   0.73481   0.00000  Uiso   1.00
C150   C     0.74794   0.07196   0.76474   0.00000  Uiso   1.00
C151   C     0.76948   0.16241   0.84108   0.00000  Uiso   1.00
C152   C     0.83587   0.95012   0.52625   0.00000  Uiso   1.00
C153   C     0.79265   0.93842   0.41819   0.00000  Uiso   1.00
C154   C     0.80404   0.94171   0.28668   0.00000  Uiso   1.00
C155   C     0.75870   0.92939   0.20333   0.00000  Uiso   1.00
C156   C     0.83686   0.89575   0.60934   0.00000  Uiso   1.00
C157   C     0.88541   0.86316   0.63856   0.00000  Uiso   1.00
C158   C     0.87729   0.81493   0.71613   0.00000  Uiso   1.00
C159   C     0.80907   0.99719   0.61003   0.00000  Uiso   1.00
C160   C     0.83427   0.04988   0.63986   0.00000  Uiso   1.00
C161   C     0.80277   0.08704   0.71805   0.00000  Uiso   1.00
H162   H     0.69251   0.91068   0.64835   0.00000  Uiso   1.00
H163   H     0.65022   0.89939   0.41773   0.00000  Uiso   1.00
H164   H     0.73158   0.82087   0.76956   0.00000  Uiso   1.00
H165   H     0.68045   0.00755   0.77086   0.00000  Uiso   1.00
H166   H     0.62747   0.89349   0.14149   0.00000  Uiso   1.00
H167   H     0.79902   0.72793   0.88339   0.00000  Uiso   1.00
H168   H     0.69121   0.12159   0.88612   0.00000  Uiso   1.00
H169   H     0.87848   0.96184   0.48996   0.00000  Uiso   1.00
H170   H     0.84640   0.95336   0.25064   0.00000  Uiso   1.00
H171   H     0.92775   0.87483   0.60248   0.00000  Uiso   1.00
H172   H     0.87662   0.06151   0.60377   0.00000  Uiso   1.00
H173   H     0.78669   0.93729   0.00587   0.00000  Uiso   1.00
H174   H     0.95825   0.77173   0.74778   0.00000  Uiso   1.00
H175   H     0.85043   0.16539   0.75051   0.00000  Uiso   1.00
O176   O     0.68262   0.90887   0.91910   0.00000  Uiso   1.00
O177   O     0.90769   0.69167   0.89247   0.00000  Uiso   1.00
O178   O     0.76624   0.20814   0.89605   0.00000  Uiso   1.00
N179   N     0.66934   0.90498   0.14241   0.00000  Uiso   1.00
N180   N     0.82973   0.75018   0.83603   0.00000  Uiso   1.00
N181   N     0.72894   0.11822   0.83862   0.00000  Uiso   1.00
N182   N     0.75502   0.92854   0.06944   0.00000  Uiso   1.00
N183   N     0.91541   0.77375   0.76306   0.00000  Uiso   1.00
N184   N     0.81462   0.14178   0.76564   0.00000  Uiso   1.00
C185   C     0.92240   0.26488   0.38794   0.00000  Uiso   1.00
C186   C     0.92337   0.26207   0.53521   0.00000  Uiso   1.00
C187   C     0.91105   0.30744   0.61838   0.00000  Uiso   1.00
C188   C     0.91431   0.29612   0.74998   0.00000  Uiso   1.00
C189   C     0.91349   0.30008   0.97155   0.00000  Uiso   1.00
C190   C     0.88070   0.21787   0.34406   0.00000  Uiso   1.00
C191   C     0.83250   0.22607   0.26650   0.00000  Uiso   1.00
C192   C     0.79985   0.17754   0.23718   0.00000  Uiso   1.00
C193   C     0.73281   0.11286   0.16191   0.00000  Uiso   1.00
C194   C     0.98213   0.24565   0.34336   0.00000  Uiso   1.00
C195   C     0.01922   0.27720   0.26519   0.00000  Uiso   1.00
C196   C     0.07196   0.25206   0.23526   0.00000  Uiso   1.00
C197   C     0.16241   0.23052   0.15892   0.00000  Uiso   1.00
C198   C     0.95012   0.16413   0.47375   0.00000  Uiso   1.00
C199   C     0.93842   0.20735   0.58181   0.00000  Uiso   1.00
C200   C     0.94171   0.19596   0.71332   0.00000  Uiso   1.00
C201   C     0.92939   0.24130   0.79667   0.00000  Uiso   1.00
C202   C     0.89575   0.16314   0.39066   0.00000  Uiso   1.00
C203   C     0.86316   0.11459   0.36144   0.00000  Uiso   1.00
C204   C     0.81493   0.12271   0.28387   0.00000  Uiso   1.00
C205   C     0.99719   0.19093   0.38997   0.00000  Uiso   1.00
C206   C     0.04988   0.16573   0.36014   0.00000  Uiso   1.00
C207   C     0.08704   0.19723   0.28195   0.00000  Uiso   1.00
H208   H     0.91068   0.30749   0.35165   0.00000  Uiso   1.00
H209   H     0.89939   0.34978   0.58227   0.00000  Uiso   1.00
H210   H     0.82087   0.26842   0.23044   0.00000  Uiso   1.00
H211   H     0.00755   0.31955   0.22914   0.00000  Uiso   1.00
H212   H     0.89349   0.37253   0.85851   0.00000  Uiso   1.00
H213   H     0.72793   0.20098   0.11661   0.00000  Uiso   1.00
H214   H     0.12159   0.30879   0.11388   0.00000  Uiso   1.00
H215   H     0.96184   0.12152   0.51004   0.00000  Uiso   1.00
H216   H     0.95336   0.15360   0.74936   0.00000  Uiso   1.00
H217   H     0.87483   0.07225   0.39752   0.00000  Uiso   1.00
H218   H     0.06151   0.12338   0.39623   0.00000  Uiso   1.00
H219   H     0.93729   0.21331   0.99413   0.00000  Uiso   1.00
H220   H     0.77173   0.04175   0.25222   0.00000  Uiso   1.00
H221   H     0.16539   0.14957   0.24949   0.00000  Uiso   1.00
O222   O     0.90887   0.31738   0.08090   0.00000  Uiso   1.00
O223   O     0.69167   0.09231   0.10753   0.00000  Uiso   1.00
O224   O     0.20814   0.23376   0.10395   0.00000  Uiso   1.00
N225   N     0.90498   0.33066   0.85759   0.00000  Uiso   1.00
N226   N     0.75018   0.17027   0.16397   0.00000  Uiso   1.00
N227   N     0.11822   0.27106   0.16138   0.00000  Uiso   1.00
N228   N     0.92854   0.24498   0.93056   0.00000  Uiso   1.00
N229   N     0.77375   0.08459   0.23694   0.00000  Uiso   1.00
N230   N     0.14178   0.18538   0.23436   0.00000  Uiso   1.00
C231   C     0.07760   0.73512   0.38794   0.00000  Uiso   1.00
C232   C     0.07663   0.73793   0.53521   0.00000  Uiso   1.00
C233   C     0.08895   0.69256   0.61838   0.00000  Uiso   1.00
C234   C     0.08569   0.70388   0.74998   0.00000  Uiso   1.00
C235   C     0.08651   0.69992   0.97155   0.00000  Uiso   1.00
C236   C     0.11930   0.78213   0.34406   0.00000  Uiso   1.00
C237   C     0.16750   0.77393   0.26650   0.00000  Uiso   1.00
C238   C     0.20015   0.82246   0.23718   0.00000  Uiso   1.00
C239   C     0.26719   0.88714   0.16191   0.00000  Uiso   1.00
C240   C     0.01787   0.75435   0.34336   0.00000  Uiso   1.00
C241   C     0.98078   0.72280   0.26519   0.00000  Uiso   1.00
C242   C     0.92804   0.74794   0.23526   0.00000  Uiso   1.00
C243   C     0.83759   0.76948   0.15892   0.00000  Uiso   1.00
C244   C     0.04988   0.83587   0.47375   0.00000  Uiso   1.00
C245   C     0.06158   0.79265   0.58181   0.00000  Uiso   1.00
C246   C     0.05829   0.80404   0.71332   0.00000  Uiso   1.00
C247   C     0.07061   0.75870   0.79667   0.00000  Uiso   1.00
C248   C     0.10425   0.83686   0.39066   0.00000  Uiso   1.00
C249   C     0.13684   0.88541   0.36144   0.00000  Uiso   1.00
C250   C     0.18507   0.87729   0.28387   0.00000  Uiso   1.00
C251   C     0.00281   0.80907   0.38997   0.00000  Uiso   1.00
C252   C     0.95012   0.83427   0.36014   0.00000  Uiso   1.00
C253   C     0.91296   0.80277   0.28195   0.00000  Uiso   1.00
H254   H     0.08932   0.69251   0.35165   0.00000  Uiso   1.00
H255   H     0.10061   0.65022   0.58227   0.00000  Uiso   1.00
H256   H     0.17913   0.73158   0.23044   0.00000  Uiso   1.00
H257   H     0.99245   0.68045   0.22914   0.00000  Uiso   1.00
H258   H     0.10651   0.62747   0.85851   0.00000  Uiso   1.00
H259   H     0.27207   0.79902   0.11661   0.00000  Uiso   1.00
H260   H     0.87841   0.69121   0.11388   0.00000  Uiso   1.00
H261   H     0.03816   0.87848   0.51004   0.00000  Uiso   1.00
H262   H     0.04664   0.84640   0.74936   0.00000  Uiso   1.00
H263   H     0.12517   0.92775   0.39752   0.00000  Uiso   1.00
H264   H     0.93849   0.87662   0.39623   0.00000  Uiso   1.00
H265   H     0.06271   0.78669   0.99413   0.00000  Uiso   1.00
H266   H     0.22827   0.95825   0.25222   0.00000  Uiso   1.00
H267   H     0.83461   0.85043   0.24949   0.00000  Uiso   1.00
O268   O     0.09113   0.68262   0.08090   0.00000  Uiso   1.00
O269   O     0.30833   0.90769   0.10753   0.00000  Uiso   1.00
O270   O     0.79186   0.76624   0.10395   0.00000  Uiso   1.00
N271   N     0.09502   0.66934   0.85759   0.00000  Uiso   1.00
N272   N     0.24982   0.82973   0.16397   0.00000  Uiso   1.00
N273   N     0.88178   0.72894   0.16138   0.00000  Uiso   1.00
N274   N     0.07146   0.75502   0.93056   0.00000  Uiso   1.00
N275   N     0.22625   0.91541   0.23694   0.00000  Uiso   1.00
N276   N     0.85822   0.81462   0.23436   0.00000  Uiso   1.00
C277   C     0.23512   0.42240   0.38794   0.00000  Uiso   1.00
C278   C     0.23793   0.42337   0.53521   0.00000  Uiso   1.00
C279   C     0.19256   0.41105   0.61838   0.00000  Uiso   1.00
C280   C     0.20388   0.41431   0.74998   0.00000  Uiso   1.00
C281   C     0.19992   0.41349   0.97155   0.00000  Uiso   1.00
C282   C     0.28213   0.38070   0.34406   0.00000  Uiso   1.00
C283   C     0.27393   0.33250   0.26650   0.00000  Uiso   1.00
C284   C     0.32246   0.29985   0.23718   0.00000  Uiso   1.00
C285   C     0.38714   0.23281   0.16191   0.00000  Uiso   1.00
C286   C     0.25435   0.48213   0.34336   0.00000  Uiso   1.00
C287   C     0.22280   0.51922   0.26519   0.00000  Uiso   1.00
C288   C     0.24794   0.57196   0.23526   0.00000  Uiso   1.00
C289   C     0.26948   0.66241   0.15892   0.00000  Uiso   1.00
C290   C     0.33587   0.45012   0.47375   0.00000  Uiso   1.00
C291   C     0.29265   0.43842   0.58181   0.00000  Uiso   1.00
C292   C     0.30404   0.44171   0.71332   0.00000  Uiso   1.00
C293   C     0.25870   0.42939   0.79667   0.00000  Uiso   1.00
C294   C     0.33686   0.39575   0.39066   0.00000  Uiso   1.00
C295   C     0.38541   0.36316   0.36144   0.00000  Uiso   1.00
C296   C     0.37729   0.31493   0.28387   0.00000  Uiso   1.00
C297   C     0.30907   0.49719   0.38997   0.00000  Uiso   1.00
C298   C     0.33427   0.54988   0.36014   0.00000  Uiso   1.00
C299   C     0.30277   0.58704   0.28195   0.00000  Uiso   1.00
H300   H     0.19251   0.41068   0.35165   0.00000  Uiso   1.00
H301   H     0.15022   0.39939   0.58227   0.00000  Uiso   1.00
H302   H     0.23158   0.32087   0.23044   0.00000  Uiso   1.00
H303   H     0.18045   0.50755   0.22914   0.00000  Uiso   1.00
H304   H     0.12747   0.39349   0.85851   0.00000  Uiso   1.00
H305   H     0.29902   0.22793   0.11661   0.00000  Uiso   1.00
H306   H     0.19121   0.62159   0.11388   0.00000  Uiso   1.00
H307   H     0.37848   0.46184   0.51004   0.00000  Uiso   1.00
H308   H     0.34640   0.45336   0.74936   0.00000  Uiso   1.00
H309   H     0.42775   0.37483   0.39752   0.00000  Uiso   1.00
H310   H     0.37662   0.56151   0.39623   0.00000  Uiso   1.00
H311   H     0.28669   0.43729   0.99413   0.00000  Uiso   1.00
H312   H     0.45825   0.27173   0.25222   0.00000  Uiso   1.00
H313   H     0.35043   0.66539   0.24949   0.00000  Uiso   1.00
O314   O     0.18262   0.40887   0.08090   0.00000  Uiso   1.00
O315   O     0.40769   0.19167   0.10753   0.00000  Uiso   1.00
O316   O     0.26624   0.70814   0.10395   0.00000  Uiso   1.00
N317   N     0.16934   0.40498   0.85759   0.00000  Uiso   1.00
N318   N     0.32973   0.25018   0.16397   0.00000  Uiso   1.00
N319   N     0.22894   0.61822   0.16138   0.00000  Uiso   1.00
N320   N     0.25502   0.42854   0.93056   0.00000  Uiso   1.00
N321   N     0.41541   0.27375   0.23694   0.00000  Uiso   1.00
N322   N     0.31462   0.64178   0.23436   0.00000  Uiso   1.00
C323   C     0.76488   0.57760   0.38794   0.00000  Uiso   1.00
C324   C     0.76207   0.57663   0.53521   0.00000  Uiso   1.00
C325   C     0.80744   0.58895   0.61838   0.00000  Uiso   1.00
C326   C     0.79612   0.58569   0.74998   0.00000  Uiso   1.00
C327   C     0.80008   0.58651   0.97155   0.00000  Uiso   1.00
C328   C     0.71787   0.61930   0.34406   0.00000  Uiso   1.00
C329   C     0.72607   0.66750   0.26650   0.00000  Uiso   1.00
C330   C     0.67754   0.70015   0.23718   0.00000  Uiso   1.00
C331   C     0.61286   0.76719   0.16191   0.00000  Uiso   1.00
C332   C     0.74565   0.51787   0.34336   0.00000  Uiso   1.00
C333   C     0.77720   0.48078   0.26519   0.00000  Uiso   1.00
C334   C     0.75206   0.42804   0.23526   0.00000  Uiso   1.00
C335   C     0.73052   0.33759   0.15892   0.00000  Uiso   1.00
C336   C     0.66413   0.54988   0.47375   0.00000  Uiso   1.00
C337   C     0.70735   0.56158   0.58181   0.00000  Uiso   1.00
C338   C     0.69596   0.55829   0.71332   0.00000  Uiso   1.00
C339   C     0.74130   0.57061   0.79667   0.00000  Uiso   1.00
C340   C     0.66314   0.60425   0.39066   0.00000  Uiso   1.00
C341   C     0.61459   0.63684   0.36144   0.00000  Uiso   1.00
C342   C     0.62271   0.68507   0.28387   0.00000  Uiso   1.00
C343   C     0.69093   0.50281   0.38997   0.00000  Uiso   1.00
C344   C     0.66573   0.45012   0.36014   0.00000  Uiso   1.00
C345   C     0.69723   0.41296   0.28195   0.00000  Uiso   1.00
H346   H     0.80749   0.58932   0.35165   0.00000  Uiso   1.00
H347   H     0.84978   0.60061   0.58227   0.00000  Uiso   1.00
H348   H     0.76842   0.67913   0.23044   0.00000  Uiso   1.00
H349   H     0.81955   0.49245   0.22914   0.00000  Uiso   1.00
H350   H     0.87253   0.60651   0.85851   0.00000  Uiso   1.00
H351   H     0.70098   0.77207   0.11661   0.00000  Uiso   1.00
H352   H     0.80879   0.37841   0.11388   0.00000  Uiso   1.00
H353   H     0.62152   0.53816   0.51004   0.00000  Uiso   1.00
H354   H     0.65360   0.54664   0.74936   0.00000  Uiso   1.00
H355   H     0.57225   0.62517   0.39752   0.00000  Uiso   1.00
H356   H     0.62338   0.43849   0.39623   0.00000  Uiso   1.00
H357   H     0.71331   0.56271   0.99413   0.00000  Uiso   1.00
H358   H     0.54175   0.72827   0.25222   0.00000  Uiso   1.00
H359   H     0.64957   0.33461   0.24949   0.00000  Uiso   1.00
O360   O     0.81738   0.59113   0.08090   0.00000  Uiso   1.00
O361   O     0.59231   0.80833   0.10753   0.00000  Uiso   1.00
O362   O     0.73376   0.29186   0.10395   0.00000  Uiso   1.00
N363   N     0.83066   0.59502   0.85759   0.00000  Uiso   1.00
N364   N     0.67027   0.74982   0.16397   0.00000  Uiso   1.00
N365   N     0.77106   0.38178   0.16138   0.00000  Uiso   1.00
N366   N     0.74498   0.57146   0.93056   0.00000  Uiso   1.00
N367   N     0.58459   0.72625   0.23694   0.00000  Uiso   1.00
N368   N     0.68538   0.35822   0.23436   0.00000  Uiso   1.00
