data_job_03361
_audit_creation_date              2018-12-19
_audit_creation_method            'Materials Studio'
_symmetry_space_group_name_H-M    'P1'
_symmetry_Int_Tables_number       1
_symmetry_cell_setting            triclinic
loop_
_symmetry_equiv_pos_as_xyz
  x,y,z
_cell_length_a                    12.0959
_cell_length_b                    17.0012
_cell_length_c                    14.8147
_cell_angle_alpha                 90.0000
_cell_angle_beta                  85.7882
_cell_angle_gamma                 90.0000
loop_
_atom_site_label
_atom_site_type_symbol
_atom_site_fract_x
_atom_site_fract_y
_atom_site_fract_z
_atom_site_U_iso_or_equiv
_atom_site_adp_type
_atom_site_occupancy
C1     C     0.53411   0.77833   0.06476   0.00000  Uiso   1.00
C2     C     0.41422   0.74990   0.07109   0.00000  Uiso   1.00
C3     C     0.33730   0.76124   0.14414   0.00000  Uiso   1.00
C4     C     0.23189   0.73069   0.13678   0.00000  Uiso   1.00
C5     C     0.04992   0.69266   0.15845   0.00000  Uiso   1.00
C6     C     0.60543   0.70540   0.04572   0.00000  Uiso   1.00
C7     C     0.68929   0.67934   0.09742   0.00000  Uiso   1.00
C8     C     0.74486   0.61133   0.06870   0.00000  Uiso   1.00
C9     C     0.85980   0.50425   0.05093   0.00000  Uiso   1.00
C10    C     0.54813   0.82868   0.97951   0.00000  Uiso   1.00
C11    C     0.58384   0.90626   0.97553   0.00000  Uiso   1.00
C12    C     0.59120   0.94204   0.89105   0.00000  Uiso   1.00
C13    C     0.61717   0.02637   0.77048   0.00000  Uiso   1.00
C14    C     0.48370   0.70391   0.92181   0.00000  Uiso   1.00
C15    C     0.38684   0.70948   0.99345   0.00000  Uiso   1.00
C16    C     0.28152   0.67890   0.98597   0.00000  Uiso   1.00
C17    C     0.20446   0.69019   0.05899   0.00000  Uiso   1.00
C18    C     0.57805   0.66498   0.96808   0.00000  Uiso   1.00
C19    C     0.63352   0.59700   0.93926   0.00000  Uiso   1.00
C20    C     0.71743   0.57083   0.99091   0.00000  Uiso   1.00
C21    C     0.52075   0.78826   0.90186   0.00000  Uiso   1.00
C22    C     0.52806   0.82392   0.81737   0.00000  Uiso   1.00
C23    C     0.56377   0.90154   0.81326   0.00000  Uiso   1.00
H24    H     0.55543   0.80980   0.12521   0.00000  Uiso   1.00
H25    H     0.35852   0.79252   0.20422   0.00000  Uiso   1.00
H26    H     0.71047   0.71064   0.15750   0.00000  Uiso   1.00
H27    H     0.60502   0.93753   0.03563   0.00000  Uiso   1.00
H28    H     0.12815   0.75551   0.25758   0.00000  Uiso   1.00
H29    H     0.87027   0.58287   0.15906   0.00000  Uiso   1.00
H30    H     0.64793   0.06131   0.90207   0.00000  Uiso   1.00
H31    H     0.46238   0.67243   0.86135   0.00000  Uiso   1.00
H32    H     0.26036   0.64762   0.92588   0.00000  Uiso   1.00
H33    H     0.61231   0.56573   0.87917   0.00000  Uiso   1.00
H34    H     0.50687   0.79262   0.75729   0.00000  Uiso   1.00
H35    H     0.04848   0.63790   0.03168   0.00000  Uiso   1.00
H36    H     0.79061   0.46526   0.93316   0.00000  Uiso   1.00
H37    H     0.56826   0.94370   0.67616   0.00000  Uiso   1.00
O38    O     0.95711   0.68284   0.19185   0.00000  Uiso   1.00
O39    O     0.93076   0.45635   0.06259   0.00000  Uiso   1.00
O40    O     0.63904   0.08405   0.72542   0.00000  Uiso   1.00
N41    N     0.13712   0.73125   0.19555   0.00000  Uiso   1.00
N42    N     0.83095   0.56983   0.10345   0.00000  Uiso   1.00
N43    N     0.62310   0.01713   0.86318   0.00000  Uiso   1.00
N44    N     0.09425   0.66797   0.07399   0.00000  Uiso   1.00
N45    N     0.78808   0.50655   0.98189   0.00000  Uiso   1.00
N46    N     0.58023   0.95384   0.74162   0.00000  Uiso   1.00
C47    C     0.46589   0.27833   0.43524   0.00000  Uiso   1.00
C48    C     0.58578   0.24990   0.42891   0.00000  Uiso   1.00
C49    C     0.66270   0.26124   0.35586   0.00000  Uiso   1.00
C50    C     0.76811   0.23069   0.36322   0.00000  Uiso   1.00
C51    C     0.95008   0.19266   0.34155   0.00000  Uiso   1.00
C52    C     0.39457   0.20540   0.45428   0.00000  Uiso   1.00
C53    C     0.31071   0.17934   0.40258   0.00000  Uiso   1.00
C54    C     0.25514   0.11133   0.43130   0.00000  Uiso   1.00
C55    C     0.14020   0.00425   0.44907   0.00000  Uiso   1.00
C56    C     0.45187   0.32868   0.52049   0.00000  Uiso   1.00
C57    C     0.41616   0.40626   0.52447   0.00000  Uiso   1.00
C58    C     0.40880   0.44204   0.60895   0.00000  Uiso   1.00
C59    C     0.38283   0.52637   0.72952   0.00000  Uiso   1.00
C60    C     0.51630   0.20391   0.57819   0.00000  Uiso   1.00
C61    C     0.61316   0.20948   0.50655   0.00000  Uiso   1.00
C62    C     0.71848   0.17890   0.51403   0.00000  Uiso   1.00
C63    C     0.79554   0.19019   0.44101   0.00000  Uiso   1.00
C64    C     0.42195   0.16498   0.53192   0.00000  Uiso   1.00
C65    C     0.36648   0.09700   0.56074   0.00000  Uiso   1.00
C66    C     0.28257   0.07083   0.50909   0.00000  Uiso   1.00
C67    C     0.47925   0.28826   0.59814   0.00000  Uiso   1.00
C68    C     0.47194   0.32392   0.68263   0.00000  Uiso   1.00
C69    C     0.43623   0.40154   0.68674   0.00000  Uiso   1.00
H70    H     0.44457   0.30980   0.37479   0.00000  Uiso   1.00
H71    H     0.64148   0.29252   0.29578   0.00000  Uiso   1.00
H72    H     0.28953   0.21064   0.34250   0.00000  Uiso   1.00
H73    H     0.39498   0.43753   0.46437   0.00000  Uiso   1.00
H74    H     0.87185   0.25551   0.24242   0.00000  Uiso   1.00
H75    H     0.12973   0.08287   0.34094   0.00000  Uiso   1.00
H76    H     0.35207   0.56131   0.59793   0.00000  Uiso   1.00
H77    H     0.53762   0.17243   0.63865   0.00000  Uiso   1.00
H78    H     0.73964   0.14762   0.57412   0.00000  Uiso   1.00
H79    H     0.38769   0.06573   0.62083   0.00000  Uiso   1.00
H80    H     0.49313   0.29262   0.74271   0.00000  Uiso   1.00
H81    H     0.95152   0.13790   0.46832   0.00000  Uiso   1.00
H82    H     0.20939   0.96526   0.56684   0.00000  Uiso   1.00
H83    H     0.43174   0.44370   0.82384   0.00000  Uiso   1.00
O84    O     0.04289   0.18284   0.30815   0.00000  Uiso   1.00
O85    O     0.06924   0.95635   0.43741   0.00000  Uiso   1.00
O86    O     0.36096   0.58405   0.77458   0.00000  Uiso   1.00
N87    N     0.86288   0.23125   0.30445   0.00000  Uiso   1.00
N88    N     0.16905   0.06983   0.39655   0.00000  Uiso   1.00
N89    N     0.37690   0.51713   0.63682   0.00000  Uiso   1.00
N90    N     0.90575   0.16797   0.42601   0.00000  Uiso   1.00
N91    N     0.21192   0.00655   0.51811   0.00000  Uiso   1.00
N92    N     0.41977   0.45384   0.75838   0.00000  Uiso   1.00
C93    C     0.46589   0.22167   0.93524   0.00000  Uiso   1.00
C94    C     0.58578   0.25010   0.92891   0.00000  Uiso   1.00
C95    C     0.66270   0.23876   0.85586   0.00000  Uiso   1.00
C96    C     0.76811   0.26931   0.86322   0.00000  Uiso   1.00
C97    C     0.95008   0.30734   0.84155   0.00000  Uiso   1.00
C98    C     0.39457   0.29460   0.95428   0.00000  Uiso   1.00
C99    C     0.31071   0.32066   0.90258   0.00000  Uiso   1.00
C100   C     0.25514   0.38867   0.93130   0.00000  Uiso   1.00
C101   C     0.14020   0.49575   0.94907   0.00000  Uiso   1.00
C102   C     0.45187   0.17132   0.02049   0.00000  Uiso   1.00
C103   C     0.41616   0.09374   0.02447   0.00000  Uiso   1.00
C104   C     0.40880   0.05796   0.10895   0.00000  Uiso   1.00
C105   C     0.38283   0.97363   0.22952   0.00000  Uiso   1.00
C106   C     0.51630   0.29609   0.07819   0.00000  Uiso   1.00
C107   C     0.61316   0.29052   0.00655   0.00000  Uiso   1.00
C108   C     0.71848   0.32110   0.01403   0.00000  Uiso   1.00
C109   C     0.79554   0.30981   0.94101   0.00000  Uiso   1.00
C110   C     0.42195   0.33502   0.03192   0.00000  Uiso   1.00
C111   C     0.36648   0.40300   0.06074   0.00000  Uiso   1.00
C112   C     0.28257   0.42917   0.00909   0.00000  Uiso   1.00
C113   C     0.47925   0.21174   0.09814   0.00000  Uiso   1.00
C114   C     0.47194   0.17608   0.18263   0.00000  Uiso   1.00
C115   C     0.43623   0.09846   0.18674   0.00000  Uiso   1.00
H116   H     0.44457   0.19020   0.87479   0.00000  Uiso   1.00
H117   H     0.64148   0.20748   0.79578   0.00000  Uiso   1.00
H118   H     0.28953   0.28936   0.84250   0.00000  Uiso   1.00
H119   H     0.39498   0.06247   0.96437   0.00000  Uiso   1.00
H120   H     0.87185   0.24449   0.74242   0.00000  Uiso   1.00
H121   H     0.12973   0.41713   0.84094   0.00000  Uiso   1.00
H122   H     0.35207   0.93869   0.09793   0.00000  Uiso   1.00
H123   H     0.53762   0.32757   0.13865   0.00000  Uiso   1.00
H124   H     0.73964   0.35238   0.07412   0.00000  Uiso   1.00
H125   H     0.38769   0.43427   0.12083   0.00000  Uiso   1.00
H126   H     0.49313   0.20738   0.24271   0.00000  Uiso   1.00
H127   H     0.95152   0.36210   0.96832   0.00000  Uiso   1.00
H128   H     0.20939   0.53474   0.06684   0.00000  Uiso   1.00
H129   H     0.43174   0.05630   0.32384   0.00000  Uiso   1.00
O130   O     0.04289   0.31716   0.80815   0.00000  Uiso   1.00
O131   O     0.06924   0.54365   0.93741   0.00000  Uiso   1.00
O132   O     0.36096   0.91595   0.27458   0.00000  Uiso   1.00
N133   N     0.86288   0.26875   0.80445   0.00000  Uiso   1.00
N134   N     0.16905   0.43017   0.89655   0.00000  Uiso   1.00
N135   N     0.37690   0.98287   0.13682   0.00000  Uiso   1.00
N136   N     0.90575   0.33203   0.92601   0.00000  Uiso   1.00
N137   N     0.21192   0.49345   0.01811   0.00000  Uiso   1.00
N138   N     0.41977   0.04616   0.25838   0.00000  Uiso   1.00
C139   C     0.53411   0.72167   0.56476   0.00000  Uiso   1.00
C140   C     0.41422   0.75010   0.57109   0.00000  Uiso   1.00
C141   C     0.33730   0.73876   0.64414   0.00000  Uiso   1.00
C142   C     0.23189   0.76931   0.63678   0.00000  Uiso   1.00
C143   C     0.04992   0.80734   0.65845   0.00000  Uiso   1.00
C144   C     0.60543   0.79460   0.54572   0.00000  Uiso   1.00
C145   C     0.68929   0.82066   0.59742   0.00000  Uiso   1.00
C146   C     0.74486   0.88867   0.56870   0.00000  Uiso   1.00
C147   C     0.85980   0.99575   0.55093   0.00000  Uiso   1.00
C148   C     0.54813   0.67132   0.47951   0.00000  Uiso   1.00
C149   C     0.58384   0.59374   0.47553   0.00000  Uiso   1.00
C150   C     0.59120   0.55796   0.39105   0.00000  Uiso   1.00
C151   C     0.61717   0.47363   0.27048   0.00000  Uiso   1.00
C152   C     0.48370   0.79609   0.42181   0.00000  Uiso   1.00
C153   C     0.38684   0.79052   0.49345   0.00000  Uiso   1.00
C154   C     0.28152   0.82110   0.48597   0.00000  Uiso   1.00
C155   C     0.20446   0.80981   0.55899   0.00000  Uiso   1.00
C156   C     0.57805   0.83502   0.46808   0.00000  Uiso   1.00
C157   C     0.63352   0.90300   0.43926   0.00000  Uiso   1.00
C158   C     0.71743   0.92917   0.49091   0.00000  Uiso   1.00
C159   C     0.52075   0.71174   0.40186   0.00000  Uiso   1.00
C160   C     0.52806   0.67608   0.31737   0.00000  Uiso   1.00
C161   C     0.56377   0.59846   0.31326   0.00000  Uiso   1.00
H162   H     0.55543   0.69020   0.62521   0.00000  Uiso   1.00
H163   H     0.35852   0.70748   0.70422   0.00000  Uiso   1.00
H164   H     0.71047   0.78936   0.65750   0.00000  Uiso   1.00
H165   H     0.60502   0.56247   0.53563   0.00000  Uiso   1.00
H166   H     0.12815   0.74449   0.75758   0.00000  Uiso   1.00
H167   H     0.87027   0.91713   0.65906   0.00000  Uiso   1.00
H168   H     0.64793   0.43869   0.40207   0.00000  Uiso   1.00
H169   H     0.46238   0.82757   0.36135   0.00000  Uiso   1.00
H170   H     0.26036   0.85238   0.42588   0.00000  Uiso   1.00
H171   H     0.61231   0.93427   0.37917   0.00000  Uiso   1.00
H172   H     0.50687   0.70738   0.25729   0.00000  Uiso   1.00
H173   H     0.04848   0.86210   0.53168   0.00000  Uiso   1.00
H174   H     0.79061   0.03474   0.43316   0.00000  Uiso   1.00
H175   H     0.56826   0.55630   0.17616   0.00000  Uiso   1.00
O176   O     0.95711   0.81716   0.69185   0.00000  Uiso   1.00
O177   O     0.93076   0.04365   0.56259   0.00000  Uiso   1.00
O178   O     0.63904   0.41595   0.22542   0.00000  Uiso   1.00
N179   N     0.13712   0.76875   0.69555   0.00000  Uiso   1.00
N180   N     0.83095   0.93017   0.60345   0.00000  Uiso   1.00
N181   N     0.62310   0.48287   0.36318   0.00000  Uiso   1.00
N182   N     0.09425   0.83203   0.57399   0.00000  Uiso   1.00
N183   N     0.78808   0.99345   0.48189   0.00000  Uiso   1.00
N184   N     0.58023   0.54616   0.24162   0.00000  Uiso   1.00
