data_job_05695
_audit_creation_date              2018-12-19
_audit_creation_method            'Materials Studio'
_symmetry_space_group_name_H-M    'P1'
_symmetry_Int_Tables_number       1
_symmetry_cell_setting            triclinic
loop_
_symmetry_equiv_pos_as_xyz
  x,y,z
_cell_length_a                    18.5561
_cell_length_b                    13.7966
_cell_length_c                    20.5316
_cell_angle_alpha                 90.0000
_cell_angle_beta                  90.0000
_cell_angle_gamma                 90.0000
loop_
_atom_site_label
_atom_site_type_symbol
_atom_site_fract_x
_atom_site_fract_y
_atom_site_fract_z
_atom_site_U_iso_or_equiv
_atom_site_adp_type
_atom_site_occupancy
C1     C     0.26809   0.19681   0.22479   0.00000  Uiso   1.00
C2     C     0.29597   0.26948   0.27476   0.00000  Uiso   1.00
C3     C     0.31315   0.24896   0.33908   0.00000  Uiso   1.00
C4     C     0.33779   0.32544   0.37697   0.00000  Uiso   1.00
C5     C     0.37996   0.42405   0.45846   0.00000  Uiso   1.00
C6     C     0.19697   0.23782   0.19978   0.00000  Uiso   1.00
C7     C     0.13092   0.19067   0.20106   0.00000  Uiso   1.00
C8     C     0.07221   0.24050   0.17582   0.00000  Uiso   1.00
C9     C     0.96069   0.28993   0.14087   0.00000  Uiso   1.00
C10    C     0.32036   0.20122   0.16756   0.00000  Uiso   1.00
C11    C     0.35804   0.12330   0.14173   0.00000  Uiso   1.00
C12    C     0.40321   0.14232   0.08935   0.00000  Uiso   1.00
C13    C     0.48327   0.13492   0.00436   0.00000  Uiso   1.00
C14    C     0.28128   0.36914   0.17770   0.00000  Uiso   1.00
C15    C     0.30313   0.36308   0.24918   0.00000  Uiso   1.00
C16    C     0.32775   0.43962   0.28698   0.00000  Uiso   1.00
C17    C     0.34497   0.41921   0.35134   0.00000  Uiso   1.00
C18    C     0.20413   0.33142   0.17421   0.00000  Uiso   1.00
C19    C     0.14551   0.38133   0.14896   0.00000  Uiso   1.00
C20    C     0.07939   0.33427   0.15020   0.00000  Uiso   1.00
C21    C     0.32753   0.29483   0.14198   0.00000  Uiso   1.00
C22    C     0.37264   0.31396   0.08963   0.00000  Uiso   1.00
C23    C     0.41039   0.23609   0.06373   0.00000  Uiso   1.00
H24    H     0.26250   0.12393   0.24471   0.00000  Uiso   1.00
H25    H     0.30759   0.17651   0.35886   0.00000  Uiso   1.00
H26    H     0.12539   0.11823   0.22085   0.00000  Uiso   1.00
H27    H     0.35248   0.05087   0.16154   0.00000  Uiso   1.00
H28    H     0.36072   0.27609   0.47415   0.00000  Uiso   1.00
H29    H     0.97653   0.15318   0.18313   0.00000  Uiso   1.00
H30    H     0.45540   0.01115   0.05805   0.00000  Uiso   1.00
H31    H     0.28686   0.44201   0.15778   0.00000  Uiso   1.00
H32    H     0.33329   0.51205   0.26717   0.00000  Uiso   1.00
H33    H     0.15108   0.45376   0.12916   0.00000  Uiso   1.00
H34    H     0.37817   0.38641   0.06985   0.00000  Uiso   1.00
H35    H     0.38157   0.54842   0.39973   0.00000  Uiso   1.00
H36    H     0.99738   0.42551   0.10871   0.00000  Uiso   1.00
H37    H     0.47626   0.28348   0.98363   0.00000  Uiso   1.00
O38    O     0.40123   0.45259   0.51047   0.00000  Uiso   1.00
O39    O     0.89719   0.29133   0.12866   0.00000  Uiso   1.00
O40    O     0.52546   0.10499   0.96456   0.00000  Uiso   1.00
N41    N     0.35927   0.33057   0.44162   0.00000  Uiso   1.00
N42    N     0.00007   0.21566   0.16955   0.00000  Uiso   1.00
N43    N     0.44776   0.08287   0.05259   0.00000  Uiso   1.00
N44    N     0.37049   0.47711   0.40157   0.00000  Uiso   1.00
N45    N     0.01130   0.36220   0.12950   0.00000  Uiso   1.00
N46    N     0.45898   0.22941   0.01255   0.00000  Uiso   1.00
C47    C     0.23191   0.80319   0.22479   0.00000  Uiso   1.00
C48    C     0.20403   0.73052   0.27476   0.00000  Uiso   1.00
C49    C     0.18685   0.75104   0.33908   0.00000  Uiso   1.00
C50    C     0.16221   0.67456   0.37697   0.00000  Uiso   1.00
C51    C     0.12004   0.57595   0.45846   0.00000  Uiso   1.00
C52    C     0.30303   0.76218   0.19978   0.00000  Uiso   1.00
C53    C     0.36908   0.80933   0.20106   0.00000  Uiso   1.00
C54    C     0.42779   0.75950   0.17582   0.00000  Uiso   1.00
C55    C     0.53931   0.71007   0.14087   0.00000  Uiso   1.00
C56    C     0.17964   0.79878   0.16756   0.00000  Uiso   1.00
C57    C     0.14196   0.87670   0.14173   0.00000  Uiso   1.00
C58    C     0.09679   0.85768   0.08935   0.00000  Uiso   1.00
C59    C     0.01673   0.86508   0.00436   0.00000  Uiso   1.00
C60    C     0.21872   0.63086   0.17770   0.00000  Uiso   1.00
C61    C     0.19687   0.63692   0.24918   0.00000  Uiso   1.00
C62    C     0.17225   0.56038   0.28698   0.00000  Uiso   1.00
C63    C     0.15503   0.58079   0.35134   0.00000  Uiso   1.00
C64    C     0.29587   0.66858   0.17421   0.00000  Uiso   1.00
C65    C     0.35449   0.61867   0.14896   0.00000  Uiso   1.00
C66    C     0.42061   0.66573   0.15020   0.00000  Uiso   1.00
C67    C     0.17247   0.70517   0.14198   0.00000  Uiso   1.00
C68    C     0.12736   0.68604   0.08963   0.00000  Uiso   1.00
C69    C     0.08961   0.76391   0.06373   0.00000  Uiso   1.00
H70    H     0.23750   0.87607   0.24471   0.00000  Uiso   1.00
H71    H     0.19241   0.82349   0.35886   0.00000  Uiso   1.00
H72    H     0.37461   0.88177   0.22085   0.00000  Uiso   1.00
H73    H     0.14752   0.94913   0.16154   0.00000  Uiso   1.00
H74    H     0.13928   0.72391   0.47415   0.00000  Uiso   1.00
H75    H     0.52347   0.84682   0.18313   0.00000  Uiso   1.00
H76    H     0.04460   0.98885   0.05805   0.00000  Uiso   1.00
H77    H     0.21314   0.55799   0.15778   0.00000  Uiso   1.00
H78    H     0.16671   0.48795   0.26717   0.00000  Uiso   1.00
H79    H     0.34892   0.54624   0.12916   0.00000  Uiso   1.00
H80    H     0.12183   0.61359   0.06985   0.00000  Uiso   1.00
H81    H     0.11843   0.45158   0.39973   0.00000  Uiso   1.00
H82    H     0.50262   0.57449   0.10871   0.00000  Uiso   1.00
H83    H     0.02374   0.71652   0.98363   0.00000  Uiso   1.00
O84    O     0.09877   0.54741   0.51047   0.00000  Uiso   1.00
O85    O     0.60281   0.70867   0.12866   0.00000  Uiso   1.00
O86    O     0.97454   0.89501   0.96456   0.00000  Uiso   1.00
N87    N     0.14073   0.66943   0.44162   0.00000  Uiso   1.00
N88    N     0.49993   0.78434   0.16955   0.00000  Uiso   1.00
N89    N     0.05224   0.91713   0.05259   0.00000  Uiso   1.00
N90    N     0.12951   0.52289   0.40157   0.00000  Uiso   1.00
N91    N     0.48870   0.63780   0.12950   0.00000  Uiso   1.00
N92    N     0.04102   0.77059   0.01255   0.00000  Uiso   1.00
C93    C     0.73191   0.19681   0.27521   0.00000  Uiso   1.00
C94    C     0.70403   0.26948   0.22524   0.00000  Uiso   1.00
C95    C     0.68685   0.24896   0.16092   0.00000  Uiso   1.00
C96    C     0.66221   0.32544   0.12303   0.00000  Uiso   1.00
C97    C     0.62004   0.42405   0.04154   0.00000  Uiso   1.00
C98    C     0.80303   0.23782   0.30022   0.00000  Uiso   1.00
C99    C     0.86908   0.19067   0.29894   0.00000  Uiso   1.00
C100   C     0.92779   0.24050   0.32418   0.00000  Uiso   1.00
C101   C     0.03931   0.28993   0.35913   0.00000  Uiso   1.00
C102   C     0.67964   0.20122   0.33244   0.00000  Uiso   1.00
C103   C     0.64196   0.12330   0.35827   0.00000  Uiso   1.00
C104   C     0.59679   0.14232   0.41065   0.00000  Uiso   1.00
C105   C     0.51673   0.13492   0.49564   0.00000  Uiso   1.00
C106   C     0.71872   0.36914   0.32230   0.00000  Uiso   1.00
C107   C     0.69687   0.36308   0.25082   0.00000  Uiso   1.00
C108   C     0.67225   0.43962   0.21302   0.00000  Uiso   1.00
C109   C     0.65503   0.41921   0.14866   0.00000  Uiso   1.00
C110   C     0.79587   0.33142   0.32579   0.00000  Uiso   1.00
C111   C     0.85449   0.38133   0.35104   0.00000  Uiso   1.00
C112   C     0.92061   0.33427   0.34980   0.00000  Uiso   1.00
C113   C     0.67247   0.29483   0.35802   0.00000  Uiso   1.00
C114   C     0.62736   0.31396   0.41037   0.00000  Uiso   1.00
C115   C     0.58961   0.23609   0.43627   0.00000  Uiso   1.00
H116   H     0.73750   0.12393   0.25529   0.00000  Uiso   1.00
H117   H     0.69241   0.17651   0.14114   0.00000  Uiso   1.00
H118   H     0.87461   0.11823   0.27915   0.00000  Uiso   1.00
H119   H     0.64752   0.05087   0.33846   0.00000  Uiso   1.00
H120   H     0.63928   0.27609   0.02585   0.00000  Uiso   1.00
H121   H     0.02347   0.15318   0.31687   0.00000  Uiso   1.00
H122   H     0.54460   0.01115   0.44195   0.00000  Uiso   1.00
H123   H     0.71314   0.44201   0.34222   0.00000  Uiso   1.00
H124   H     0.66671   0.51205   0.23283   0.00000  Uiso   1.00
H125   H     0.84892   0.45376   0.37084   0.00000  Uiso   1.00
H126   H     0.62183   0.38641   0.43015   0.00000  Uiso   1.00
H127   H     0.61843   0.54842   0.10027   0.00000  Uiso   1.00
H128   H     0.00262   0.42551   0.39129   0.00000  Uiso   1.00
H129   H     0.52374   0.28348   0.51637   0.00000  Uiso   1.00
O130   O     0.59877   0.45259   0.98953   0.00000  Uiso   1.00
O131   O     0.10281   0.29133   0.37134   0.00000  Uiso   1.00
O132   O     0.47454   0.10499   0.53544   0.00000  Uiso   1.00
N133   N     0.64073   0.33057   0.05838   0.00000  Uiso   1.00
N134   N     0.99993   0.21566   0.33045   0.00000  Uiso   1.00
N135   N     0.55224   0.08287   0.44741   0.00000  Uiso   1.00
N136   N     0.62951   0.47711   0.09843   0.00000  Uiso   1.00
N137   N     0.98870   0.36220   0.37050   0.00000  Uiso   1.00
N138   N     0.54102   0.22941   0.48745   0.00000  Uiso   1.00
C139   C     0.76809   0.80319   0.27521   0.00000  Uiso   1.00
C140   C     0.79597   0.73052   0.22524   0.00000  Uiso   1.00
C141   C     0.81315   0.75104   0.16092   0.00000  Uiso   1.00
C142   C     0.83779   0.67456   0.12303   0.00000  Uiso   1.00
C143   C     0.87996   0.57595   0.04154   0.00000  Uiso   1.00
C144   C     0.69697   0.76218   0.30022   0.00000  Uiso   1.00
C145   C     0.63092   0.80933   0.29894   0.00000  Uiso   1.00
C146   C     0.57221   0.75950   0.32418   0.00000  Uiso   1.00
C147   C     0.46069   0.71007   0.35913   0.00000  Uiso   1.00
C148   C     0.82036   0.79878   0.33244   0.00000  Uiso   1.00
C149   C     0.85804   0.87670   0.35827   0.00000  Uiso   1.00
C150   C     0.90321   0.85768   0.41065   0.00000  Uiso   1.00
C151   C     0.98327   0.86508   0.49564   0.00000  Uiso   1.00
C152   C     0.78128   0.63086   0.32230   0.00000  Uiso   1.00
C153   C     0.80313   0.63692   0.25082   0.00000  Uiso   1.00
C154   C     0.82775   0.56038   0.21302   0.00000  Uiso   1.00
C155   C     0.84497   0.58079   0.14866   0.00000  Uiso   1.00
C156   C     0.70413   0.66858   0.32579   0.00000  Uiso   1.00
C157   C     0.64551   0.61867   0.35104   0.00000  Uiso   1.00
C158   C     0.57939   0.66573   0.34980   0.00000  Uiso   1.00
C159   C     0.82753   0.70517   0.35802   0.00000  Uiso   1.00
C160   C     0.87264   0.68604   0.41037   0.00000  Uiso   1.00
C161   C     0.91039   0.76391   0.43627   0.00000  Uiso   1.00
H162   H     0.76250   0.87607   0.25529   0.00000  Uiso   1.00
H163   H     0.80759   0.82349   0.14114   0.00000  Uiso   1.00
H164   H     0.62539   0.88177   0.27915   0.00000  Uiso   1.00
H165   H     0.85248   0.94913   0.33846   0.00000  Uiso   1.00
H166   H     0.86072   0.72391   0.02585   0.00000  Uiso   1.00
H167   H     0.47653   0.84682   0.31687   0.00000  Uiso   1.00
H168   H     0.95540   0.98885   0.44195   0.00000  Uiso   1.00
H169   H     0.78686   0.55799   0.34222   0.00000  Uiso   1.00
H170   H     0.83329   0.48795   0.23283   0.00000  Uiso   1.00
H171   H     0.65108   0.54624   0.37084   0.00000  Uiso   1.00
H172   H     0.87817   0.61359   0.43015   0.00000  Uiso   1.00
H173   H     0.88157   0.45158   0.10027   0.00000  Uiso   1.00
H174   H     0.49738   0.57449   0.39129   0.00000  Uiso   1.00
H175   H     0.97626   0.71652   0.51637   0.00000  Uiso   1.00
O176   O     0.90123   0.54741   0.98953   0.00000  Uiso   1.00
O177   O     0.39719   0.70867   0.37134   0.00000  Uiso   1.00
O178   O     0.02546   0.89501   0.53544   0.00000  Uiso   1.00
N179   N     0.85927   0.66943   0.05838   0.00000  Uiso   1.00
N180   N     0.50007   0.78434   0.33045   0.00000  Uiso   1.00
N181   N     0.94776   0.91713   0.44741   0.00000  Uiso   1.00
N182   N     0.87049   0.52289   0.09843   0.00000  Uiso   1.00
N183   N     0.51130   0.63780   0.37050   0.00000  Uiso   1.00
N184   N     0.95898   0.77059   0.48745   0.00000  Uiso   1.00
C185   C     0.73191   0.80319   0.77521   0.00000  Uiso   1.00
C186   C     0.70403   0.73052   0.72524   0.00000  Uiso   1.00
C187   C     0.68685   0.75104   0.66092   0.00000  Uiso   1.00
C188   C     0.66221   0.67456   0.62303   0.00000  Uiso   1.00
C189   C     0.62004   0.57595   0.54154   0.00000  Uiso   1.00
C190   C     0.80303   0.76218   0.80022   0.00000  Uiso   1.00
C191   C     0.86908   0.80933   0.79894   0.00000  Uiso   1.00
C192   C     0.92779   0.75950   0.82418   0.00000  Uiso   1.00
C193   C     0.03931   0.71007   0.85913   0.00000  Uiso   1.00
C194   C     0.67964   0.79878   0.83244   0.00000  Uiso   1.00
C195   C     0.64196   0.87670   0.85827   0.00000  Uiso   1.00
C196   C     0.59679   0.85768   0.91065   0.00000  Uiso   1.00
C197   C     0.51673   0.86508   0.99564   0.00000  Uiso   1.00
C198   C     0.71872   0.63086   0.82230   0.00000  Uiso   1.00
C199   C     0.69687   0.63692   0.75082   0.00000  Uiso   1.00
C200   C     0.67225   0.56038   0.71302   0.00000  Uiso   1.00
C201   C     0.65503   0.58079   0.64866   0.00000  Uiso   1.00
C202   C     0.79587   0.66858   0.82579   0.00000  Uiso   1.00
C203   C     0.85449   0.61867   0.85104   0.00000  Uiso   1.00
C204   C     0.92061   0.66573   0.84980   0.00000  Uiso   1.00
C205   C     0.67247   0.70517   0.85802   0.00000  Uiso   1.00
C206   C     0.62736   0.68604   0.91037   0.00000  Uiso   1.00
C207   C     0.58961   0.76391   0.93627   0.00000  Uiso   1.00
H208   H     0.73750   0.87607   0.75529   0.00000  Uiso   1.00
H209   H     0.69241   0.82349   0.64114   0.00000  Uiso   1.00
H210   H     0.87461   0.88177   0.77915   0.00000  Uiso   1.00
H211   H     0.64752   0.94913   0.83846   0.00000  Uiso   1.00
H212   H     0.63928   0.72391   0.52585   0.00000  Uiso   1.00
H213   H     0.02347   0.84682   0.81687   0.00000  Uiso   1.00
H214   H     0.54460   0.98885   0.94195   0.00000  Uiso   1.00
H215   H     0.71314   0.55799   0.84222   0.00000  Uiso   1.00
H216   H     0.66671   0.48795   0.73283   0.00000  Uiso   1.00
H217   H     0.84892   0.54624   0.87084   0.00000  Uiso   1.00
H218   H     0.62183   0.61359   0.93015   0.00000  Uiso   1.00
H219   H     0.61843   0.45158   0.60027   0.00000  Uiso   1.00
H220   H     0.00262   0.57449   0.89129   0.00000  Uiso   1.00
H221   H     0.52374   0.71652   0.01637   0.00000  Uiso   1.00
O222   O     0.59877   0.54741   0.48953   0.00000  Uiso   1.00
O223   O     0.10281   0.70867   0.87134   0.00000  Uiso   1.00
O224   O     0.47454   0.89501   0.03544   0.00000  Uiso   1.00
N225   N     0.64073   0.66943   0.55838   0.00000  Uiso   1.00
N226   N     0.99993   0.78434   0.83045   0.00000  Uiso   1.00
N227   N     0.55224   0.91713   0.94741   0.00000  Uiso   1.00
N228   N     0.62951   0.52289   0.59843   0.00000  Uiso   1.00
N229   N     0.98870   0.63780   0.87050   0.00000  Uiso   1.00
N230   N     0.54102   0.77059   0.98745   0.00000  Uiso   1.00
C231   C     0.76809   0.19681   0.77521   0.00000  Uiso   1.00
C232   C     0.79597   0.26948   0.72524   0.00000  Uiso   1.00
C233   C     0.81315   0.24896   0.66092   0.00000  Uiso   1.00
C234   C     0.83779   0.32544   0.62303   0.00000  Uiso   1.00
C235   C     0.87996   0.42405   0.54154   0.00000  Uiso   1.00
C236   C     0.69697   0.23782   0.80022   0.00000  Uiso   1.00
C237   C     0.63092   0.19067   0.79894   0.00000  Uiso   1.00
C238   C     0.57221   0.24050   0.82418   0.00000  Uiso   1.00
C239   C     0.46069   0.28993   0.85913   0.00000  Uiso   1.00
C240   C     0.82036   0.20122   0.83244   0.00000  Uiso   1.00
C241   C     0.85804   0.12330   0.85827   0.00000  Uiso   1.00
C242   C     0.90321   0.14232   0.91065   0.00000  Uiso   1.00
C243   C     0.98327   0.13492   0.99564   0.00000  Uiso   1.00
C244   C     0.78128   0.36914   0.82230   0.00000  Uiso   1.00
C245   C     0.80313   0.36308   0.75082   0.00000  Uiso   1.00
C246   C     0.82775   0.43962   0.71302   0.00000  Uiso   1.00
C247   C     0.84497   0.41921   0.64866   0.00000  Uiso   1.00
C248   C     0.70413   0.33142   0.82579   0.00000  Uiso   1.00
C249   C     0.64551   0.38133   0.85104   0.00000  Uiso   1.00
C250   C     0.57939   0.33427   0.84980   0.00000  Uiso   1.00
C251   C     0.82753   0.29483   0.85802   0.00000  Uiso   1.00
C252   C     0.87264   0.31396   0.91037   0.00000  Uiso   1.00
C253   C     0.91039   0.23609   0.93627   0.00000  Uiso   1.00
H254   H     0.76250   0.12393   0.75529   0.00000  Uiso   1.00
H255   H     0.80759   0.17651   0.64114   0.00000  Uiso   1.00
H256   H     0.62539   0.11823   0.77915   0.00000  Uiso   1.00
H257   H     0.85248   0.05087   0.83846   0.00000  Uiso   1.00
H258   H     0.86072   0.27609   0.52585   0.00000  Uiso   1.00
H259   H     0.47653   0.15318   0.81687   0.00000  Uiso   1.00
H260   H     0.95540   0.01115   0.94195   0.00000  Uiso   1.00
H261   H     0.78686   0.44201   0.84222   0.00000  Uiso   1.00
H262   H     0.83329   0.51205   0.73283   0.00000  Uiso   1.00
H263   H     0.65108   0.45376   0.87084   0.00000  Uiso   1.00
H264   H     0.87817   0.38641   0.93015   0.00000  Uiso   1.00
H265   H     0.88157   0.54842   0.60027   0.00000  Uiso   1.00
H266   H     0.49738   0.42551   0.89129   0.00000  Uiso   1.00
H267   H     0.97626   0.28348   0.01637   0.00000  Uiso   1.00
O268   O     0.90123   0.45259   0.48953   0.00000  Uiso   1.00
O269   O     0.39719   0.29133   0.87134   0.00000  Uiso   1.00
O270   O     0.02546   0.10499   0.03544   0.00000  Uiso   1.00
N271   N     0.85927   0.33057   0.55838   0.00000  Uiso   1.00
N272   N     0.50007   0.21566   0.83045   0.00000  Uiso   1.00
N273   N     0.94776   0.08287   0.94741   0.00000  Uiso   1.00
N274   N     0.87049   0.47711   0.59843   0.00000  Uiso   1.00
N275   N     0.51130   0.36220   0.87050   0.00000  Uiso   1.00
N276   N     0.95898   0.22941   0.98745   0.00000  Uiso   1.00
C277   C     0.26809   0.80319   0.72479   0.00000  Uiso   1.00
C278   C     0.29597   0.73052   0.77476   0.00000  Uiso   1.00
C279   C     0.31315   0.75104   0.83908   0.00000  Uiso   1.00
C280   C     0.33779   0.67456   0.87697   0.00000  Uiso   1.00
C281   C     0.37996   0.57595   0.95846   0.00000  Uiso   1.00
C282   C     0.19697   0.76218   0.69978   0.00000  Uiso   1.00
C283   C     0.13092   0.80933   0.70106   0.00000  Uiso   1.00
C284   C     0.07221   0.75950   0.67582   0.00000  Uiso   1.00
C285   C     0.96069   0.71007   0.64087   0.00000  Uiso   1.00
C286   C     0.32036   0.79878   0.66756   0.00000  Uiso   1.00
C287   C     0.35804   0.87670   0.64173   0.00000  Uiso   1.00
C288   C     0.40321   0.85768   0.58935   0.00000  Uiso   1.00
C289   C     0.48327   0.86508   0.50436   0.00000  Uiso   1.00
C290   C     0.28128   0.63086   0.67770   0.00000  Uiso   1.00
C291   C     0.30313   0.63692   0.74918   0.00000  Uiso   1.00
C292   C     0.32775   0.56038   0.78698   0.00000  Uiso   1.00
C293   C     0.34497   0.58079   0.85134   0.00000  Uiso   1.00
C294   C     0.20413   0.66858   0.67421   0.00000  Uiso   1.00
C295   C     0.14551   0.61867   0.64896   0.00000  Uiso   1.00
C296   C     0.07939   0.66573   0.65020   0.00000  Uiso   1.00
C297   C     0.32753   0.70517   0.64198   0.00000  Uiso   1.00
C298   C     0.37264   0.68604   0.58963   0.00000  Uiso   1.00
C299   C     0.41039   0.76391   0.56373   0.00000  Uiso   1.00
H300   H     0.26250   0.87607   0.74471   0.00000  Uiso   1.00
H301   H     0.30759   0.82349   0.85886   0.00000  Uiso   1.00
H302   H     0.12539   0.88177   0.72085   0.00000  Uiso   1.00
H303   H     0.35248   0.94913   0.66154   0.00000  Uiso   1.00
H304   H     0.36072   0.72391   0.97415   0.00000  Uiso   1.00
H305   H     0.97653   0.84682   0.68313   0.00000  Uiso   1.00
H306   H     0.45540   0.98885   0.55805   0.00000  Uiso   1.00
H307   H     0.28686   0.55799   0.65778   0.00000  Uiso   1.00
H308   H     0.33329   0.48795   0.76717   0.00000  Uiso   1.00
H309   H     0.15108   0.54624   0.62916   0.00000  Uiso   1.00
H310   H     0.37817   0.61359   0.56985   0.00000  Uiso   1.00
H311   H     0.38157   0.45158   0.89973   0.00000  Uiso   1.00
H312   H     0.99738   0.57449   0.60871   0.00000  Uiso   1.00
H313   H     0.47626   0.71652   0.48363   0.00000  Uiso   1.00
O314   O     0.40123   0.54741   0.01047   0.00000  Uiso   1.00
O315   O     0.89719   0.70867   0.62866   0.00000  Uiso   1.00
O316   O     0.52546   0.89501   0.46456   0.00000  Uiso   1.00
N317   N     0.35927   0.66943   0.94162   0.00000  Uiso   1.00
N318   N     0.00007   0.78434   0.66955   0.00000  Uiso   1.00
N319   N     0.44776   0.91713   0.55259   0.00000  Uiso   1.00
N320   N     0.37049   0.52289   0.90157   0.00000  Uiso   1.00
N321   N     0.01130   0.63780   0.62950   0.00000  Uiso   1.00
N322   N     0.45898   0.77059   0.51255   0.00000  Uiso   1.00
C323   C     0.23191   0.19681   0.72479   0.00000  Uiso   1.00
C324   C     0.20403   0.26948   0.77476   0.00000  Uiso   1.00
C325   C     0.18685   0.24896   0.83908   0.00000  Uiso   1.00
C326   C     0.16221   0.32544   0.87697   0.00000  Uiso   1.00
C327   C     0.12004   0.42405   0.95846   0.00000  Uiso   1.00
C328   C     0.30303   0.23782   0.69978   0.00000  Uiso   1.00
C329   C     0.36908   0.19067   0.70106   0.00000  Uiso   1.00
C330   C     0.42779   0.24050   0.67582   0.00000  Uiso   1.00
C331   C     0.53931   0.28993   0.64087   0.00000  Uiso   1.00
C332   C     0.17964   0.20122   0.66756   0.00000  Uiso   1.00
C333   C     0.14196   0.12330   0.64173   0.00000  Uiso   1.00
C334   C     0.09679   0.14232   0.58935   0.00000  Uiso   1.00
C335   C     0.01673   0.13492   0.50436   0.00000  Uiso   1.00
C336   C     0.21872   0.36914   0.67770   0.00000  Uiso   1.00
C337   C     0.19687   0.36308   0.74918   0.00000  Uiso   1.00
C338   C     0.17225   0.43962   0.78698   0.00000  Uiso   1.00
C339   C     0.15503   0.41921   0.85134   0.00000  Uiso   1.00
C340   C     0.29587   0.33142   0.67421   0.00000  Uiso   1.00
C341   C     0.35449   0.38133   0.64896   0.00000  Uiso   1.00
C342   C     0.42061   0.33427   0.65020   0.00000  Uiso   1.00
C343   C     0.17247   0.29483   0.64198   0.00000  Uiso   1.00
C344   C     0.12736   0.31396   0.58963   0.00000  Uiso   1.00
C345   C     0.08961   0.23609   0.56373   0.00000  Uiso   1.00
H346   H     0.23750   0.12393   0.74471   0.00000  Uiso   1.00
H347   H     0.19241   0.17651   0.85886   0.00000  Uiso   1.00
H348   H     0.37461   0.11823   0.72085   0.00000  Uiso   1.00
H349   H     0.14752   0.05087   0.66154   0.00000  Uiso   1.00
H350   H     0.13928   0.27609   0.97415   0.00000  Uiso   1.00
H351   H     0.52347   0.15318   0.68313   0.00000  Uiso   1.00
H352   H     0.04460   0.01115   0.55805   0.00000  Uiso   1.00
H353   H     0.21314   0.44201   0.65778   0.00000  Uiso   1.00
H354   H     0.16671   0.51205   0.76717   0.00000  Uiso   1.00
H355   H     0.34892   0.45376   0.62916   0.00000  Uiso   1.00
H356   H     0.12183   0.38641   0.56985   0.00000  Uiso   1.00
H357   H     0.11843   0.54842   0.89973   0.00000  Uiso   1.00
H358   H     0.50262   0.42551   0.60871   0.00000  Uiso   1.00
H359   H     0.02374   0.28348   0.48363   0.00000  Uiso   1.00
O360   O     0.09877   0.45259   0.01047   0.00000  Uiso   1.00
O361   O     0.60281   0.29133   0.62866   0.00000  Uiso   1.00
O362   O     0.97454   0.10499   0.46456   0.00000  Uiso   1.00
N363   N     0.14073   0.33057   0.94162   0.00000  Uiso   1.00
N364   N     0.49993   0.21566   0.66955   0.00000  Uiso   1.00
N365   N     0.05224   0.08287   0.55259   0.00000  Uiso   1.00
N366   N     0.12951   0.47711   0.90157   0.00000  Uiso   1.00
N367   N     0.48870   0.36220   0.62950   0.00000  Uiso   1.00
N368   N     0.04102   0.22941   0.51255   0.00000  Uiso   1.00
