data_job_00788
_audit_creation_date              2018-12-19
_audit_creation_method            'Materials Studio'
_symmetry_space_group_name_H-M    'P1'
_symmetry_Int_Tables_number       1
_symmetry_cell_setting            triclinic
loop_
_symmetry_equiv_pos_as_xyz
  x,y,z
_cell_length_a                    23.4107
_cell_length_b                    30.7304
_cell_length_c                    9.7395
_cell_angle_alpha                 90.0000
_cell_angle_beta                  90.0000
_cell_angle_gamma                 90.0000
loop_
_atom_site_label
_atom_site_type_symbol
_atom_site_fract_x
_atom_site_fract_y
_atom_site_fract_z
_atom_site_U_iso_or_equiv
_atom_site_adp_type
_atom_site_occupancy
C1     C     0.68255   0.31246   0.46749   0.00000  Uiso   1.00
C2     C     0.67968   0.35038   0.36676   0.00000  Uiso   1.00
C3     C     0.67925   0.34697   0.22469   0.00000  Uiso   1.00
C4     C     0.67647   0.38552   0.15064   0.00000  Uiso   1.00
C5     C     0.67238   0.43825   0.98422   0.00000  Uiso   1.00
C6     C     0.73453   0.32095   0.55798   0.00000  Uiso   1.00
C7     C     0.78021   0.29278   0.57668   0.00000  Uiso   1.00
C8     C     0.82360   0.30655   0.66361   0.00000  Uiso   1.00
C9     C     0.90465   0.31357   0.79413   0.00000  Uiso   1.00
C10    C     0.63060   0.31711   0.56077   0.00000  Uiso   1.00
C11    C     0.58889   0.28572   0.58185   0.00000  Uiso   1.00
C12    C     0.54478   0.29626   0.67117   0.00000  Uiso   1.00
C13    C     0.46446   0.29733   0.80602   0.00000  Uiso   1.00
C14    C     0.67838   0.38699   0.58865   0.00000  Uiso   1.00
C15    C     0.67741   0.39087   0.43257   0.00000  Uiso   1.00
C16    C     0.67463   0.42943   0.35873   0.00000  Uiso   1.00
C17    C     0.67419   0.42607   0.21656   0.00000  Uiso   1.00
C18    C     0.73227   0.36143   0.62378   0.00000  Uiso   1.00
C19    C     0.77560   0.37524   0.71071   0.00000  Uiso   1.00
C20    C     0.82134   0.34710   0.72954   0.00000  Uiso   1.00
C21    C     0.62833   0.35760   0.62657   0.00000  Uiso   1.00
C22    C     0.58428   0.36818   0.71588   0.00000  Uiso   1.00
C23    C     0.54251   0.33681   0.73709   0.00000  Uiso   1.00
H24    H     0.68432   0.28094   0.41627   0.00000  Uiso   1.00
H25    H     0.68100   0.31563   0.17380   0.00000  Uiso   1.00
H26    H     0.78195   0.26145   0.52575   0.00000  Uiso   1.00
H27    H     0.59066   0.25440   0.53091   0.00000  Uiso   1.00
H28    H     0.67635   0.37196   0.93400   0.00000  Uiso   1.00
H29    H     0.88919   0.25770   0.67614   0.00000  Uiso   1.00
H30    H     0.48582   0.24282   0.68703   0.00000  Uiso   1.00
H31    H     0.67662   0.41851   0.63988   0.00000  Uiso   1.00
H32    H     0.67288   0.46075   0.40968   0.00000  Uiso   1.00
H33    H     0.77383   0.40657   0.76163   0.00000  Uiso   1.00
H34    H     0.58254   0.39951   0.76679   0.00000  Uiso   1.00
H35    H     0.66976   0.48974   0.12544   0.00000  Uiso   1.00
H36    H     0.88260   0.37548   0.86759   0.00000  Uiso   1.00
H37    H     0.47923   0.36061   0.87848   0.00000  Uiso   1.00
O38    O     0.67076   0.45616   0.87425   0.00000  Uiso   1.00
O39    O     0.94999   0.30626   0.84793   0.00000  Uiso   1.00
O40    O     0.42077   0.28674   0.86221   0.00000  Uiso   1.00
N41    N     0.67530   0.39388   0.01065   0.00000  Uiso   1.00
N42    N     0.87430   0.28706   0.70449   0.00000  Uiso   1.00
N43    N     0.49719   0.27314   0.71470   0.00000  Uiso   1.00
N44    N     0.67176   0.45726   0.11366   0.00000  Uiso   1.00
N45    N     0.87075   0.35044   0.80750   0.00000  Uiso   1.00
N46    N     0.49364   0.33652   0.81771   0.00000  Uiso   1.00
C47    C     0.18255   0.81246   0.96749   0.00000  Uiso   1.00
C48    C     0.17968   0.85038   0.86676   0.00000  Uiso   1.00
C49    C     0.17925   0.84697   0.72469   0.00000  Uiso   1.00
C50    C     0.17647   0.88552   0.65064   0.00000  Uiso   1.00
C51    C     0.17238   0.93825   0.48422   0.00000  Uiso   1.00
C52    C     0.23453   0.82095   0.05798   0.00000  Uiso   1.00
C53    C     0.28021   0.79278   0.07668   0.00000  Uiso   1.00
C54    C     0.32360   0.80655   0.16361   0.00000  Uiso   1.00
C55    C     0.40465   0.81357   0.29413   0.00000  Uiso   1.00
C56    C     0.13060   0.81711   0.06077   0.00000  Uiso   1.00
C57    C     0.08889   0.78572   0.08185   0.00000  Uiso   1.00
C58    C     0.04478   0.79626   0.17117   0.00000  Uiso   1.00
C59    C     0.96446   0.79733   0.30602   0.00000  Uiso   1.00
C60    C     0.17838   0.88699   0.08865   0.00000  Uiso   1.00
C61    C     0.17741   0.89087   0.93257   0.00000  Uiso   1.00
C62    C     0.17463   0.92943   0.85873   0.00000  Uiso   1.00
C63    C     0.17419   0.92607   0.71656   0.00000  Uiso   1.00
C64    C     0.23227   0.86143   0.12378   0.00000  Uiso   1.00
C65    C     0.27560   0.87524   0.21071   0.00000  Uiso   1.00
C66    C     0.32134   0.84710   0.22954   0.00000  Uiso   1.00
C67    C     0.12833   0.85760   0.12657   0.00000  Uiso   1.00
C68    C     0.08428   0.86818   0.21588   0.00000  Uiso   1.00
C69    C     0.04251   0.83681   0.23709   0.00000  Uiso   1.00
H70    H     0.18432   0.78094   0.91627   0.00000  Uiso   1.00
H71    H     0.18100   0.81563   0.67380   0.00000  Uiso   1.00
H72    H     0.28195   0.76145   0.02575   0.00000  Uiso   1.00
H73    H     0.09066   0.75440   0.03091   0.00000  Uiso   1.00
H74    H     0.17635   0.87196   0.43400   0.00000  Uiso   1.00
H75    H     0.38919   0.75770   0.17614   0.00000  Uiso   1.00
H76    H     0.98582   0.74282   0.18703   0.00000  Uiso   1.00
H77    H     0.17662   0.91851   0.13988   0.00000  Uiso   1.00
H78    H     0.17288   0.96075   0.90968   0.00000  Uiso   1.00
H79    H     0.27383   0.90657   0.26163   0.00000  Uiso   1.00
H80    H     0.08254   0.89951   0.26679   0.00000  Uiso   1.00
H81    H     0.16976   0.98974   0.62544   0.00000  Uiso   1.00
H82    H     0.38260   0.87548   0.36759   0.00000  Uiso   1.00
H83    H     0.97923   0.86061   0.37848   0.00000  Uiso   1.00
O84    O     0.17076   0.95616   0.37425   0.00000  Uiso   1.00
O85    O     0.44999   0.80626   0.34793   0.00000  Uiso   1.00
O86    O     0.92077   0.78674   0.36221   0.00000  Uiso   1.00
N87    N     0.17530   0.89388   0.51065   0.00000  Uiso   1.00
N88    N     0.37430   0.78706   0.20449   0.00000  Uiso   1.00
N89    N     0.99719   0.77314   0.21470   0.00000  Uiso   1.00
N90    N     0.17176   0.95726   0.61366   0.00000  Uiso   1.00
N91    N     0.37075   0.85044   0.30750   0.00000  Uiso   1.00
N92    N     0.99364   0.83652   0.31771   0.00000  Uiso   1.00
C93    C     0.31745   0.68754   0.46749   0.00000  Uiso   1.00
C94    C     0.32032   0.64962   0.36676   0.00000  Uiso   1.00
C95    C     0.32075   0.65303   0.22469   0.00000  Uiso   1.00
C96    C     0.32353   0.61448   0.15064   0.00000  Uiso   1.00
C97    C     0.32762   0.56175   0.98422   0.00000  Uiso   1.00
C98    C     0.26547   0.67905   0.55798   0.00000  Uiso   1.00
C99    C     0.21979   0.70722   0.57668   0.00000  Uiso   1.00
C100   C     0.17640   0.69345   0.66361   0.00000  Uiso   1.00
C101   C     0.09535   0.68643   0.79413   0.00000  Uiso   1.00
C102   C     0.36940   0.68289   0.56077   0.00000  Uiso   1.00
C103   C     0.41111   0.71428   0.58185   0.00000  Uiso   1.00
C104   C     0.45522   0.70374   0.67117   0.00000  Uiso   1.00
C105   C     0.53554   0.70267   0.80602   0.00000  Uiso   1.00
C106   C     0.32162   0.61301   0.58865   0.00000  Uiso   1.00
C107   C     0.32259   0.60913   0.43257   0.00000  Uiso   1.00
C108   C     0.32537   0.57057   0.35873   0.00000  Uiso   1.00
C109   C     0.32581   0.57393   0.21656   0.00000  Uiso   1.00
C110   C     0.26773   0.63857   0.62378   0.00000  Uiso   1.00
C111   C     0.22440   0.62476   0.71071   0.00000  Uiso   1.00
C112   C     0.17866   0.65290   0.72954   0.00000  Uiso   1.00
C113   C     0.37167   0.64240   0.62657   0.00000  Uiso   1.00
C114   C     0.41572   0.63182   0.71588   0.00000  Uiso   1.00
C115   C     0.45749   0.66319   0.73709   0.00000  Uiso   1.00
H116   H     0.31568   0.71906   0.41627   0.00000  Uiso   1.00
H117   H     0.31900   0.68437   0.17380   0.00000  Uiso   1.00
H118   H     0.21805   0.73855   0.52575   0.00000  Uiso   1.00
H119   H     0.40934   0.74560   0.53091   0.00000  Uiso   1.00
H120   H     0.32365   0.62804   0.93400   0.00000  Uiso   1.00
H121   H     0.11081   0.74230   0.67614   0.00000  Uiso   1.00
H122   H     0.51418   0.75718   0.68703   0.00000  Uiso   1.00
H123   H     0.32338   0.58149   0.63988   0.00000  Uiso   1.00
H124   H     0.32712   0.53925   0.40968   0.00000  Uiso   1.00
H125   H     0.22617   0.59343   0.76163   0.00000  Uiso   1.00
H126   H     0.41746   0.60049   0.76679   0.00000  Uiso   1.00
H127   H     0.33024   0.51026   0.12544   0.00000  Uiso   1.00
H128   H     0.11740   0.62452   0.86759   0.00000  Uiso   1.00
H129   H     0.52077   0.63939   0.87848   0.00000  Uiso   1.00
O130   O     0.32924   0.54384   0.87425   0.00000  Uiso   1.00
O131   O     0.05001   0.69374   0.84793   0.00000  Uiso   1.00
O132   O     0.57923   0.71326   0.86221   0.00000  Uiso   1.00
N133   N     0.32470   0.60612   0.01065   0.00000  Uiso   1.00
N134   N     0.12570   0.71294   0.70449   0.00000  Uiso   1.00
N135   N     0.50281   0.72686   0.71470   0.00000  Uiso   1.00
N136   N     0.32824   0.54274   0.11366   0.00000  Uiso   1.00
N137   N     0.12925   0.64956   0.80750   0.00000  Uiso   1.00
N138   N     0.50636   0.66348   0.81771   0.00000  Uiso   1.00
C139   C     0.81745   0.18754   0.96749   0.00000  Uiso   1.00
C140   C     0.82032   0.14962   0.86676   0.00000  Uiso   1.00
C141   C     0.82075   0.15303   0.72469   0.00000  Uiso   1.00
C142   C     0.82353   0.11448   0.65064   0.00000  Uiso   1.00
C143   C     0.82762   0.06175   0.48422   0.00000  Uiso   1.00
C144   C     0.76547   0.17905   0.05798   0.00000  Uiso   1.00
C145   C     0.71979   0.20722   0.07668   0.00000  Uiso   1.00
C146   C     0.67640   0.19345   0.16361   0.00000  Uiso   1.00
C147   C     0.59535   0.18643   0.29413   0.00000  Uiso   1.00
C148   C     0.86940   0.18289   0.06077   0.00000  Uiso   1.00
C149   C     0.91111   0.21428   0.08185   0.00000  Uiso   1.00
C150   C     0.95522   0.20374   0.17117   0.00000  Uiso   1.00
C151   C     0.03554   0.20267   0.30602   0.00000  Uiso   1.00
C152   C     0.82162   0.11301   0.08865   0.00000  Uiso   1.00
C153   C     0.82259   0.10913   0.93257   0.00000  Uiso   1.00
C154   C     0.82537   0.07057   0.85873   0.00000  Uiso   1.00
C155   C     0.82581   0.07393   0.71656   0.00000  Uiso   1.00
C156   C     0.76773   0.13857   0.12378   0.00000  Uiso   1.00
C157   C     0.72440   0.12476   0.21071   0.00000  Uiso   1.00
C158   C     0.67866   0.15290   0.22954   0.00000  Uiso   1.00
C159   C     0.87167   0.14240   0.12657   0.00000  Uiso   1.00
C160   C     0.91572   0.13182   0.21588   0.00000  Uiso   1.00
C161   C     0.95749   0.16319   0.23709   0.00000  Uiso   1.00
H162   H     0.81568   0.21906   0.91627   0.00000  Uiso   1.00
H163   H     0.81900   0.18437   0.67380   0.00000  Uiso   1.00
H164   H     0.71805   0.23855   0.02575   0.00000  Uiso   1.00
H165   H     0.90934   0.24560   0.03091   0.00000  Uiso   1.00
H166   H     0.82365   0.12804   0.43400   0.00000  Uiso   1.00
H167   H     0.61081   0.24230   0.17614   0.00000  Uiso   1.00
H168   H     0.01418   0.25718   0.18703   0.00000  Uiso   1.00
H169   H     0.82338   0.08149   0.13988   0.00000  Uiso   1.00
H170   H     0.82712   0.03925   0.90968   0.00000  Uiso   1.00
H171   H     0.72617   0.09343   0.26163   0.00000  Uiso   1.00
H172   H     0.91746   0.10049   0.26679   0.00000  Uiso   1.00
H173   H     0.83024   0.01026   0.62544   0.00000  Uiso   1.00
H174   H     0.61740   0.12452   0.36759   0.00000  Uiso   1.00
H175   H     0.02077   0.13939   0.37848   0.00000  Uiso   1.00
O176   O     0.82924   0.04384   0.37425   0.00000  Uiso   1.00
O177   O     0.55001   0.19374   0.34793   0.00000  Uiso   1.00
O178   O     0.07923   0.21326   0.36221   0.00000  Uiso   1.00
N179   N     0.82470   0.10612   0.51065   0.00000  Uiso   1.00
N180   N     0.62570   0.21294   0.20449   0.00000  Uiso   1.00
N181   N     0.00281   0.22686   0.21470   0.00000  Uiso   1.00
N182   N     0.82824   0.04274   0.61366   0.00000  Uiso   1.00
N183   N     0.62925   0.14956   0.30750   0.00000  Uiso   1.00
N184   N     0.00636   0.16348   0.31771   0.00000  Uiso   1.00
C185   C     0.31745   0.31246   0.53251   0.00000  Uiso   1.00
C186   C     0.32032   0.35038   0.63324   0.00000  Uiso   1.00
C187   C     0.32075   0.34697   0.77531   0.00000  Uiso   1.00
C188   C     0.32353   0.38552   0.84936   0.00000  Uiso   1.00
C189   C     0.32762   0.43825   0.01578   0.00000  Uiso   1.00
C190   C     0.26547   0.32095   0.44202   0.00000  Uiso   1.00
C191   C     0.21979   0.29278   0.42332   0.00000  Uiso   1.00
C192   C     0.17640   0.30655   0.33639   0.00000  Uiso   1.00
C193   C     0.09535   0.31357   0.20587   0.00000  Uiso   1.00
C194   C     0.36940   0.31711   0.43923   0.00000  Uiso   1.00
C195   C     0.41111   0.28572   0.41815   0.00000  Uiso   1.00
C196   C     0.45522   0.29626   0.32883   0.00000  Uiso   1.00
C197   C     0.53554   0.29733   0.19398   0.00000  Uiso   1.00
C198   C     0.32162   0.38699   0.41135   0.00000  Uiso   1.00
C199   C     0.32259   0.39087   0.56743   0.00000  Uiso   1.00
C200   C     0.32537   0.42943   0.64127   0.00000  Uiso   1.00
C201   C     0.32581   0.42607   0.78344   0.00000  Uiso   1.00
C202   C     0.26773   0.36143   0.37622   0.00000  Uiso   1.00
C203   C     0.22440   0.37524   0.28929   0.00000  Uiso   1.00
C204   C     0.17866   0.34710   0.27046   0.00000  Uiso   1.00
C205   C     0.37167   0.35760   0.37343   0.00000  Uiso   1.00
C206   C     0.41572   0.36818   0.28412   0.00000  Uiso   1.00
C207   C     0.45749   0.33681   0.26291   0.00000  Uiso   1.00
H208   H     0.31568   0.28094   0.58373   0.00000  Uiso   1.00
H209   H     0.31900   0.31563   0.82620   0.00000  Uiso   1.00
H210   H     0.21805   0.26145   0.47425   0.00000  Uiso   1.00
H211   H     0.40934   0.25440   0.46909   0.00000  Uiso   1.00
H212   H     0.32365   0.37196   0.06600   0.00000  Uiso   1.00
H213   H     0.11081   0.25770   0.32386   0.00000  Uiso   1.00
H214   H     0.51418   0.24282   0.31297   0.00000  Uiso   1.00
H215   H     0.32338   0.41851   0.36012   0.00000  Uiso   1.00
H216   H     0.32712   0.46075   0.59032   0.00000  Uiso   1.00
H217   H     0.22617   0.40657   0.23837   0.00000  Uiso   1.00
H218   H     0.41746   0.39951   0.23321   0.00000  Uiso   1.00
H219   H     0.33024   0.48974   0.87456   0.00000  Uiso   1.00
H220   H     0.11740   0.37548   0.13241   0.00000  Uiso   1.00
H221   H     0.52077   0.36061   0.12152   0.00000  Uiso   1.00
O222   O     0.32924   0.45616   0.12575   0.00000  Uiso   1.00
O223   O     0.05001   0.30626   0.15207   0.00000  Uiso   1.00
O224   O     0.57923   0.28674   0.13779   0.00000  Uiso   1.00
N225   N     0.32470   0.39388   0.98935   0.00000  Uiso   1.00
N226   N     0.12570   0.28706   0.29551   0.00000  Uiso   1.00
N227   N     0.50281   0.27314   0.28530   0.00000  Uiso   1.00
N228   N     0.32824   0.45726   0.88634   0.00000  Uiso   1.00
N229   N     0.12925   0.35044   0.19250   0.00000  Uiso   1.00
N230   N     0.50636   0.33652   0.18229   0.00000  Uiso   1.00
C231   C     0.81745   0.81246   0.03251   0.00000  Uiso   1.00
C232   C     0.82032   0.85038   0.13324   0.00000  Uiso   1.00
C233   C     0.82075   0.84697   0.27531   0.00000  Uiso   1.00
C234   C     0.82353   0.88552   0.34936   0.00000  Uiso   1.00
C235   C     0.82762   0.93825   0.51578   0.00000  Uiso   1.00
C236   C     0.76547   0.82095   0.94202   0.00000  Uiso   1.00
C237   C     0.71979   0.79278   0.92332   0.00000  Uiso   1.00
C238   C     0.67640   0.80655   0.83639   0.00000  Uiso   1.00
C239   C     0.59535   0.81357   0.70587   0.00000  Uiso   1.00
C240   C     0.86940   0.81711   0.93923   0.00000  Uiso   1.00
C241   C     0.91111   0.78572   0.91815   0.00000  Uiso   1.00
C242   C     0.95522   0.79626   0.82883   0.00000  Uiso   1.00
C243   C     0.03554   0.79733   0.69398   0.00000  Uiso   1.00
C244   C     0.82162   0.88699   0.91135   0.00000  Uiso   1.00
C245   C     0.82259   0.89087   0.06743   0.00000  Uiso   1.00
C246   C     0.82537   0.92943   0.14127   0.00000  Uiso   1.00
C247   C     0.82581   0.92607   0.28344   0.00000  Uiso   1.00
C248   C     0.76773   0.86143   0.87622   0.00000  Uiso   1.00
C249   C     0.72440   0.87524   0.78929   0.00000  Uiso   1.00
C250   C     0.67866   0.84710   0.77046   0.00000  Uiso   1.00
C251   C     0.87167   0.85760   0.87343   0.00000  Uiso   1.00
C252   C     0.91572   0.86818   0.78412   0.00000  Uiso   1.00
C253   C     0.95749   0.83681   0.76291   0.00000  Uiso   1.00
H254   H     0.81568   0.78094   0.08373   0.00000  Uiso   1.00
H255   H     0.81900   0.81563   0.32620   0.00000  Uiso   1.00
H256   H     0.71805   0.76145   0.97425   0.00000  Uiso   1.00
H257   H     0.90934   0.75440   0.96909   0.00000  Uiso   1.00
H258   H     0.82365   0.87196   0.56600   0.00000  Uiso   1.00
H259   H     0.61081   0.75770   0.82386   0.00000  Uiso   1.00
H260   H     0.01418   0.74282   0.81297   0.00000  Uiso   1.00
H261   H     0.82338   0.91851   0.86012   0.00000  Uiso   1.00
H262   H     0.82712   0.96075   0.09032   0.00000  Uiso   1.00
H263   H     0.72617   0.90657   0.73837   0.00000  Uiso   1.00
H264   H     0.91746   0.89951   0.73321   0.00000  Uiso   1.00
H265   H     0.83024   0.98974   0.37456   0.00000  Uiso   1.00
H266   H     0.61740   0.87548   0.63241   0.00000  Uiso   1.00
H267   H     0.02077   0.86061   0.62152   0.00000  Uiso   1.00
O268   O     0.82924   0.95616   0.62575   0.00000  Uiso   1.00
O269   O     0.55001   0.80626   0.65207   0.00000  Uiso   1.00
O270   O     0.07923   0.78674   0.63779   0.00000  Uiso   1.00
N271   N     0.82470   0.89388   0.48935   0.00000  Uiso   1.00
N272   N     0.62570   0.78706   0.79551   0.00000  Uiso   1.00
N273   N     0.00281   0.77314   0.78530   0.00000  Uiso   1.00
N274   N     0.82824   0.95726   0.38634   0.00000  Uiso   1.00
N275   N     0.62925   0.85044   0.69250   0.00000  Uiso   1.00
N276   N     0.00636   0.83652   0.68229   0.00000  Uiso   1.00
C277   C     0.68255   0.68754   0.53251   0.00000  Uiso   1.00
C278   C     0.67968   0.64962   0.63324   0.00000  Uiso   1.00
C279   C     0.67925   0.65303   0.77531   0.00000  Uiso   1.00
C280   C     0.67647   0.61448   0.84936   0.00000  Uiso   1.00
C281   C     0.67238   0.56175   0.01578   0.00000  Uiso   1.00
C282   C     0.73453   0.67905   0.44202   0.00000  Uiso   1.00
C283   C     0.78021   0.70722   0.42332   0.00000  Uiso   1.00
C284   C     0.82360   0.69345   0.33639   0.00000  Uiso   1.00
C285   C     0.90465   0.68643   0.20587   0.00000  Uiso   1.00
C286   C     0.63060   0.68289   0.43923   0.00000  Uiso   1.00
C287   C     0.58889   0.71428   0.41815   0.00000  Uiso   1.00
C288   C     0.54478   0.70374   0.32883   0.00000  Uiso   1.00
C289   C     0.46446   0.70267   0.19398   0.00000  Uiso   1.00
C290   C     0.67838   0.61301   0.41135   0.00000  Uiso   1.00
C291   C     0.67741   0.60913   0.56743   0.00000  Uiso   1.00
C292   C     0.67463   0.57057   0.64127   0.00000  Uiso   1.00
C293   C     0.67419   0.57393   0.78344   0.00000  Uiso   1.00
C294   C     0.73227   0.63857   0.37622   0.00000  Uiso   1.00
C295   C     0.77560   0.62476   0.28929   0.00000  Uiso   1.00
C296   C     0.82134   0.65290   0.27046   0.00000  Uiso   1.00
C297   C     0.62833   0.64240   0.37343   0.00000  Uiso   1.00
C298   C     0.58428   0.63182   0.28412   0.00000  Uiso   1.00
C299   C     0.54251   0.66319   0.26291   0.00000  Uiso   1.00
H300   H     0.68432   0.71906   0.58373   0.00000  Uiso   1.00
H301   H     0.68100   0.68437   0.82620   0.00000  Uiso   1.00
H302   H     0.78195   0.73855   0.47425   0.00000  Uiso   1.00
H303   H     0.59066   0.74560   0.46909   0.00000  Uiso   1.00
H304   H     0.67635   0.62804   0.06600   0.00000  Uiso   1.00
H305   H     0.88919   0.74230   0.32386   0.00000  Uiso   1.00
H306   H     0.48582   0.75718   0.31297   0.00000  Uiso   1.00
H307   H     0.67662   0.58149   0.36012   0.00000  Uiso   1.00
H308   H     0.67288   0.53925   0.59032   0.00000  Uiso   1.00
H309   H     0.77383   0.59343   0.23837   0.00000  Uiso   1.00
H310   H     0.58254   0.60049   0.23321   0.00000  Uiso   1.00
H311   H     0.66976   0.51026   0.87456   0.00000  Uiso   1.00
H312   H     0.88260   0.62452   0.13241   0.00000  Uiso   1.00
H313   H     0.47923   0.63939   0.12152   0.00000  Uiso   1.00
O314   O     0.67076   0.54384   0.12575   0.00000  Uiso   1.00
O315   O     0.94999   0.69374   0.15207   0.00000  Uiso   1.00
O316   O     0.42077   0.71326   0.13779   0.00000  Uiso   1.00
N317   N     0.67530   0.60612   0.98935   0.00000  Uiso   1.00
N318   N     0.87430   0.71294   0.29551   0.00000  Uiso   1.00
N319   N     0.49719   0.72686   0.28530   0.00000  Uiso   1.00
N320   N     0.67176   0.54274   0.88634   0.00000  Uiso   1.00
N321   N     0.87075   0.64956   0.19250   0.00000  Uiso   1.00
N322   N     0.49364   0.66348   0.18229   0.00000  Uiso   1.00
C323   C     0.18255   0.18754   0.03251   0.00000  Uiso   1.00
C324   C     0.17968   0.14962   0.13324   0.00000  Uiso   1.00
C325   C     0.17925   0.15303   0.27531   0.00000  Uiso   1.00
C326   C     0.17647   0.11448   0.34936   0.00000  Uiso   1.00
C327   C     0.17238   0.06175   0.51578   0.00000  Uiso   1.00
C328   C     0.23453   0.17905   0.94202   0.00000  Uiso   1.00
C329   C     0.28021   0.20722   0.92332   0.00000  Uiso   1.00
C330   C     0.32360   0.19345   0.83639   0.00000  Uiso   1.00
C331   C     0.40465   0.18643   0.70587   0.00000  Uiso   1.00
C332   C     0.13060   0.18289   0.93923   0.00000  Uiso   1.00
C333   C     0.08889   0.21428   0.91815   0.00000  Uiso   1.00
C334   C     0.04478   0.20374   0.82883   0.00000  Uiso   1.00
C335   C     0.96446   0.20267   0.69398   0.00000  Uiso   1.00
C336   C     0.17838   0.11301   0.91135   0.00000  Uiso   1.00
C337   C     0.17741   0.10913   0.06743   0.00000  Uiso   1.00
C338   C     0.17463   0.07057   0.14127   0.00000  Uiso   1.00
C339   C     0.17419   0.07393   0.28344   0.00000  Uiso   1.00
C340   C     0.23227   0.13857   0.87622   0.00000  Uiso   1.00
C341   C     0.27560   0.12476   0.78929   0.00000  Uiso   1.00
C342   C     0.32134   0.15290   0.77046   0.00000  Uiso   1.00
C343   C     0.12833   0.14240   0.87343   0.00000  Uiso   1.00
C344   C     0.08428   0.13182   0.78412   0.00000  Uiso   1.00
C345   C     0.04251   0.16319   0.76291   0.00000  Uiso   1.00
H346   H     0.18432   0.21906   0.08373   0.00000  Uiso   1.00
H347   H     0.18100   0.18437   0.32620   0.00000  Uiso   1.00
H348   H     0.28195   0.23855   0.97425   0.00000  Uiso   1.00
H349   H     0.09066   0.24560   0.96909   0.00000  Uiso   1.00
H350   H     0.17635   0.12804   0.56600   0.00000  Uiso   1.00
H351   H     0.38919   0.24230   0.82386   0.00000  Uiso   1.00
H352   H     0.98582   0.25718   0.81297   0.00000  Uiso   1.00
H353   H     0.17662   0.08149   0.86012   0.00000  Uiso   1.00
H354   H     0.17288   0.03925   0.09032   0.00000  Uiso   1.00
H355   H     0.27383   0.09343   0.73837   0.00000  Uiso   1.00
H356   H     0.08254   0.10049   0.73321   0.00000  Uiso   1.00
H357   H     0.16976   0.01026   0.37456   0.00000  Uiso   1.00
H358   H     0.38260   0.12452   0.63241   0.00000  Uiso   1.00
H359   H     0.97923   0.13939   0.62152   0.00000  Uiso   1.00
O360   O     0.17076   0.04384   0.62575   0.00000  Uiso   1.00
O361   O     0.44999   0.19374   0.65207   0.00000  Uiso   1.00
O362   O     0.92077   0.21326   0.63779   0.00000  Uiso   1.00
N363   N     0.17530   0.10612   0.48935   0.00000  Uiso   1.00
N364   N     0.37430   0.21294   0.79551   0.00000  Uiso   1.00
N365   N     0.99719   0.22686   0.78530   0.00000  Uiso   1.00
N366   N     0.17176   0.04274   0.38634   0.00000  Uiso   1.00
N367   N     0.37075   0.14956   0.69250   0.00000  Uiso   1.00
N368   N     0.99364   0.16348   0.68229   0.00000  Uiso   1.00
