data_job_01891
_audit_creation_date              2018-12-19
_audit_creation_method            'Materials Studio'
_symmetry_space_group_name_H-M    'P1'
_symmetry_Int_Tables_number       1
_symmetry_cell_setting            triclinic
loop_
_symmetry_equiv_pos_as_xyz
  x,y,z
_cell_length_a                    18.1512
_cell_length_b                    16.0595
_cell_length_c                    14.0843
_cell_angle_alpha                 90.0000
_cell_angle_beta                  136.8280
_cell_angle_gamma                 90.0000
loop_
_atom_site_label
_atom_site_type_symbol
_atom_site_fract_x
_atom_site_fract_y
_atom_site_fract_z
_atom_site_U_iso_or_equiv
_atom_site_adp_type
_atom_site_occupancy
C1     C     0.69167   0.93490   0.98469   0.00000  Uiso   1.00
C2     C     0.79885   0.93225   0.03269   0.00000  Uiso   1.00
C3     C     0.85987   0.86143   0.07292   0.00000  Uiso   1.00
C4     C     0.95557   0.87206   0.11338   0.00000  Uiso   1.00
C5     C     0.11695   0.85599   0.18796   0.00000  Uiso   1.00
C6     C     0.70680   0.99652   0.08020   0.00000  Uiso   1.00
C7     C     0.69040   0.97973   0.16036   0.00000  Uiso   1.00
C8     C     0.70861   0.04447   0.24080   0.00000  Uiso   1.00
C9     C     0.72700   0.12819   0.38906   0.00000  Uiso   1.00
C10    C     0.61148   0.97518   0.84140   0.00000  Uiso   1.00
C11    C     0.51491   0.94046   0.72077   0.00000  Uiso   1.00
C12    C     0.45284   0.98724   0.60016   0.00000  Uiso   1.00
C13    C     0.32323   0.03783   0.37765   0.00000  Uiso   1.00
C14    C     0.75314   0.07973   0.98500   0.00000  Uiso   1.00
C15    C     0.83224   0.01092   0.03286   0.00000  Uiso   1.00
C16    C     0.92788   0.02167   0.07327   0.00000  Uiso   1.00
C17    C     0.98902   0.95087   0.11355   0.00000  Uiso   1.00
C18    C     0.74019   0.07518   0.08037   0.00000  Uiso   1.00
C19    C     0.75841   0.13997   0.16071   0.00000  Uiso   1.00
C20    C     0.74206   0.12328   0.24097   0.00000  Uiso   1.00
C21    C     0.64487   0.05385   0.84157   0.00000  Uiso   1.00
C22    C     0.58293   0.10069   0.72112   0.00000  Uiso   1.00
C23    C     0.48629   0.06605   0.60034   0.00000  Uiso   1.00
H24    H     0.66568   0.87366   0.98456   0.00000  Uiso   1.00
H25    H     0.83400   0.80056   0.07279   0.00000  Uiso   1.00
H26    H     0.66456   0.91885   0.16020   0.00000  Uiso   1.00
H27    H     0.48910   0.87958   0.72068   0.00000  Uiso   1.00
H28    H     0.03537   0.75422   0.17073   0.00000  Uiso   1.00
H29    H     0.67805   0.00364   0.35500   0.00000  Uiso   1.00
H30    H     0.30806   0.92083   0.42820   0.00000  Uiso   1.00
H31    H     0.77913   0.14098   0.98513   0.00000  Uiso   1.00
H32    H     0.95369   0.08255   0.07339   0.00000  Uiso   1.00
H33    H     0.78425   0.20084   0.16081   0.00000  Uiso   1.00
H34    H     0.60879   0.16157   0.72129   0.00000  Uiso   1.00
H35    H     0.13252   0.98309   0.17123   0.00000  Uiso   1.00
H36    H     0.77519   0.23251   0.35550   0.00000  Uiso   1.00
H37    H     0.40521   0.14971   0.42869   0.00000  Uiso   1.00
O38    O     0.19675   0.82540   0.22907   0.00000  Uiso   1.00
O39    O     0.72793   0.15263   0.47081   0.00000  Uiso   1.00
O40    O     0.24252   0.04399   0.25486   0.00000  Uiso   1.00
N41    N     0.03427   0.81610   0.15871   0.00000  Uiso   1.00
N42    N     0.70021   0.04929   0.33101   0.00000  Uiso   1.00
N43    N     0.35429   0.97188   0.46453   0.00000  Uiso   1.00
N44    N     0.08654   0.93925   0.15897   0.00000  Uiso   1.00
N45    N     0.75248   0.17244   0.33128   0.00000  Uiso   1.00
N46    N     0.40656   0.09504   0.46480   0.00000  Uiso   1.00
C47    C     0.30833   0.43490   0.51531   0.00000  Uiso   1.00
C48    C     0.20115   0.43225   0.46731   0.00000  Uiso   1.00
C49    C     0.14013   0.36143   0.42708   0.00000  Uiso   1.00
C50    C     0.04443   0.37206   0.38662   0.00000  Uiso   1.00
C51    C     0.88305   0.35599   0.31204   0.00000  Uiso   1.00
C52    C     0.29320   0.49652   0.41980   0.00000  Uiso   1.00
C53    C     0.30960   0.47973   0.33964   0.00000  Uiso   1.00
C54    C     0.29139   0.54447   0.25920   0.00000  Uiso   1.00
C55    C     0.27300   0.62819   0.11094   0.00000  Uiso   1.00
C56    C     0.38852   0.47518   0.65860   0.00000  Uiso   1.00
C57    C     0.48509   0.44046   0.77923   0.00000  Uiso   1.00
C58    C     0.54716   0.48724   0.89984   0.00000  Uiso   1.00
C59    C     0.67677   0.53783   0.12235   0.00000  Uiso   1.00
C60    C     0.24686   0.57973   0.51500   0.00000  Uiso   1.00
C61    C     0.16776   0.51092   0.46714   0.00000  Uiso   1.00
C62    C     0.07212   0.52167   0.42673   0.00000  Uiso   1.00
C63    C     0.01098   0.45087   0.38645   0.00000  Uiso   1.00
C64    C     0.25981   0.57518   0.41963   0.00000  Uiso   1.00
C65    C     0.24159   0.63997   0.33929   0.00000  Uiso   1.00
C66    C     0.25794   0.62328   0.25903   0.00000  Uiso   1.00
C67    C     0.35513   0.55385   0.65843   0.00000  Uiso   1.00
C68    C     0.41707   0.60069   0.77888   0.00000  Uiso   1.00
C69    C     0.51371   0.56605   0.89966   0.00000  Uiso   1.00
H70    H     0.33432   0.37366   0.51544   0.00000  Uiso   1.00
H71    H     0.16600   0.30056   0.42721   0.00000  Uiso   1.00
H72    H     0.33544   0.41885   0.33980   0.00000  Uiso   1.00
H73    H     0.51090   0.37958   0.77932   0.00000  Uiso   1.00
H74    H     0.96463   0.25422   0.32927   0.00000  Uiso   1.00
H75    H     0.32195   0.50364   0.14500   0.00000  Uiso   1.00
H76    H     0.69194   0.42083   0.07180   0.00000  Uiso   1.00
H77    H     0.22087   0.64098   0.51487   0.00000  Uiso   1.00
H78    H     0.04631   0.58255   0.42661   0.00000  Uiso   1.00
H79    H     0.21575   0.70084   0.33919   0.00000  Uiso   1.00
H80    H     0.39121   0.66157   0.77871   0.00000  Uiso   1.00
H81    H     0.86748   0.48309   0.32877   0.00000  Uiso   1.00
H82    H     0.22481   0.73251   0.14450   0.00000  Uiso   1.00
H83    H     0.59479   0.64971   0.07131   0.00000  Uiso   1.00
O84    O     0.80325   0.32540   0.27093   0.00000  Uiso   1.00
O85    O     0.27207   0.65263   0.02919   0.00000  Uiso   1.00
O86    O     0.75748   0.54399   0.24514   0.00000  Uiso   1.00
N87    N     0.96573   0.31610   0.34129   0.00000  Uiso   1.00
N88    N     0.29979   0.54929   0.16899   0.00000  Uiso   1.00
N89    N     0.64571   0.47188   0.03547   0.00000  Uiso   1.00
N90    N     0.91346   0.43925   0.34103   0.00000  Uiso   1.00
N91    N     0.24752   0.67244   0.16872   0.00000  Uiso   1.00
N92    N     0.59344   0.59504   0.03520   0.00000  Uiso   1.00
C93    C     0.30833   0.06510   0.01531   0.00000  Uiso   1.00
C94    C     0.20115   0.06775   0.96731   0.00000  Uiso   1.00
C95    C     0.14013   0.13857   0.92708   0.00000  Uiso   1.00
C96    C     0.04443   0.12794   0.88662   0.00000  Uiso   1.00
C97    C     0.88305   0.14401   0.81204   0.00000  Uiso   1.00
C98    C     0.29320   0.00348   0.91980   0.00000  Uiso   1.00
C99    C     0.30960   0.02027   0.83964   0.00000  Uiso   1.00
C100   C     0.29139   0.95553   0.75920   0.00000  Uiso   1.00
C101   C     0.27300   0.87181   0.61094   0.00000  Uiso   1.00
C102   C     0.38852   0.02482   0.15860   0.00000  Uiso   1.00
C103   C     0.48509   0.05954   0.27923   0.00000  Uiso   1.00
C104   C     0.54716   0.01276   0.39984   0.00000  Uiso   1.00
C105   C     0.67677   0.96217   0.62235   0.00000  Uiso   1.00
C106   C     0.24686   0.92027   0.01500   0.00000  Uiso   1.00
C107   C     0.16776   0.98908   0.96714   0.00000  Uiso   1.00
C108   C     0.07212   0.97833   0.92673   0.00000  Uiso   1.00
C109   C     0.01098   0.04913   0.88645   0.00000  Uiso   1.00
C110   C     0.25981   0.92482   0.91963   0.00000  Uiso   1.00
C111   C     0.24159   0.86003   0.83929   0.00000  Uiso   1.00
C112   C     0.25794   0.87672   0.75903   0.00000  Uiso   1.00
C113   C     0.35513   0.94615   0.15843   0.00000  Uiso   1.00
C114   C     0.41707   0.89931   0.27888   0.00000  Uiso   1.00
C115   C     0.51371   0.93395   0.39966   0.00000  Uiso   1.00
H116   H     0.33432   0.12634   0.01544   0.00000  Uiso   1.00
H117   H     0.16600   0.19944   0.92721   0.00000  Uiso   1.00
H118   H     0.33544   0.08115   0.83980   0.00000  Uiso   1.00
H119   H     0.51090   0.12042   0.27932   0.00000  Uiso   1.00
H120   H     0.96463   0.24578   0.82927   0.00000  Uiso   1.00
H121   H     0.32195   0.99636   0.64500   0.00000  Uiso   1.00
H122   H     0.69194   0.07917   0.57180   0.00000  Uiso   1.00
H123   H     0.22087   0.85902   0.01487   0.00000  Uiso   1.00
H124   H     0.04631   0.91745   0.92661   0.00000  Uiso   1.00
H125   H     0.21575   0.79916   0.83919   0.00000  Uiso   1.00
H126   H     0.39121   0.83843   0.27871   0.00000  Uiso   1.00
H127   H     0.86748   0.01691   0.82877   0.00000  Uiso   1.00
H128   H     0.22481   0.76749   0.64450   0.00000  Uiso   1.00
H129   H     0.59479   0.85029   0.57131   0.00000  Uiso   1.00
O130   O     0.80325   0.17460   0.77093   0.00000  Uiso   1.00
O131   O     0.27207   0.84737   0.52919   0.00000  Uiso   1.00
O132   O     0.75748   0.95601   0.74514   0.00000  Uiso   1.00
N133   N     0.96573   0.18390   0.84129   0.00000  Uiso   1.00
N134   N     0.29979   0.95071   0.66899   0.00000  Uiso   1.00
N135   N     0.64571   0.02812   0.53547   0.00000  Uiso   1.00
N136   N     0.91346   0.06075   0.84103   0.00000  Uiso   1.00
N137   N     0.24752   0.82756   0.66872   0.00000  Uiso   1.00
N138   N     0.59344   0.90496   0.53520   0.00000  Uiso   1.00
C139   C     0.69167   0.56510   0.48469   0.00000  Uiso   1.00
C140   C     0.79885   0.56775   0.53269   0.00000  Uiso   1.00
C141   C     0.85987   0.63857   0.57292   0.00000  Uiso   1.00
C142   C     0.95557   0.62794   0.61338   0.00000  Uiso   1.00
C143   C     0.11695   0.64401   0.68796   0.00000  Uiso   1.00
C144   C     0.70680   0.50348   0.58020   0.00000  Uiso   1.00
C145   C     0.69040   0.52027   0.66036   0.00000  Uiso   1.00
C146   C     0.70861   0.45553   0.74080   0.00000  Uiso   1.00
C147   C     0.72700   0.37181   0.88906   0.00000  Uiso   1.00
C148   C     0.61148   0.52482   0.34140   0.00000  Uiso   1.00
C149   C     0.51491   0.55954   0.22077   0.00000  Uiso   1.00
C150   C     0.45284   0.51276   0.10016   0.00000  Uiso   1.00
C151   C     0.32323   0.46217   0.87765   0.00000  Uiso   1.00
C152   C     0.75314   0.42027   0.48500   0.00000  Uiso   1.00
C153   C     0.83224   0.48908   0.53286   0.00000  Uiso   1.00
C154   C     0.92788   0.47833   0.57327   0.00000  Uiso   1.00
C155   C     0.98902   0.54913   0.61355   0.00000  Uiso   1.00
C156   C     0.74019   0.42482   0.58037   0.00000  Uiso   1.00
C157   C     0.75841   0.36003   0.66071   0.00000  Uiso   1.00
C158   C     0.74206   0.37672   0.74097   0.00000  Uiso   1.00
C159   C     0.64487   0.44615   0.34157   0.00000  Uiso   1.00
C160   C     0.58293   0.39931   0.22112   0.00000  Uiso   1.00
C161   C     0.48629   0.43395   0.10034   0.00000  Uiso   1.00
H162   H     0.66568   0.62634   0.48456   0.00000  Uiso   1.00
H163   H     0.83400   0.69944   0.57279   0.00000  Uiso   1.00
H164   H     0.66456   0.58115   0.66020   0.00000  Uiso   1.00
H165   H     0.48910   0.62042   0.22068   0.00000  Uiso   1.00
H166   H     0.03537   0.74578   0.67073   0.00000  Uiso   1.00
H167   H     0.67805   0.49636   0.85500   0.00000  Uiso   1.00
H168   H     0.30806   0.57917   0.92820   0.00000  Uiso   1.00
H169   H     0.77913   0.35902   0.48513   0.00000  Uiso   1.00
H170   H     0.95369   0.41745   0.57339   0.00000  Uiso   1.00
H171   H     0.78425   0.29916   0.66081   0.00000  Uiso   1.00
H172   H     0.60879   0.33843   0.22129   0.00000  Uiso   1.00
H173   H     0.13252   0.51691   0.67123   0.00000  Uiso   1.00
H174   H     0.77519   0.26749   0.85550   0.00000  Uiso   1.00
H175   H     0.40521   0.35029   0.92869   0.00000  Uiso   1.00
O176   O     0.19675   0.67460   0.72907   0.00000  Uiso   1.00
O177   O     0.72793   0.34737   0.97081   0.00000  Uiso   1.00
O178   O     0.24252   0.45601   0.75486   0.00000  Uiso   1.00
N179   N     0.03427   0.68390   0.65871   0.00000  Uiso   1.00
N180   N     0.70021   0.45071   0.83101   0.00000  Uiso   1.00
N181   N     0.35429   0.52812   0.96453   0.00000  Uiso   1.00
N182   N     0.08654   0.56075   0.65897   0.00000  Uiso   1.00
N183   N     0.75248   0.32756   0.83128   0.00000  Uiso   1.00
N184   N     0.40656   0.40496   0.96480   0.00000  Uiso   1.00
