data_job_00097
_audit_creation_date              2018-12-19
_audit_creation_method            'Materials Studio'
_symmetry_space_group_name_H-M    'P1'
_symmetry_Int_Tables_number       1
_symmetry_cell_setting            triclinic
loop_
_symmetry_equiv_pos_as_xyz
  x,y,z
_cell_length_a                    15.0197
_cell_length_b                    18.6117
_cell_length_c                    9.4359
_cell_angle_alpha                 90.0000
_cell_angle_beta                  123.7760
_cell_angle_gamma                 90.0000
loop_
_atom_site_label
_atom_site_type_symbol
_atom_site_fract_x
_atom_site_fract_y
_atom_site_fract_z
_atom_site_U_iso_or_equiv
_atom_site_adp_type
_atom_site_occupancy
C1     C     0.28186   0.31097   0.57602   0.00000  Uiso   1.00
C2     C     0.18085   0.30329   0.39704   0.00000  Uiso   1.00
C3     C     0.11737   0.24227   0.33156   0.00000  Uiso   1.00
C4     C     0.02832   0.24604   0.16493   0.00000  Uiso   1.00
C5     C     0.87524   0.22459   0.90182   0.00000  Uiso   1.00
C6     C     0.37068   0.33296   0.55251   0.00000  Uiso   1.00
C7     C     0.46681   0.29688   0.61776   0.00000  Uiso   1.00
C8     C     0.53756   0.32562   0.58203   0.00000  Uiso   1.00
C9     C     0.67923   0.35026   0.56039   0.00000  Uiso   1.00
C10    C     0.26305   0.37560   0.65553   0.00000  Uiso   1.00
C11    C     0.26871   0.37537   0.80742   0.00000  Uiso   1.00
C12    C     0.24887   0.44003   0.85844   0.00000  Uiso   1.00
C13    C     0.22343   0.53087   0.99675   0.00000  Uiso   1.00
C14    C     0.23661   0.42618   0.39657   0.00000  Uiso   1.00
C15    C     0.15628   0.36587   0.29957   0.00000  Uiso   1.00
C16    C     0.06730   0.36974   0.13300   0.00000  Uiso   1.00
C17    C     0.00369   0.30873   0.06728   0.00000  Uiso   1.00
C18    C     0.34610   0.39553   0.45504   0.00000  Uiso   1.00
C19    C     0.41674   0.42434   0.41921   0.00000  Uiso   1.00
C20    C     0.51294   0.38832   0.48438   0.00000  Uiso   1.00
C21    C     0.23847   0.43818   0.55805   0.00000  Uiso   1.00
C22    C     0.21863   0.50284   0.60886   0.00000  Uiso   1.00
C23    C     0.22425   0.50272   0.76079   0.00000  Uiso   1.00
H24    H     0.30101   0.26225   0.65191   0.00000  Uiso   1.00
H25    H     0.13642   0.19385   0.40703   0.00000  Uiso   1.00
H26    H     0.48581   0.24846   0.69320   0.00000  Uiso   1.00
H27    H     0.28773   0.32694   0.88282   0.00000  Uiso   1.00
H28    H     0.94313   0.14561   0.09252   0.00000  Uiso   1.00
H29    H     0.67985   0.26076   0.69598   0.00000  Uiso   1.00
H30    H     0.26217   0.42626   0.09584   0.00000  Uiso   1.00
H31    H     0.21747   0.47490   0.32067   0.00000  Uiso   1.00
H32    H     0.04829   0.41817   0.05760   0.00000  Uiso   1.00
H33    H     0.39769   0.47277   0.34378   0.00000  Uiso   1.00
H34    H     0.19961   0.55126   0.53340   0.00000  Uiso   1.00
H35    H     0.87161   0.32767   0.80891   0.00000  Uiso   1.00
H36    H     0.60833   0.44283   0.41238   0.00000  Uiso   1.00
H37    H     0.19065   0.60832   0.81223   0.00000  Uiso   1.00
O38    O     0.79761   0.19548   0.78362   0.00000  Uiso   1.00
O39    O     0.76416   0.34656   0.57537   0.00000  Uiso   1.00
O40    O     0.21617   0.56368   0.09996   0.00000  Uiso   1.00
N41    N     0.94950   0.19624   0.06189   0.00000  Uiso   1.00
N42    N     0.63829   0.30390   0.62607   0.00000  Uiso   1.00
N43    N     0.24782   0.45863   0.99992   0.00000  Uiso   1.00
N44    N     0.91102   0.29421   0.90928   0.00000  Uiso   1.00
N45    N     0.59980   0.40187   0.47346   0.00000  Uiso   1.00
N46    N     0.20933   0.55660   0.84731   0.00000  Uiso   1.00
C47    C     0.71814   0.81097   0.92398   0.00000  Uiso   1.00
C48    C     0.81915   0.80329   0.10296   0.00000  Uiso   1.00
C49    C     0.88263   0.74227   0.16844   0.00000  Uiso   1.00
C50    C     0.97168   0.74604   0.33507   0.00000  Uiso   1.00
C51    C     0.12476   0.72459   0.59818   0.00000  Uiso   1.00
C52    C     0.62932   0.83296   0.94749   0.00000  Uiso   1.00
C53    C     0.53319   0.79688   0.88224   0.00000  Uiso   1.00
C54    C     0.46244   0.82562   0.91797   0.00000  Uiso   1.00
C55    C     0.32077   0.85026   0.93961   0.00000  Uiso   1.00
C56    C     0.73695   0.87560   0.84447   0.00000  Uiso   1.00
C57    C     0.73129   0.87537   0.69258   0.00000  Uiso   1.00
C58    C     0.75113   0.94003   0.64156   0.00000  Uiso   1.00
C59    C     0.77657   0.03087   0.50325   0.00000  Uiso   1.00
C60    C     0.76339   0.92618   0.10343   0.00000  Uiso   1.00
C61    C     0.84372   0.86587   0.20043   0.00000  Uiso   1.00
C62    C     0.93270   0.86974   0.36700   0.00000  Uiso   1.00
C63    C     0.99631   0.80873   0.43272   0.00000  Uiso   1.00
C64    C     0.65390   0.89553   0.04496   0.00000  Uiso   1.00
C65    C     0.58326   0.92434   0.08079   0.00000  Uiso   1.00
C66    C     0.48706   0.88832   0.01562   0.00000  Uiso   1.00
C67    C     0.76153   0.93818   0.94195   0.00000  Uiso   1.00
C68    C     0.78137   0.00284   0.89114   0.00000  Uiso   1.00
C69    C     0.77575   0.00272   0.73921   0.00000  Uiso   1.00
H70    H     0.69899   0.76225   0.84809   0.00000  Uiso   1.00
H71    H     0.86358   0.69385   0.09297   0.00000  Uiso   1.00
H72    H     0.51419   0.74846   0.80680   0.00000  Uiso   1.00
H73    H     0.71227   0.82694   0.61718   0.00000  Uiso   1.00
H74    H     0.05687   0.64561   0.40748   0.00000  Uiso   1.00
H75    H     0.32015   0.76076   0.80402   0.00000  Uiso   1.00
H76    H     0.73783   0.92626   0.40416   0.00000  Uiso   1.00
H77    H     0.78253   0.97490   0.17933   0.00000  Uiso   1.00
H78    H     0.95171   0.91817   0.44240   0.00000  Uiso   1.00
H79    H     0.60231   0.97277   0.15622   0.00000  Uiso   1.00
H80    H     0.80039   0.05126   0.96660   0.00000  Uiso   1.00
H81    H     0.12839   0.82767   0.69109   0.00000  Uiso   1.00
H82    H     0.39167   0.94283   0.08762   0.00000  Uiso   1.00
H83    H     0.80935   0.10832   0.68777   0.00000  Uiso   1.00
O84    O     0.20239   0.69548   0.71638   0.00000  Uiso   1.00
O85    O     0.23584   0.84656   0.92463   0.00000  Uiso   1.00
O86    O     0.78383   0.06368   0.40004   0.00000  Uiso   1.00
N87    N     0.05050   0.69624   0.43811   0.00000  Uiso   1.00
N88    N     0.36171   0.80390   0.87393   0.00000  Uiso   1.00
N89    N     0.75218   0.95863   0.50008   0.00000  Uiso   1.00
N90    N     0.08898   0.79421   0.59072   0.00000  Uiso   1.00
N91    N     0.40020   0.90187   0.02654   0.00000  Uiso   1.00
N92    N     0.79067   0.05660   0.65269   0.00000  Uiso   1.00
C93    C     0.71814   0.68903   0.42398   0.00000  Uiso   1.00
C94    C     0.81915   0.69671   0.60296   0.00000  Uiso   1.00
C95    C     0.88263   0.75773   0.66844   0.00000  Uiso   1.00
C96    C     0.97168   0.75396   0.83507   0.00000  Uiso   1.00
C97    C     0.12476   0.77541   0.09818   0.00000  Uiso   1.00
C98    C     0.62932   0.66704   0.44749   0.00000  Uiso   1.00
C99    C     0.53319   0.70312   0.38224   0.00000  Uiso   1.00
C100   C     0.46244   0.67438   0.41797   0.00000  Uiso   1.00
C101   C     0.32077   0.64974   0.43961   0.00000  Uiso   1.00
C102   C     0.73695   0.62440   0.34447   0.00000  Uiso   1.00
C103   C     0.73129   0.62463   0.19258   0.00000  Uiso   1.00
C104   C     0.75113   0.55997   0.14156   0.00000  Uiso   1.00
C105   C     0.77657   0.46913   0.00325   0.00000  Uiso   1.00
C106   C     0.76339   0.57382   0.60343   0.00000  Uiso   1.00
C107   C     0.84372   0.63413   0.70043   0.00000  Uiso   1.00
C108   C     0.93270   0.63026   0.86700   0.00000  Uiso   1.00
C109   C     0.99631   0.69127   0.93272   0.00000  Uiso   1.00
C110   C     0.65390   0.60447   0.54496   0.00000  Uiso   1.00
C111   C     0.58326   0.57566   0.58079   0.00000  Uiso   1.00
C112   C     0.48706   0.61168   0.51562   0.00000  Uiso   1.00
C113   C     0.76153   0.56182   0.44195   0.00000  Uiso   1.00
C114   C     0.78137   0.49716   0.39114   0.00000  Uiso   1.00
C115   C     0.77575   0.49728   0.23921   0.00000  Uiso   1.00
H116   H     0.69899   0.73775   0.34809   0.00000  Uiso   1.00
H117   H     0.86358   0.80615   0.59297   0.00000  Uiso   1.00
H118   H     0.51419   0.75154   0.30680   0.00000  Uiso   1.00
H119   H     0.71227   0.67306   0.11718   0.00000  Uiso   1.00
H120   H     0.05687   0.85439   0.90748   0.00000  Uiso   1.00
H121   H     0.32015   0.73924   0.30402   0.00000  Uiso   1.00
H122   H     0.73783   0.57374   0.90416   0.00000  Uiso   1.00
H123   H     0.78253   0.52510   0.67933   0.00000  Uiso   1.00
H124   H     0.95171   0.58183   0.94240   0.00000  Uiso   1.00
H125   H     0.60231   0.52723   0.65622   0.00000  Uiso   1.00
H126   H     0.80039   0.44874   0.46660   0.00000  Uiso   1.00
H127   H     0.12839   0.67233   0.19109   0.00000  Uiso   1.00
H128   H     0.39167   0.55717   0.58762   0.00000  Uiso   1.00
H129   H     0.80935   0.39168   0.18777   0.00000  Uiso   1.00
O130   O     0.20239   0.80452   0.21638   0.00000  Uiso   1.00
O131   O     0.23584   0.65344   0.42463   0.00000  Uiso   1.00
O132   O     0.78383   0.43632   0.90004   0.00000  Uiso   1.00
N133   N     0.05050   0.80376   0.93811   0.00000  Uiso   1.00
N134   N     0.36171   0.69610   0.37393   0.00000  Uiso   1.00
N135   N     0.75218   0.54137   0.00008   0.00000  Uiso   1.00
N136   N     0.08898   0.70579   0.09072   0.00000  Uiso   1.00
N137   N     0.40020   0.59813   0.52654   0.00000  Uiso   1.00
N138   N     0.79067   0.44340   0.15269   0.00000  Uiso   1.00
C139   C     0.28186   0.18903   0.07602   0.00000  Uiso   1.00
C140   C     0.18085   0.19671   0.89704   0.00000  Uiso   1.00
C141   C     0.11737   0.25773   0.83156   0.00000  Uiso   1.00
C142   C     0.02832   0.25396   0.66493   0.00000  Uiso   1.00
C143   C     0.87524   0.27541   0.40182   0.00000  Uiso   1.00
C144   C     0.37068   0.16704   0.05251   0.00000  Uiso   1.00
C145   C     0.46681   0.20312   0.11776   0.00000  Uiso   1.00
C146   C     0.53756   0.17438   0.08203   0.00000  Uiso   1.00
C147   C     0.67923   0.14974   0.06039   0.00000  Uiso   1.00
C148   C     0.26305   0.12440   0.15553   0.00000  Uiso   1.00
C149   C     0.26871   0.12463   0.30742   0.00000  Uiso   1.00
C150   C     0.24887   0.05997   0.35844   0.00000  Uiso   1.00
C151   C     0.22343   0.96913   0.49675   0.00000  Uiso   1.00
C152   C     0.23661   0.07382   0.89657   0.00000  Uiso   1.00
C153   C     0.15628   0.13413   0.79957   0.00000  Uiso   1.00
C154   C     0.06730   0.13026   0.63300   0.00000  Uiso   1.00
C155   C     0.00369   0.19127   0.56728   0.00000  Uiso   1.00
C156   C     0.34610   0.10447   0.95504   0.00000  Uiso   1.00
C157   C     0.41674   0.07566   0.91921   0.00000  Uiso   1.00
C158   C     0.51294   0.11168   0.98438   0.00000  Uiso   1.00
C159   C     0.23847   0.06182   0.05805   0.00000  Uiso   1.00
C160   C     0.21863   0.99716   0.10886   0.00000  Uiso   1.00
C161   C     0.22425   0.99728   0.26079   0.00000  Uiso   1.00
H162   H     0.30101   0.23775   0.15191   0.00000  Uiso   1.00
H163   H     0.13642   0.30615   0.90703   0.00000  Uiso   1.00
H164   H     0.48581   0.25154   0.19320   0.00000  Uiso   1.00
H165   H     0.28773   0.17306   0.38282   0.00000  Uiso   1.00
H166   H     0.94313   0.35439   0.59252   0.00000  Uiso   1.00
H167   H     0.67985   0.23924   0.19598   0.00000  Uiso   1.00
H168   H     0.26217   0.07374   0.59584   0.00000  Uiso   1.00
H169   H     0.21747   0.02510   0.82067   0.00000  Uiso   1.00
H170   H     0.04829   0.08183   0.55760   0.00000  Uiso   1.00
H171   H     0.39769   0.02723   0.84378   0.00000  Uiso   1.00
H172   H     0.19961   0.94874   0.03340   0.00000  Uiso   1.00
H173   H     0.87161   0.17233   0.30891   0.00000  Uiso   1.00
H174   H     0.60833   0.05717   0.91238   0.00000  Uiso   1.00
H175   H     0.19065   0.89168   0.31223   0.00000  Uiso   1.00
O176   O     0.79761   0.30452   0.28362   0.00000  Uiso   1.00
O177   O     0.76416   0.15344   0.07537   0.00000  Uiso   1.00
O178   O     0.21617   0.93632   0.59996   0.00000  Uiso   1.00
N179   N     0.94950   0.30376   0.56189   0.00000  Uiso   1.00
N180   N     0.63829   0.19610   0.12607   0.00000  Uiso   1.00
N181   N     0.24782   0.04137   0.49992   0.00000  Uiso   1.00
N182   N     0.91102   0.20579   0.40928   0.00000  Uiso   1.00
N183   N     0.59980   0.09813   0.97346   0.00000  Uiso   1.00
N184   N     0.20933   0.94340   0.34731   0.00000  Uiso   1.00
