data_job_02979
_audit_creation_date              2018-12-19
_audit_creation_method            'Materials Studio'
_symmetry_space_group_name_H-M    'P1'
_symmetry_Int_Tables_number       1
_symmetry_cell_setting            triclinic
loop_
_symmetry_equiv_pos_as_xyz
  x,y,z
_cell_length_a                    12.5497
_cell_length_b                    13.8733
_cell_length_c                    15.5854
_cell_angle_alpha                 90.0000
_cell_angle_beta                  90.0000
_cell_angle_gamma                 90.0000
loop_
_atom_site_label
_atom_site_type_symbol
_atom_site_fract_x
_atom_site_fract_y
_atom_site_fract_z
_atom_site_U_iso_or_equiv
_atom_site_adp_type
_atom_site_occupancy
C1     C     0.24197   0.01594   0.33061   0.00000  Uiso   1.00
C2     C     0.21449   0.93949   0.26388   0.00000  Uiso   1.00
C3     C     0.17647   0.95715   0.18176   0.00000  Uiso   1.00
C4     C     0.15611   0.87743   0.13046   0.00000  Uiso   1.00
C5     C     0.11079   0.77302   0.02233   0.00000  Uiso   1.00
C6     C     0.17539   0.99210   0.40966   0.00000  Uiso   1.00
C7     C     0.10450   0.05399   0.45011   0.00000  Uiso   1.00
C8     C     0.05123   0.01856   0.52154   0.00000  Uiso   1.00
C9     C     0.94526   0.99584   0.63975   0.00000  Uiso   1.00
C10    C     0.35759   0.99770   0.35595   0.00000  Uiso   1.00
C11    C     0.43989   0.06430   0.35126   0.00000  Uiso   1.00
C12    C     0.54003   0.03358   0.37749   0.00000  Uiso   1.00
C13    C     0.71695   0.01955   0.41231   0.00000  Uiso   1.00
C14    C     0.27343   0.84297   0.38555   0.00000  Uiso   1.00
C15    C     0.23158   0.84554   0.29373   0.00000  Uiso   1.00
C16    C     0.21128   0.76577   0.24254   0.00000  Uiso   1.00
C17    C     0.17323   0.78331   0.16035   0.00000  Uiso   1.00
C18    C     0.19247   0.89815   0.43950   0.00000  Uiso   1.00
C19    C     0.13931   0.86262   0.51089   0.00000  Uiso   1.00
C20    C     0.06835   0.92444   0.55143   0.00000  Uiso   1.00
C21    C     0.37468   0.90374   0.38579   0.00000  Uiso   1.00
C22    C     0.47470   0.87292   0.41204   0.00000  Uiso   1.00
C23    C     0.55715   0.93946   0.40738   0.00000  Uiso   1.00
H24    H     0.22866   0.08909   0.30739   0.00000  Uiso   1.00
H25    H     0.16324   0.02987   0.15869   0.00000  Uiso   1.00
H26    H     0.09130   0.12670   0.42701   0.00000  Uiso   1.00
H27    H     0.42664   0.13700   0.32817   0.00000  Uiso   1.00
H28    H     0.09821   0.92278   0.00701   0.00000  Uiso   1.00
H29    H     0.94654   0.12696   0.57278   0.00000  Uiso   1.00
H30    H     0.65367   0.14868   0.36436   0.00000  Uiso   1.00
H31    H     0.28674   0.76982   0.40879   0.00000  Uiso   1.00
H32    H     0.22451   0.69308   0.26565   0.00000  Uiso   1.00
H33    H     0.15256   0.78991   0.53396   0.00000  Uiso   1.00
H34    H     0.48790   0.80021   0.43512   0.00000  Uiso   1.00
H35    H     0.14793   0.64943   0.09382   0.00000  Uiso   1.00
H36    H     0.99626   0.85361   0.65959   0.00000  Uiso   1.00
H37    H     0.70339   0.87533   0.45117   0.00000  Uiso   1.00
O38    O     0.08105   0.74138   0.95444   0.00000  Uiso   1.00
O39    O     0.88208   0.00927   0.69671   0.00000  Uiso   1.00
O40    O     0.80982   0.03776   0.42326   0.00000  Uiso   1.00
N41    N     0.11848   0.86898   0.04708   0.00000  Uiso   1.00
N42    N     0.97665   0.05987   0.57603   0.00000  Uiso   1.00
N43    N     0.63776   0.08018   0.38120   0.00000  Uiso   1.00
N44    N     0.14523   0.72189   0.09379   0.00000  Uiso   1.00
N45    N     0.00341   0.91278   0.62274   0.00000  Uiso   1.00
N46    N     0.66451   0.93310   0.42791   0.00000  Uiso   1.00
C47    C     0.25803   0.98406   0.83061   0.00000  Uiso   1.00
C48    C     0.28551   0.06051   0.76388   0.00000  Uiso   1.00
C49    C     0.32353   0.04285   0.68176   0.00000  Uiso   1.00
C50    C     0.34389   0.12257   0.63046   0.00000  Uiso   1.00
C51    C     0.38921   0.22698   0.52233   0.00000  Uiso   1.00
C52    C     0.32461   0.00790   0.90966   0.00000  Uiso   1.00
C53    C     0.39550   0.94601   0.95011   0.00000  Uiso   1.00
C54    C     0.44877   0.98144   0.02154   0.00000  Uiso   1.00
C55    C     0.55474   0.00416   0.13975   0.00000  Uiso   1.00
C56    C     0.14241   0.00230   0.85595   0.00000  Uiso   1.00
C57    C     0.06011   0.93570   0.85126   0.00000  Uiso   1.00
C58    C     0.95997   0.96642   0.87749   0.00000  Uiso   1.00
C59    C     0.78305   0.98045   0.91231   0.00000  Uiso   1.00
C60    C     0.22657   0.15703   0.88555   0.00000  Uiso   1.00
C61    C     0.26842   0.15446   0.79373   0.00000  Uiso   1.00
C62    C     0.28872   0.23423   0.74254   0.00000  Uiso   1.00
C63    C     0.32677   0.21669   0.66035   0.00000  Uiso   1.00
C64    C     0.30753   0.10185   0.93950   0.00000  Uiso   1.00
C65    C     0.36069   0.13738   0.01089   0.00000  Uiso   1.00
C66    C     0.43165   0.07556   0.05143   0.00000  Uiso   1.00
C67    C     0.12532   0.09626   0.88579   0.00000  Uiso   1.00
C68    C     0.02530   0.12708   0.91204   0.00000  Uiso   1.00
C69    C     0.94285   0.06054   0.90738   0.00000  Uiso   1.00
H70    H     0.27134   0.91091   0.80739   0.00000  Uiso   1.00
H71    H     0.33676   0.97013   0.65869   0.00000  Uiso   1.00
H72    H     0.40870   0.87330   0.92701   0.00000  Uiso   1.00
H73    H     0.07336   0.86300   0.82817   0.00000  Uiso   1.00
H74    H     0.40179   0.07722   0.50701   0.00000  Uiso   1.00
H75    H     0.55346   0.87304   0.07278   0.00000  Uiso   1.00
H76    H     0.84633   0.85132   0.86436   0.00000  Uiso   1.00
H77    H     0.21326   0.23018   0.90879   0.00000  Uiso   1.00
H78    H     0.27549   0.30692   0.76565   0.00000  Uiso   1.00
H79    H     0.34744   0.21009   0.03396   0.00000  Uiso   1.00
H80    H     0.01210   0.19979   0.93512   0.00000  Uiso   1.00
H81    H     0.35207   0.35057   0.59382   0.00000  Uiso   1.00
H82    H     0.50374   0.14639   0.15959   0.00000  Uiso   1.00
H83    H     0.79661   0.12467   0.95117   0.00000  Uiso   1.00
O84    O     0.41895   0.25862   0.45444   0.00000  Uiso   1.00
O85    O     0.61792   0.99073   0.19671   0.00000  Uiso   1.00
O86    O     0.69018   0.96224   0.92326   0.00000  Uiso   1.00
N87    N     0.38152   0.13102   0.54708   0.00000  Uiso   1.00
N88    N     0.52335   0.94013   0.07603   0.00000  Uiso   1.00
N89    N     0.86224   0.91982   0.88120   0.00000  Uiso   1.00
N90    N     0.35477   0.27811   0.59379   0.00000  Uiso   1.00
N91    N     0.49659   0.08722   0.12274   0.00000  Uiso   1.00
N92    N     0.83549   0.06690   0.92791   0.00000  Uiso   1.00
C93    C     0.75803   0.51594   0.16939   0.00000  Uiso   1.00
C94    C     0.78551   0.43949   0.23612   0.00000  Uiso   1.00
C95    C     0.82353   0.45715   0.31824   0.00000  Uiso   1.00
C96    C     0.84389   0.37743   0.36954   0.00000  Uiso   1.00
C97    C     0.88921   0.27302   0.47767   0.00000  Uiso   1.00
C98    C     0.82461   0.49210   0.09034   0.00000  Uiso   1.00
C99    C     0.89550   0.55399   0.04989   0.00000  Uiso   1.00
C100   C     0.94877   0.51856   0.97846   0.00000  Uiso   1.00
C101   C     0.05474   0.49584   0.86025   0.00000  Uiso   1.00
C102   C     0.64241   0.49770   0.14405   0.00000  Uiso   1.00
C103   C     0.56011   0.56430   0.14874   0.00000  Uiso   1.00
C104   C     0.45997   0.53358   0.12251   0.00000  Uiso   1.00
C105   C     0.28305   0.51955   0.08769   0.00000  Uiso   1.00
C106   C     0.72657   0.34297   0.11445   0.00000  Uiso   1.00
C107   C     0.76842   0.34554   0.20627   0.00000  Uiso   1.00
C108   C     0.78872   0.26577   0.25746   0.00000  Uiso   1.00
C109   C     0.82677   0.28331   0.33965   0.00000  Uiso   1.00
C110   C     0.80753   0.39815   0.06050   0.00000  Uiso   1.00
C111   C     0.86069   0.36262   0.98911   0.00000  Uiso   1.00
C112   C     0.93165   0.42444   0.94857   0.00000  Uiso   1.00
C113   C     0.62532   0.40374   0.11421   0.00000  Uiso   1.00
C114   C     0.52530   0.37292   0.08796   0.00000  Uiso   1.00
C115   C     0.44285   0.43946   0.09262   0.00000  Uiso   1.00
H116   H     0.77134   0.58909   0.19261   0.00000  Uiso   1.00
H117   H     0.83676   0.52987   0.34131   0.00000  Uiso   1.00
H118   H     0.90870   0.62670   0.07299   0.00000  Uiso   1.00
H119   H     0.57336   0.63700   0.17183   0.00000  Uiso   1.00
H120   H     0.90179   0.42278   0.49299   0.00000  Uiso   1.00
H121   H     0.05346   0.62696   0.92722   0.00000  Uiso   1.00
H122   H     0.34633   0.64868   0.13564   0.00000  Uiso   1.00
H123   H     0.71326   0.26982   0.09121   0.00000  Uiso   1.00
H124   H     0.77549   0.19308   0.23435   0.00000  Uiso   1.00
H125   H     0.84744   0.28991   0.96604   0.00000  Uiso   1.00
H126   H     0.51210   0.30021   0.06488   0.00000  Uiso   1.00
H127   H     0.85207   0.14943   0.40618   0.00000  Uiso   1.00
H128   H     0.00374   0.35361   0.84041   0.00000  Uiso   1.00
H129   H     0.29661   0.37533   0.04883   0.00000  Uiso   1.00
O130   O     0.91895   0.24138   0.54556   0.00000  Uiso   1.00
O131   O     0.11792   0.50927   0.80329   0.00000  Uiso   1.00
O132   O     0.19018   0.53776   0.07674   0.00000  Uiso   1.00
N133   N     0.88152   0.36898   0.45292   0.00000  Uiso   1.00
N134   N     0.02335   0.55987   0.92397   0.00000  Uiso   1.00
N135   N     0.36224   0.58018   0.11880   0.00000  Uiso   1.00
N136   N     0.85477   0.22189   0.40621   0.00000  Uiso   1.00
N137   N     0.99659   0.41278   0.87726   0.00000  Uiso   1.00
N138   N     0.33549   0.43310   0.07209   0.00000  Uiso   1.00
C139   C     0.74197   0.48406   0.66939   0.00000  Uiso   1.00
C140   C     0.71449   0.56051   0.73612   0.00000  Uiso   1.00
C141   C     0.67647   0.54285   0.81824   0.00000  Uiso   1.00
C142   C     0.65611   0.62257   0.86954   0.00000  Uiso   1.00
C143   C     0.61079   0.72698   0.97767   0.00000  Uiso   1.00
C144   C     0.67539   0.50790   0.59034   0.00000  Uiso   1.00
C145   C     0.60450   0.44601   0.54989   0.00000  Uiso   1.00
C146   C     0.55123   0.48144   0.47846   0.00000  Uiso   1.00
C147   C     0.44526   0.50416   0.36025   0.00000  Uiso   1.00
C148   C     0.85759   0.50230   0.64405   0.00000  Uiso   1.00
C149   C     0.93989   0.43570   0.64874   0.00000  Uiso   1.00
C150   C     0.04003   0.46642   0.62251   0.00000  Uiso   1.00
C151   C     0.21695   0.48045   0.58769   0.00000  Uiso   1.00
C152   C     0.77343   0.65703   0.61445   0.00000  Uiso   1.00
C153   C     0.73158   0.65446   0.70627   0.00000  Uiso   1.00
C154   C     0.71128   0.73423   0.75746   0.00000  Uiso   1.00
C155   C     0.67323   0.71669   0.83965   0.00000  Uiso   1.00
C156   C     0.69247   0.60185   0.56050   0.00000  Uiso   1.00
C157   C     0.63931   0.63738   0.48911   0.00000  Uiso   1.00
C158   C     0.56835   0.57556   0.44857   0.00000  Uiso   1.00
C159   C     0.87468   0.59626   0.61421   0.00000  Uiso   1.00
C160   C     0.97470   0.62708   0.58796   0.00000  Uiso   1.00
C161   C     0.05715   0.56054   0.59262   0.00000  Uiso   1.00
H162   H     0.72866   0.41091   0.69261   0.00000  Uiso   1.00
H163   H     0.66324   0.47013   0.84131   0.00000  Uiso   1.00
H164   H     0.59130   0.37330   0.57299   0.00000  Uiso   1.00
H165   H     0.92664   0.36300   0.67183   0.00000  Uiso   1.00
H166   H     0.59821   0.57722   0.99299   0.00000  Uiso   1.00
H167   H     0.44654   0.37304   0.42722   0.00000  Uiso   1.00
H168   H     0.15367   0.35132   0.63564   0.00000  Uiso   1.00
H169   H     0.78674   0.73018   0.59121   0.00000  Uiso   1.00
H170   H     0.72451   0.80692   0.73435   0.00000  Uiso   1.00
H171   H     0.65256   0.71009   0.46604   0.00000  Uiso   1.00
H172   H     0.98790   0.69979   0.56488   0.00000  Uiso   1.00
H173   H     0.64793   0.85057   0.90618   0.00000  Uiso   1.00
H174   H     0.49626   0.64639   0.34041   0.00000  Uiso   1.00
H175   H     0.20339   0.62467   0.54883   0.00000  Uiso   1.00
O176   O     0.58105   0.75862   0.04556   0.00000  Uiso   1.00
O177   O     0.38208   0.49073   0.30329   0.00000  Uiso   1.00
O178   O     0.30982   0.46224   0.57674   0.00000  Uiso   1.00
N179   N     0.61848   0.63102   0.95292   0.00000  Uiso   1.00
N180   N     0.47665   0.44013   0.42397   0.00000  Uiso   1.00
N181   N     0.13776   0.41982   0.61880   0.00000  Uiso   1.00
N182   N     0.64523   0.77811   0.90621   0.00000  Uiso   1.00
N183   N     0.50341   0.58722   0.37726   0.00000  Uiso   1.00
N184   N     0.16451   0.56690   0.57209   0.00000  Uiso   1.00
