data_job_04143
_audit_creation_date              2018-12-19
_audit_creation_method            'Materials Studio'
_symmetry_space_group_name_H-M    'P1'
_symmetry_Int_Tables_number       1
_symmetry_cell_setting            triclinic
loop_
_symmetry_equiv_pos_as_xyz
  x,y,z
_cell_length_a                    32.5739
_cell_length_b                    32.5739
_cell_length_c                    7.0462
_cell_angle_alpha                 90.0000
_cell_angle_beta                  90.0000
_cell_angle_gamma                 120.0000
loop_
_atom_site_label
_atom_site_type_symbol
_atom_site_fract_x
_atom_site_fract_y
_atom_site_fract_z
_atom_site_U_iso_or_equiv
_atom_site_adp_type
_atom_site_occupancy
C1     C     0.86764   0.51607   0.78387   0.00000  Uiso   1.00
C2     C     0.83130   0.53219   0.76033   0.00000  Uiso   1.00
C3     C     0.80316   0.53432   0.90346   0.00000  Uiso   1.00
C4     C     0.77211   0.55002   0.85310   0.00000  Uiso   1.00
C5     C     0.71609   0.57303   0.84495   0.00000  Uiso   1.00
C6     C     0.85354   0.47564   0.64302   0.00000  Uiso   1.00
C7     C     0.84411   0.43023   0.68751   0.00000  Uiso   1.00
C8     C     0.83179   0.39834   0.53838   0.00000  Uiso   1.00
C9     C     0.81034   0.33357   0.34809   0.00000  Uiso   1.00
C10    C     0.91457   0.55689   0.71253   0.00000  Uiso   1.00
C11    C     0.95646   0.57979   0.81546   0.00000  Uiso   1.00
C12    C     0.99552   0.61630   0.72484   0.00000  Uiso   1.00
C13    C     0.06883   0.67768   0.64249   0.00000  Uiso   1.00
C14    C     0.86254   0.54017   0.43991   0.00000  Uiso   1.00
C15    C     0.82853   0.54528   0.57350   0.00000  Uiso   1.00
C16    C     0.79752   0.56098   0.52291   0.00000  Uiso   1.00
C17    C     0.76934   0.56314   0.66594   0.00000  Uiso   1.00
C18    C     0.85078   0.48873   0.45620   0.00000  Uiso   1.00
C19    C     0.83847   0.45690   0.30697   0.00000  Uiso   1.00
C20    C     0.82902   0.41145   0.35122   0.00000  Uiso   1.00
C21    C     0.91181   0.56998   0.52571   0.00000  Uiso   1.00
C22    C     0.95082   0.60646   0.43491   0.00000  Uiso   1.00
C23    C     0.99275   0.62941   0.53768   0.00000  Uiso   1.00
H24    H     0.86979   0.50588   0.92931   0.00000  Uiso   1.00
H25    H     0.80530   0.52418   0.04802   0.00000  Uiso   1.00
H26    H     0.84625   0.42012   0.83210   0.00000  Uiso   1.00
H27    H     0.95858   0.56965   0.96003   0.00000  Uiso   1.00
H28    H     0.73258   0.55023   0.09723   0.00000  Uiso   1.00
H29    H     0.81894   0.33081   0.64194   0.00000  Uiso   1.00
H30    H     0.05581   0.64613   0.91170   0.00000  Uiso   1.00
H31    H     0.86039   0.55036   0.29445   0.00000  Uiso   1.00
H32    H     0.79539   0.57111   0.37832   0.00000  Uiso   1.00
H33    H     0.83634   0.46704   0.16241   0.00000  Uiso   1.00
H34    H     0.94866   0.61658   0.29034   0.00000  Uiso   1.00
H35    H     0.72453   0.58832   0.55368   0.00000  Uiso   1.00
H36    H     0.81089   0.36889   0.09839   0.00000  Uiso   1.00
H37    H     0.04776   0.68422   0.36815   0.00000  Uiso   1.00
O38    O     0.68595   0.58210   0.89207   0.00000  Uiso   1.00
O39    O     0.79927   0.29423   0.29475   0.00000  Uiso   1.00
O40    O     0.11003   0.70793   0.64868   0.00000  Uiso   1.00
N41    N     0.73961   0.55636   0.95780   0.00000  Uiso   1.00
N42    N     0.82035   0.35120   0.53214   0.00000  Uiso   1.00
N43    N     0.04180   0.64600   0.78433   0.00000  Uiso   1.00
N44    N     0.73528   0.57685   0.66532   0.00000  Uiso   1.00
N45    N     0.81602   0.37170   0.23966   0.00000  Uiso   1.00
N46    N     0.03747   0.66649   0.49185   0.00000  Uiso   1.00
C47    C     0.48393   0.35156   0.78387   0.00000  Uiso   1.00
C48    C     0.46781   0.29911   0.76033   0.00000  Uiso   1.00
C49    C     0.46568   0.26884   0.90346   0.00000  Uiso   1.00
C50    C     0.44998   0.22209   0.85310   0.00000  Uiso   1.00
C51    C     0.42697   0.14306   0.84495   0.00000  Uiso   1.00
C52    C     0.52436   0.37790   0.64302   0.00000  Uiso   1.00
C53    C     0.56977   0.41387   0.68751   0.00000  Uiso   1.00
C54    C     0.60166   0.43345   0.53838   0.00000  Uiso   1.00
C55    C     0.66643   0.47677   0.34809   0.00000  Uiso   1.00
C56    C     0.44311   0.35768   0.71253   0.00000  Uiso   1.00
C57    C     0.42021   0.37666   0.81546   0.00000  Uiso   1.00
C58    C     0.38370   0.37923   0.72484   0.00000  Uiso   1.00
C59    C     0.32232   0.39115   0.64249   0.00000  Uiso   1.00
C60    C     0.45983   0.32237   0.43991   0.00000  Uiso   1.00
C61    C     0.45472   0.28326   0.57350   0.00000  Uiso   1.00
C62    C     0.43902   0.23654   0.52291   0.00000  Uiso   1.00
C63    C     0.43686   0.20620   0.66594   0.00000  Uiso   1.00
C64    C     0.51127   0.36204   0.45620   0.00000  Uiso   1.00
C65    C     0.54310   0.38158   0.30697   0.00000  Uiso   1.00
C66    C     0.58855   0.41757   0.35122   0.00000  Uiso   1.00
C67    C     0.43002   0.34182   0.52571   0.00000  Uiso   1.00
C68    C     0.39354   0.34436   0.43491   0.00000  Uiso   1.00
C69    C     0.37059   0.36334   0.53768   0.00000  Uiso   1.00
H70    H     0.49412   0.36391   0.92931   0.00000  Uiso   1.00
H71    H     0.47582   0.28112   0.04802   0.00000  Uiso   1.00
H72    H     0.57988   0.42614   0.83210   0.00000  Uiso   1.00
H73    H     0.43035   0.38893   0.96003   0.00000  Uiso   1.00
H74    H     0.44977   0.18235   0.09723   0.00000  Uiso   1.00
H75    H     0.66919   0.48813   0.64194   0.00000  Uiso   1.00
H76    H     0.35387   0.40968   0.91170   0.00000  Uiso   1.00
H77    H     0.44964   0.31003   0.29445   0.00000  Uiso   1.00
H78    H     0.42889   0.22428   0.37832   0.00000  Uiso   1.00
H79    H     0.53296   0.36930   0.16241   0.00000  Uiso   1.00
H80    H     0.38342   0.33209   0.29034   0.00000  Uiso   1.00
H81    H     0.41168   0.13621   0.55368   0.00000  Uiso   1.00
H82    H     0.63111   0.44200   0.09839   0.00000  Uiso   1.00
H83    H     0.31578   0.36354   0.36815   0.00000  Uiso   1.00
O84    O     0.41790   0.10385   0.89207   0.00000  Uiso   1.00
O85    O     0.70577   0.50504   0.29475   0.00000  Uiso   1.00
O86    O     0.29207   0.40210   0.64868   0.00000  Uiso   1.00
N87    N     0.44364   0.18325   0.95780   0.00000  Uiso   1.00
N88    N     0.64880   0.46914   0.53214   0.00000  Uiso   1.00
N89    N     0.35400   0.39580   0.78433   0.00000  Uiso   1.00
N90    N     0.42315   0.15843   0.66532   0.00000  Uiso   1.00
N91    N     0.62830   0.44432   0.23966   0.00000  Uiso   1.00
N92    N     0.33351   0.37098   0.49185   0.00000  Uiso   1.00
C93    C     0.64844   0.13236   0.78387   0.00000  Uiso   1.00
C94    C     0.70089   0.16870   0.76033   0.00000  Uiso   1.00
C95    C     0.73116   0.19684   0.90346   0.00000  Uiso   1.00
C96    C     0.77791   0.22789   0.85310   0.00000  Uiso   1.00
C97    C     0.85694   0.28391   0.84495   0.00000  Uiso   1.00
C98    C     0.62210   0.14646   0.64302   0.00000  Uiso   1.00
C99    C     0.58613   0.15589   0.68751   0.00000  Uiso   1.00
C100   C     0.56655   0.16821   0.53838   0.00000  Uiso   1.00
C101   C     0.52323   0.18966   0.34809   0.00000  Uiso   1.00
C102   C     0.64232   0.08543   0.71253   0.00000  Uiso   1.00
C103   C     0.62334   0.04354   0.81546   0.00000  Uiso   1.00
C104   C     0.62077   0.00448   0.72484   0.00000  Uiso   1.00
C105   C     0.60885   0.93117   0.64249   0.00000  Uiso   1.00
C106   C     0.67763   0.13746   0.43991   0.00000  Uiso   1.00
C107   C     0.71674   0.17147   0.57350   0.00000  Uiso   1.00
C108   C     0.76346   0.20248   0.52291   0.00000  Uiso   1.00
C109   C     0.79380   0.23066   0.66594   0.00000  Uiso   1.00
C110   C     0.63796   0.14922   0.45620   0.00000  Uiso   1.00
C111   C     0.61842   0.16153   0.30697   0.00000  Uiso   1.00
C112   C     0.58243   0.17098   0.35122   0.00000  Uiso   1.00
C113   C     0.65818   0.08819   0.52571   0.00000  Uiso   1.00
C114   C     0.65564   0.04918   0.43491   0.00000  Uiso   1.00
C115   C     0.63666   0.00725   0.53768   0.00000  Uiso   1.00
H116   H     0.63609   0.13021   0.92931   0.00000  Uiso   1.00
H117   H     0.71888   0.19470   0.04802   0.00000  Uiso   1.00
H118   H     0.57386   0.15375   0.83210   0.00000  Uiso   1.00
H119   H     0.61107   0.04142   0.96003   0.00000  Uiso   1.00
H120   H     0.81765   0.26742   0.09723   0.00000  Uiso   1.00
H121   H     0.51187   0.18106   0.64194   0.00000  Uiso   1.00
H122   H     0.59032   0.94419   0.91170   0.00000  Uiso   1.00
H123   H     0.68997   0.13961   0.29445   0.00000  Uiso   1.00
H124   H     0.77572   0.20461   0.37832   0.00000  Uiso   1.00
H125   H     0.63070   0.16366   0.16241   0.00000  Uiso   1.00
H126   H     0.66791   0.05134   0.29034   0.00000  Uiso   1.00
H127   H     0.86379   0.27547   0.55368   0.00000  Uiso   1.00
H128   H     0.55800   0.18911   0.09839   0.00000  Uiso   1.00
H129   H     0.63646   0.95224   0.36815   0.00000  Uiso   1.00
O130   O     0.89615   0.31405   0.89207   0.00000  Uiso   1.00
O131   O     0.49496   0.20073   0.29475   0.00000  Uiso   1.00
O132   O     0.59790   0.88997   0.64868   0.00000  Uiso   1.00
N133   N     0.81675   0.26039   0.95780   0.00000  Uiso   1.00
N134   N     0.53086   0.17965   0.53214   0.00000  Uiso   1.00
N135   N     0.60420   0.95820   0.78433   0.00000  Uiso   1.00
N136   N     0.84157   0.26472   0.66532   0.00000  Uiso   1.00
N137   N     0.55568   0.18398   0.23966   0.00000  Uiso   1.00
N138   N     0.62902   0.96253   0.49185   0.00000  Uiso   1.00
C139   C     0.13236   0.48393   0.21613   0.00000  Uiso   1.00
C140   C     0.16870   0.46781   0.23967   0.00000  Uiso   1.00
C141   C     0.19684   0.46568   0.09654   0.00000  Uiso   1.00
C142   C     0.22789   0.44998   0.14690   0.00000  Uiso   1.00
C143   C     0.28391   0.42697   0.15505   0.00000  Uiso   1.00
C144   C     0.14646   0.52436   0.35698   0.00000  Uiso   1.00
C145   C     0.15589   0.56977   0.31249   0.00000  Uiso   1.00
C146   C     0.16821   0.60166   0.46162   0.00000  Uiso   1.00
C147   C     0.18966   0.66643   0.65191   0.00000  Uiso   1.00
C148   C     0.08543   0.44311   0.28747   0.00000  Uiso   1.00
C149   C     0.04354   0.42021   0.18454   0.00000  Uiso   1.00
C150   C     0.00448   0.38370   0.27516   0.00000  Uiso   1.00
C151   C     0.93117   0.32232   0.35751   0.00000  Uiso   1.00
C152   C     0.13746   0.45983   0.56009   0.00000  Uiso   1.00
C153   C     0.17147   0.45472   0.42650   0.00000  Uiso   1.00
C154   C     0.20248   0.43902   0.47709   0.00000  Uiso   1.00
C155   C     0.23066   0.43686   0.33406   0.00000  Uiso   1.00
C156   C     0.14922   0.51127   0.54380   0.00000  Uiso   1.00
C157   C     0.16153   0.54310   0.69303   0.00000  Uiso   1.00
C158   C     0.17098   0.58855   0.64878   0.00000  Uiso   1.00
C159   C     0.08819   0.43002   0.47429   0.00000  Uiso   1.00
C160   C     0.04918   0.39354   0.56509   0.00000  Uiso   1.00
C161   C     0.00725   0.37059   0.46232   0.00000  Uiso   1.00
H162   H     0.13021   0.49412   0.07069   0.00000  Uiso   1.00
H163   H     0.19470   0.47582   0.95198   0.00000  Uiso   1.00
H164   H     0.15375   0.57988   0.16790   0.00000  Uiso   1.00
H165   H     0.04142   0.43035   0.03997   0.00000  Uiso   1.00
H166   H     0.26742   0.44977   0.90277   0.00000  Uiso   1.00
H167   H     0.18106   0.66919   0.35806   0.00000  Uiso   1.00
H168   H     0.94419   0.35387   0.08830   0.00000  Uiso   1.00
H169   H     0.13961   0.44964   0.70555   0.00000  Uiso   1.00
H170   H     0.20461   0.42889   0.62168   0.00000  Uiso   1.00
H171   H     0.16366   0.53296   0.83759   0.00000  Uiso   1.00
H172   H     0.05134   0.38342   0.70966   0.00000  Uiso   1.00
H173   H     0.27547   0.41168   0.44632   0.00000  Uiso   1.00
H174   H     0.18911   0.63111   0.90161   0.00000  Uiso   1.00
H175   H     0.95224   0.31578   0.63185   0.00000  Uiso   1.00
O176   O     0.31405   0.41790   0.10793   0.00000  Uiso   1.00
O177   O     0.20073   0.70577   0.70525   0.00000  Uiso   1.00
O178   O     0.88997   0.29207   0.35132   0.00000  Uiso   1.00
N179   N     0.26039   0.44364   0.04220   0.00000  Uiso   1.00
N180   N     0.17965   0.64880   0.46786   0.00000  Uiso   1.00
N181   N     0.95820   0.35400   0.21567   0.00000  Uiso   1.00
N182   N     0.26472   0.42315   0.33468   0.00000  Uiso   1.00
N183   N     0.18398   0.62830   0.76034   0.00000  Uiso   1.00
N184   N     0.96253   0.33351   0.50815   0.00000  Uiso   1.00
C185   C     0.51607   0.64844   0.21613   0.00000  Uiso   1.00
C186   C     0.53219   0.70089   0.23967   0.00000  Uiso   1.00
C187   C     0.53432   0.73116   0.09654   0.00000  Uiso   1.00
C188   C     0.55002   0.77791   0.14690   0.00000  Uiso   1.00
C189   C     0.57303   0.85694   0.15505   0.00000  Uiso   1.00
C190   C     0.47564   0.62210   0.35698   0.00000  Uiso   1.00
C191   C     0.43023   0.58613   0.31249   0.00000  Uiso   1.00
C192   C     0.39834   0.56655   0.46162   0.00000  Uiso   1.00
C193   C     0.33357   0.52323   0.65191   0.00000  Uiso   1.00
C194   C     0.55689   0.64232   0.28747   0.00000  Uiso   1.00
C195   C     0.57979   0.62334   0.18454   0.00000  Uiso   1.00
C196   C     0.61630   0.62077   0.27516   0.00000  Uiso   1.00
C197   C     0.67768   0.60885   0.35751   0.00000  Uiso   1.00
C198   C     0.54017   0.67763   0.56009   0.00000  Uiso   1.00
C199   C     0.54528   0.71674   0.42650   0.00000  Uiso   1.00
C200   C     0.56098   0.76346   0.47709   0.00000  Uiso   1.00
C201   C     0.56314   0.79380   0.33406   0.00000  Uiso   1.00
C202   C     0.48873   0.63796   0.54380   0.00000  Uiso   1.00
C203   C     0.45690   0.61842   0.69303   0.00000  Uiso   1.00
C204   C     0.41145   0.58243   0.64878   0.00000  Uiso   1.00
C205   C     0.56998   0.65818   0.47429   0.00000  Uiso   1.00
C206   C     0.60646   0.65564   0.56509   0.00000  Uiso   1.00
C207   C     0.62941   0.63666   0.46232   0.00000  Uiso   1.00
H208   H     0.50588   0.63609   0.07069   0.00000  Uiso   1.00
H209   H     0.52418   0.71888   0.95198   0.00000  Uiso   1.00
H210   H     0.42012   0.57386   0.16790   0.00000  Uiso   1.00
H211   H     0.56965   0.61107   0.03997   0.00000  Uiso   1.00
H212   H     0.55023   0.81765   0.90277   0.00000  Uiso   1.00
H213   H     0.33081   0.51187   0.35806   0.00000  Uiso   1.00
H214   H     0.64613   0.59032   0.08830   0.00000  Uiso   1.00
H215   H     0.55036   0.68997   0.70555   0.00000  Uiso   1.00
H216   H     0.57111   0.77572   0.62168   0.00000  Uiso   1.00
H217   H     0.46704   0.63070   0.83759   0.00000  Uiso   1.00
H218   H     0.61658   0.66791   0.70966   0.00000  Uiso   1.00
H219   H     0.58832   0.86379   0.44632   0.00000  Uiso   1.00
H220   H     0.36889   0.55800   0.90161   0.00000  Uiso   1.00
H221   H     0.68422   0.63646   0.63185   0.00000  Uiso   1.00
O222   O     0.58210   0.89615   0.10793   0.00000  Uiso   1.00
O223   O     0.29423   0.49496   0.70525   0.00000  Uiso   1.00
O224   O     0.70793   0.59790   0.35132   0.00000  Uiso   1.00
N225   N     0.55636   0.81675   0.04220   0.00000  Uiso   1.00
N226   N     0.35120   0.53086   0.46786   0.00000  Uiso   1.00
N227   N     0.64600   0.60420   0.21567   0.00000  Uiso   1.00
N228   N     0.57685   0.84157   0.33468   0.00000  Uiso   1.00
N229   N     0.37170   0.55568   0.76034   0.00000  Uiso   1.00
N230   N     0.66649   0.62902   0.50815   0.00000  Uiso   1.00
C231   C     0.35156   0.86764   0.21613   0.00000  Uiso   1.00
C232   C     0.29911   0.83130   0.23967   0.00000  Uiso   1.00
C233   C     0.26884   0.80316   0.09654   0.00000  Uiso   1.00
C234   C     0.22209   0.77211   0.14690   0.00000  Uiso   1.00
C235   C     0.14306   0.71609   0.15505   0.00000  Uiso   1.00
C236   C     0.37790   0.85354   0.35698   0.00000  Uiso   1.00
C237   C     0.41387   0.84411   0.31249   0.00000  Uiso   1.00
C238   C     0.43345   0.83179   0.46162   0.00000  Uiso   1.00
C239   C     0.47677   0.81034   0.65191   0.00000  Uiso   1.00
C240   C     0.35768   0.91457   0.28747   0.00000  Uiso   1.00
C241   C     0.37666   0.95646   0.18454   0.00000  Uiso   1.00
C242   C     0.37923   0.99552   0.27516   0.00000  Uiso   1.00
C243   C     0.39115   0.06883   0.35751   0.00000  Uiso   1.00
C244   C     0.32237   0.86254   0.56009   0.00000  Uiso   1.00
C245   C     0.28326   0.82853   0.42650   0.00000  Uiso   1.00
C246   C     0.23654   0.79752   0.47709   0.00000  Uiso   1.00
C247   C     0.20620   0.76934   0.33406   0.00000  Uiso   1.00
C248   C     0.36204   0.85078   0.54380   0.00000  Uiso   1.00
C249   C     0.38158   0.83847   0.69303   0.00000  Uiso   1.00
C250   C     0.41757   0.82902   0.64878   0.00000  Uiso   1.00
C251   C     0.34182   0.91181   0.47429   0.00000  Uiso   1.00
C252   C     0.34436   0.95082   0.56509   0.00000  Uiso   1.00
C253   C     0.36334   0.99275   0.46232   0.00000  Uiso   1.00
H254   H     0.36391   0.86979   0.07069   0.00000  Uiso   1.00
H255   H     0.28112   0.80530   0.95198   0.00000  Uiso   1.00
H256   H     0.42614   0.84625   0.16790   0.00000  Uiso   1.00
H257   H     0.38893   0.95858   0.03997   0.00000  Uiso   1.00
H258   H     0.18235   0.73258   0.90277   0.00000  Uiso   1.00
H259   H     0.48813   0.81894   0.35806   0.00000  Uiso   1.00
H260   H     0.40968   0.05581   0.08830   0.00000  Uiso   1.00
H261   H     0.31003   0.86039   0.70555   0.00000  Uiso   1.00
H262   H     0.22428   0.79539   0.62168   0.00000  Uiso   1.00
H263   H     0.36930   0.83634   0.83759   0.00000  Uiso   1.00
H264   H     0.33209   0.94866   0.70966   0.00000  Uiso   1.00
H265   H     0.13621   0.72453   0.44632   0.00000  Uiso   1.00
H266   H     0.44200   0.81089   0.90161   0.00000  Uiso   1.00
H267   H     0.36354   0.04776   0.63185   0.00000  Uiso   1.00
O268   O     0.10385   0.68595   0.10793   0.00000  Uiso   1.00
O269   O     0.50504   0.79927   0.70525   0.00000  Uiso   1.00
O270   O     0.40210   0.11003   0.35132   0.00000  Uiso   1.00
N271   N     0.18325   0.73961   0.04220   0.00000  Uiso   1.00
N272   N     0.46914   0.82035   0.46786   0.00000  Uiso   1.00
N273   N     0.39580   0.04180   0.21567   0.00000  Uiso   1.00
N274   N     0.15843   0.73528   0.33468   0.00000  Uiso   1.00
N275   N     0.44432   0.81602   0.76034   0.00000  Uiso   1.00
N276   N     0.37098   0.03747   0.50815   0.00000  Uiso   1.00
