data_job_07004
_audit_creation_date              2018-12-19
_audit_creation_method            'Materials Studio'
_symmetry_space_group_name_H-M    'P1'
_symmetry_Int_Tables_number       1
_symmetry_cell_setting            triclinic
loop_
_symmetry_equiv_pos_as_xyz
  x,y,z
_cell_length_a                    18.9046
_cell_length_b                    21.4513
_cell_length_c                    20.9679
_cell_angle_alpha                 86.1642
_cell_angle_beta                  87.4134
_cell_angle_gamma                 84.0201
loop_
_atom_site_label
_atom_site_type_symbol
_atom_site_fract_x
_atom_site_fract_y
_atom_site_fract_z
_atom_site_U_iso_or_equiv
_atom_site_adp_type
_atom_site_occupancy
C1     C     0.96990   0.70030   0.04766   0.00000  Uiso   1.00
C2     C     0.01812   0.73600   0.08513   0.00000  Uiso   1.00
C3     C     0.00538   0.75296   0.14765   0.00000  Uiso   1.00
C4     C     0.05595   0.78547   0.17338   0.00000  Uiso   1.00
C5     C     0.12151   0.83866   0.23696   0.00000  Uiso   1.00
C6     C     0.95272   0.74145   0.98708   0.00000  Uiso   1.00
C7     C     0.88499   0.76298   0.96717   0.00000  Uiso   1.00
C8     C     0.88052   0.80008   0.91036   0.00000  Uiso   1.00
C9     C     0.84454   0.86169   0.82171   0.00000  Uiso   1.00
C10    C     0.01594   0.64236   0.02588   0.00000  Uiso   1.00
C11    C     0.00136   0.58057   0.03856   0.00000  Uiso   1.00
C12    C     0.05010   0.53425   0.01440   0.00000  Uiso   1.00
C13    C     0.11228   0.44200   0.98597   0.00000  Uiso   1.00
C14    C     0.08237   0.72790   0.98216   0.00000  Uiso   1.00
C15    C     0.07921   0.75100   0.04955   0.00000  Uiso   1.00
C16    C     0.12982   0.78350   0.07519   0.00000  Uiso   1.00
C17    C     0.11716   0.80049   0.13774   0.00000  Uiso   1.00
C18    C     0.01381   0.75645   0.95151   0.00000  Uiso   1.00
C19    C     0.00943   0.79352   0.89471   0.00000  Uiso   1.00
C20    C     0.94172   0.81510   0.87472   0.00000  Uiso   1.00
C21    C     0.07703   0.65736   0.99030   0.00000  Uiso   1.00
C22    C     0.12580   0.61112   0.96611   0.00000  Uiso   1.00
C23    C     0.11130   0.54927   0.97876   0.00000  Uiso   1.00
H24    H     0.92233   0.68863   0.07535   0.00000  Uiso   1.00
H25    H     0.95809   0.74135   0.17516   0.00000  Uiso   1.00
H26    H     0.83772   0.75136   0.99471   0.00000  Uiso   1.00
H27    H     0.95407   0.56899   0.06609   0.00000  Uiso   1.00
H28    H     0.02466   0.80643   0.27013   0.00000  Uiso   1.00
H29    H     0.77086   0.82753   0.88962   0.00000  Uiso   1.00
H30    H     0.01621   0.44295   0.04014   0.00000  Uiso   1.00
H31    H     0.12994   0.73958   0.95447   0.00000  Uiso   1.00
H32    H     0.17709   0.79510   0.04765   0.00000  Uiso   1.00
H33    H     0.05672   0.80511   0.86720   0.00000  Uiso   1.00
H34    H     0.17307   0.62274   0.93858   0.00000  Uiso   1.00
H35    H     0.20240   0.85006   0.16663   0.00000  Uiso   1.00
H36    H     0.94860   0.87115   0.78612   0.00000  Uiso   1.00
H37    H     0.19395   0.48658   0.93665   0.00000  Uiso   1.00
O38    O     0.14079   0.86386   0.28185   0.00000  Uiso   1.00
O39    O     0.80782   0.89153   0.78264   0.00000  Uiso   1.00
O40    O     0.12971   0.38698   0.98013   0.00000  Uiso   1.00
N41    N     0.06003   0.80907   0.23299   0.00000  Uiso   1.00
N42    N     0.82274   0.82880   0.87724   0.00000  Uiso   1.00
N43    N     0.05211   0.46926   0.01795   0.00000  Uiso   1.00
N44    N     0.15567   0.83254   0.17730   0.00000  Uiso   1.00
N45    N     0.91839   0.85228   0.82155   0.00000  Uiso   1.00
N46    N     0.14775   0.49273   0.96227   0.00000  Uiso   1.00
C47    C     0.94976   0.14900   0.56530   0.00000  Uiso   1.00
C48    C     0.94937   0.19156   0.62076   0.00000  Uiso   1.00
C49    C     0.00360   0.22712   0.63390   0.00000  Uiso   1.00
C50    C     0.99305   0.26298   0.68687   0.00000  Uiso   1.00
C51    C     0.00197   0.32899   0.76716   0.00000  Uiso   1.00
C52    C     0.93765   0.08404   0.59527   0.00000  Uiso   1.00
C53    C     0.98203   0.02922   0.58698   0.00000  Uiso   1.00
C54    C     0.96160   0.97457   0.61850   0.00000  Uiso   1.00
C55    C     0.95230   0.87366   0.65918   0.00000  Uiso   1.00
C56    C     0.88332   0.17170   0.52833   0.00000  Uiso   1.00
C57    C     0.88203   0.19056   0.46374   0.00000  Uiso   1.00
C58    C     0.81586   0.20969   0.43889   0.00000  Uiso   1.00
C59    C     0.72222   0.24488   0.37563   0.00000  Uiso   1.00
C60    C     0.83456   0.14944   0.63602   0.00000  Uiso   1.00
C61    C     0.88679   0.19179   0.65917   0.00000  Uiso   1.00
C62    C     0.87615   0.22760   0.71214   0.00000  Uiso   1.00
C63    C     0.93037   0.26322   0.72535   0.00000  Uiso   1.00
C64    C     0.87508   0.08428   0.63368   0.00000  Uiso   1.00
C65    C     0.85457   0.02970   0.66522   0.00000  Uiso   1.00
C66    C     0.89891   0.97480   0.65698   0.00000  Uiso   1.00
C67    C     0.82075   0.17194   0.56674   0.00000  Uiso   1.00
C68    C     0.75457   0.19104   0.54198   0.00000  Uiso   1.00
C69    C     0.75318   0.20993   0.47737   0.00000  Uiso   1.00
H70    H     0.99847   0.14881   0.53539   0.00000  Uiso   1.00
H71    H     0.05202   0.22692   0.60416   0.00000  Uiso   1.00
H72    H     0.03044   0.02905   0.55724   0.00000  Uiso   1.00
H73    H     0.93046   0.19036   0.43403   0.00000  Uiso   1.00
H74    H     0.08381   0.31360   0.69736   0.00000  Uiso   1.00
H75    H     0.03829   0.89637   0.59841   0.00000  Uiso   1.00
H76    H     0.82746   0.23654   0.33858   0.00000  Uiso   1.00
H77    H     0.78584   0.14962   0.66592   0.00000  Uiso   1.00
H78    H     0.82773   0.22778   0.74185   0.00000  Uiso   1.00
H79    H     0.80615   0.02990   0.69494   0.00000  Uiso   1.00
H80    H     0.70616   0.19122   0.57172   0.00000  Uiso   1.00
H81    H     0.90176   0.31430   0.80912   0.00000  Uiso   1.00
H82    H     0.85625   0.89706   0.71017   0.00000  Uiso   1.00
H83    H     0.64541   0.23724   0.45034   0.00000  Uiso   1.00
O84    O     0.02418   0.36533   0.80084   0.00000  Uiso   1.00
O85    O     0.96446   0.81794   0.67102   0.00000  Uiso   1.00
O86    O     0.68785   0.26424   0.33014   0.00000  Uiso   1.00
N87    N     0.03521   0.30305   0.71323   0.00000  Uiso   1.00
N88    N     0.99266   0.91296   0.62073   0.00000  Uiso   1.00
N89    N     0.79555   0.23098   0.37781   0.00000  Uiso   1.00
N90    N     0.93725   0.30342   0.77337   0.00000  Uiso   1.00
N91    N     0.89470   0.91334   0.68087   0.00000  Uiso   1.00
N92    N     0.69759   0.23135   0.43795   0.00000  Uiso   1.00
C93    C     0.69945   0.10309   0.94665   0.00000  Uiso   1.00
C94    C     0.77407   0.07116   0.95825   0.00000  Uiso   1.00
C95    C     0.83174   0.10063   0.97536   0.00000  Uiso   1.00
C96    C     0.89551   0.06320   0.98373   0.00000  Uiso   1.00
C97    C     0.01050   0.02346   0.00298   0.00000  Uiso   1.00
C98    C     0.68230   0.08839   0.87923   0.00000  Uiso   1.00
C99    C     0.66280   0.13235   0.82990   0.00000  Uiso   1.00
C100   C     0.64932   0.10942   0.77176   0.00000  Uiso   1.00
C101   C     0.62178   0.09643   0.66835   0.00000  Uiso   1.00
C102   C     0.64933   0.06824   0.99181   0.00000  Uiso   1.00
C103   C     0.60208   0.09526   0.03714   0.00000  Uiso   1.00
C104   C     0.56082   0.05536   0.07378   0.00000  Uiso   1.00
C105   C     0.48209   0.01108   0.14518   0.00000  Uiso   1.00
C106   C     0.71017   0.98421   0.93110   0.00000  Uiso   1.00
C107   C     0.77989   0.00660   0.94980   0.00000  Uiso   1.00
C108   C     0.84360   0.96911   0.95814   0.00000  Uiso   1.00
C109   C     0.90135   0.99852   0.97526   0.00000  Uiso   1.00
C110   C     0.68812   0.02383   0.87078   0.00000  Uiso   1.00
C111   C     0.67466   0.00083   0.81269   0.00000  Uiso   1.00
C112   C     0.65515   0.04474   0.76329   0.00000  Uiso   1.00
C113   C     0.65515   0.00367   0.98337   0.00000  Uiso   1.00
C114   C     0.61395   0.96373   0.01993   0.00000  Uiso   1.00
C115   C     0.56665   0.99068   0.06531   0.00000  Uiso   1.00
H116   H     0.69492   0.15336   0.95323   0.00000  Uiso   1.00
H117   H     0.82721   0.15060   0.98189   0.00000  Uiso   1.00
H118   H     0.65830   0.18231   0.83646   0.00000  Uiso   1.00
H119   H     0.59759   0.14522   0.04367   0.00000  Uiso   1.00
H120   H     0.97646   0.11908   0.00991   0.00000  Uiso   1.00
H121   H     0.62027   0.18594   0.70328   0.00000  Uiso   1.00
H122   H     0.49225   0.10773   0.14022   0.00000  Uiso   1.00
H123   H     0.71470   0.93394   0.92452   0.00000  Uiso   1.00
H124   H     0.84809   0.91915   0.95160   0.00000  Uiso   1.00
H125   H     0.67917   0.95086   0.80617   0.00000  Uiso   1.00
H126   H     0.61846   0.91377   0.01338   0.00000  Uiso   1.00
H127   H     0.99340   0.93122   0.98532   0.00000  Uiso   1.00
H128   H     0.63720   0.99809   0.67869   0.00000  Uiso   1.00
H129   H     0.50920   0.91987   0.11563   0.00000  Uiso   1.00
O130   O     0.07232   0.01938   0.01593   0.00000  Uiso   1.00
O131   O     0.60500   0.10710   0.61365   0.00000  Uiso   1.00
O132   O     0.43706   0.00449   0.18690   0.00000  Uiso   1.00
N133   N     0.96214   0.07689   0.00042   0.00000  Uiso   1.00
N134   N     0.62913   0.13941   0.71373   0.00000  Uiso   1.00
N135   N     0.50944   0.06629   0.12222   0.00000  Uiso   1.00
N136   N     0.97126   0.97581   0.98719   0.00000  Uiso   1.00
N137   N     0.63824   0.03832   0.70050   0.00000  Uiso   1.00
N138   N     0.51855   0.96521   0.10899   0.00000  Uiso   1.00
C139   C     0.45432   0.82348   0.25574   0.00000  Uiso   1.00
C140   C     0.51171   0.85137   0.29033   0.00000  Uiso   1.00
C141   C     0.50590   0.91084   0.31355   0.00000  Uiso   1.00
C142   C     0.56435   0.92755   0.34378   0.00000  Uiso   1.00
C143   C     0.64403   0.97712   0.39649   0.00000  Uiso   1.00
C144   C     0.44108   0.76239   0.29373   0.00000  Uiso   1.00
C145   C     0.37588   0.74705   0.31980   0.00000  Uiso   1.00
C146   C     0.37488   0.68885   0.35289   0.00000  Uiso   1.00
C147   C     0.34489   0.60026   0.41084   0.00000  Uiso   1.00
C148   C     0.48838   0.80456   0.19166   0.00000  Uiso   1.00
C149   C     0.46293   0.82467   0.13191   0.00000  Uiso   1.00
C150   C     0.50174   0.80197   0.07905   0.00000  Uiso   1.00
C151   C     0.54518   0.77886   0.97852   0.00000  Uiso   1.00
C152   C     0.56847   0.74741   0.26813   0.00000  Uiso   1.00
C153   C     0.57372   0.81004   0.29706   0.00000  Uiso   1.00
C154   C     0.63220   0.82667   0.32726   0.00000  Uiso   1.00
C155   C     0.62647   0.88616   0.35052   0.00000  Uiso   1.00
C156   C     0.50308   0.72107   0.30046   0.00000  Uiso   1.00
C157   C     0.50217   0.66288   0.33351   0.00000  Uiso   1.00
C158   C     0.43699   0.64746   0.35963   0.00000  Uiso   1.00
C159   C     0.55038   0.76324   0.19839   0.00000  Uiso   1.00
C160   C     0.58923   0.74050   0.14562   0.00000  Uiso   1.00
C161   C     0.56385   0.76057   0.08579   0.00000  Uiso   1.00
H162   H     0.40604   0.85565   0.25050   0.00000  Uiso   1.00
H163   H     0.45791   0.94280   0.30834   0.00000  Uiso   1.00
H164   H     0.32791   0.77903   0.31458   0.00000  Uiso   1.00
H165   H     0.41495   0.85664   0.12672   0.00000  Uiso   1.00
H166   H     0.54274   0.02120   0.37545   0.00000  Uiso   1.00
H167   H     0.26862   0.67587   0.38860   0.00000  Uiso   1.00
H168   H     0.45216   0.83952   0.99244   0.00000  Uiso   1.00
H169   H     0.61674   0.71523   0.27337   0.00000  Uiso   1.00
H170   H     0.68017   0.79468   0.33246   0.00000  Uiso   1.00
H171   H     0.55017   0.63091   0.33871   0.00000  Uiso   1.00
H172   H     0.63721   0.70852   0.15084   0.00000  Uiso   1.00
H173   H     0.72313   0.90098   0.39503   0.00000  Uiso   1.00
H174   H     0.44902   0.55565   0.40817   0.00000  Uiso   1.00
H175   H     0.63256   0.71930   0.01202   0.00000  Uiso   1.00
O176   O     0.67085   0.01588   0.42372   0.00000  Uiso   1.00
O177   O     0.31122   0.56282   0.44095   0.00000  Uiso   1.00
O178   O     0.55202   0.77753   0.92121   0.00000  Uiso   1.00
N179   N     0.57650   0.98200   0.37194   0.00000  Uiso   1.00
N180   N     0.32022   0.65915   0.38424   0.00000  Uiso   1.00
N181   N     0.49180   0.81214   0.01387   0.00000  Uiso   1.00
N182   N     0.67356   0.91731   0.38247   0.00000  Uiso   1.00
N183   N     0.41728   0.59446   0.39477   0.00000  Uiso   1.00
N184   N     0.58887   0.74745   0.02440   0.00000  Uiso   1.00
C185   C     0.53091   0.34640   0.52200   0.00000  Uiso   1.00
C186   C     0.54471   0.40589   0.55333   0.00000  Uiso   1.00
C187   C     0.60747   0.41614   0.58099   0.00000  Uiso   1.00
C188   C     0.60950   0.47368   0.60711   0.00000  Uiso   1.00
C189   C     0.63987   0.55913   0.65597   0.00000  Uiso   1.00
C190   C     0.50914   0.36734   0.45412   0.00000  Uiso   1.00
C191   C     0.54199   0.34517   0.39836   0.00000  Uiso   1.00
C192   C     0.51407   0.37027   0.34098   0.00000  Uiso   1.00
C193   C     0.48917   0.39584   0.23581   0.00000  Uiso   1.00
C194   C     0.46487   0.32351   0.55663   0.00000  Uiso   1.00
C195   C     0.46049   0.26447   0.58704   0.00000  Uiso   1.00
C196   C     0.39529   0.25265   0.61594   0.00000  Uiso   1.00
C197   C     0.30167   0.21016   0.66992   0.00000  Uiso   1.00
C198   C     0.42290   0.43037   0.51923   0.00000  Uiso   1.00
C199   C     0.48604   0.45150   0.55183   0.00000  Uiso   1.00
C200   C     0.48797   0.50904   0.57792   0.00000  Uiso   1.00
C201   C     0.55073   0.51937   0.60561   0.00000  Uiso   1.00
C202   C     0.45047   0.41295   0.45262   0.00000  Uiso   1.00
C203   C     0.42249   0.43808   0.39530   0.00000  Uiso   1.00
C204   C     0.45530   0.41596   0.33947   0.00000  Uiso   1.00
C205   C     0.40620   0.36912   0.55512   0.00000  Uiso   1.00
C206   C     0.34100   0.35738   0.58398   0.00000  Uiso   1.00
C207   C     0.33652   0.29835   0.61443   0.00000  Uiso   1.00
H208   H     0.57658   0.31089   0.52316   0.00000  Uiso   1.00
H209   H     0.65287   0.38083   0.58213   0.00000  Uiso   1.00
H210   H     0.58738   0.30987   0.39954   0.00000  Uiso   1.00
H211   H     0.50590   0.22919   0.58819   0.00000  Uiso   1.00
H212   H     0.71158   0.47849   0.64683   0.00000  Uiso   1.00
H213   H     0.57349   0.32887   0.26183   0.00000  Uiso   1.00
H214   H     0.40167   0.15873   0.65963   0.00000  Uiso   1.00
H215   H     0.37722   0.46588   0.51805   0.00000  Uiso   1.00
H216   H     0.44257   0.54433   0.57675   0.00000  Uiso   1.00
H217   H     0.37709   0.47337   0.39415   0.00000  Uiso   1.00
H218   H     0.29561   0.39269   0.58280   0.00000  Uiso   1.00
H219   H     0.54089   0.61120   0.64246   0.00000  Uiso   1.00
H220   H     0.40281   0.46157   0.25745   0.00000  Uiso   1.00
H221   H     0.23099   0.29143   0.65525   0.00000  Uiso   1.00
O222   O     0.67282   0.59366   0.68333   0.00000  Uiso   1.00
O223   O     0.49165   0.39735   0.17822   0.00000  Uiso   1.00
O224   O     0.26623   0.17413   0.70013   0.00000  Uiso   1.00
N225   N     0.66243   0.49896   0.63776   0.00000  Uiso   1.00
N226   N     0.53334   0.35907   0.27780   0.00000  Uiso   1.00
N227   N     0.37270   0.20000   0.64970   0.00000  Uiso   1.00
N228   N     0.57059   0.57036   0.63541   0.00000  Uiso   1.00
N229   N     0.44150   0.43048   0.27545   0.00000  Uiso   1.00
N230   N     0.28085   0.27140   0.64734   0.00000  Uiso   1.00
C231   C     0.01100   0.61136   0.62982   0.00000  Uiso   1.00
C232   C     0.06112   0.64681   0.66549   0.00000  Uiso   1.00
C233   C     0.06147   0.65027   0.73132   0.00000  Uiso   1.00
C234   C     0.11151   0.68504   0.75463   0.00000  Uiso   1.00
C235   C     0.18207   0.73546   0.81626   0.00000  Uiso   1.00
C236   C     0.05852   0.56585   0.58973   0.00000  Uiso   1.00
C237   C     0.05667   0.50124   0.59188   0.00000  Uiso   1.00
C238   C     0.10451   0.46786   0.55140   0.00000  Uiso   1.00
C239   C     0.17098   0.39260   0.49540   0.00000  Uiso   1.00
C240   C     0.97384   0.65954   0.58238   0.00000  Uiso   1.00
C241   C     0.90080   0.67368   0.57832   0.00000  Uiso   1.00
C242   C     0.87735   0.71917   0.53164   0.00000  Uiso   1.00
C243   C     0.81235   0.78936   0.46421   0.00000  Uiso   1.00
C244   C     0.09925   0.66698   0.55413   0.00000  Uiso   1.00
C245   C     0.10905   0.67702   0.62437   0.00000  Uiso   1.00
C246   C     0.15910   0.71180   0.64758   0.00000  Uiso   1.00
C247   C     0.15953   0.71531   0.71344   0.00000  Uiso   1.00
C248   C     0.10645   0.59606   0.54862   0.00000  Uiso   1.00
C249   C     0.15430   0.56278   0.50813   0.00000  Uiso   1.00
C250   C     0.15252   0.49813   0.51022   0.00000  Uiso   1.00
C251   C     0.02177   0.68975   0.54126   0.00000  Uiso   1.00
C252   C     0.99843   0.73522   0.49458   0.00000  Uiso   1.00
C253   C     0.92536   0.74943   0.49045   0.00000  Uiso   1.00
H254   H     0.97369   0.58784   0.66183   0.00000  Uiso   1.00
H255   H     0.02438   0.62687   0.76313   0.00000  Uiso   1.00
H256   H     0.01956   0.47787   0.62369   0.00000  Uiso   1.00
H257   H     0.86372   0.65029   0.61014   0.00000  Uiso   1.00
H258   H     0.10173   0.68346   0.85730   0.00000  Uiso   1.00
H259   H     0.09157   0.36928   0.56329   0.00000  Uiso   1.00
H260   H     0.76294   0.73285   0.53471   0.00000  Uiso   1.00
H261   H     0.13656   0.69050   0.52212   0.00000  Uiso   1.00
H262   H     0.19619   0.73518   0.61576   0.00000  Uiso   1.00
H263   H     0.19138   0.58617   0.47632   0.00000  Uiso   1.00
H264   H     0.03554   0.75859   0.46277   0.00000  Uiso   1.00
H265   H     0.24118   0.77135   0.73769   0.00000  Uiso   1.00
H266   H     0.23101   0.45718   0.44367   0.00000  Uiso   1.00
H267   H     0.90239   0.82075   0.41510   0.00000  Uiso   1.00
O268   O     0.20776   0.75492   0.86162   0.00000  Uiso   1.00
O269   O     0.19441   0.34274   0.47587   0.00000  Uiso   1.00
O270   O     0.76327   0.81973   0.43838   0.00000  Uiso   1.00
N271   N     0.12636   0.69802   0.81630   0.00000  Uiso   1.00
N272   N     0.11686   0.40428   0.54142   0.00000  Uiso   1.00
N273   N     0.80963   0.74418   0.51469   0.00000  Uiso   1.00
N274   N     0.20139   0.74532   0.75194   0.00000  Uiso   1.00
N275   N     0.19190   0.45158   0.47706   0.00000  Uiso   1.00
N276   N     0.88466   0.79148   0.45033   0.00000  Uiso   1.00
C277   C     0.82584   0.46284   0.82466   0.00000  Uiso   1.00
C278   C     0.77253   0.42254   0.79976   0.00000  Uiso   1.00
C279   C     0.78045   0.39172   0.74336   0.00000  Uiso   1.00
C280   C     0.72568   0.35720   0.72905   0.00000  Uiso   1.00
C281   C     0.65212   0.29513   0.68421   0.00000  Uiso   1.00
C282   C     0.84356   0.43458   0.89142   0.00000  Uiso   1.00
C283   C     0.91121   0.41389   0.91208   0.00000  Uiso   1.00
C284   C     0.91624   0.38952   0.97493   0.00000  Uiso   1.00
C285   C     0.95296   0.34619   0.07241   0.00000  Uiso   1.00
C286   C     0.78514   0.52696   0.83412   0.00000  Uiso   1.00
C287   C     0.80367   0.58394   0.80663   0.00000  Uiso   1.00
C288   C     0.75951   0.63735   0.82125   0.00000  Uiso   1.00
C289   C     0.70552   0.73744   0.82977   0.00000  Uiso   1.00
C290   C     0.71450   0.45636   0.89953   0.00000  Uiso   1.00
C291   C     0.71206   0.41901   0.84042   0.00000  Uiso   1.00
C292   C     0.65726   0.38454   0.82619   0.00000  Uiso   1.00
C293   C     0.66510   0.35367   0.76978   0.00000  Uiso   1.00
C294   C     0.78309   0.43106   0.93208   0.00000  Uiso   1.00
C295   C     0.78803   0.40672   0.99492   0.00000  Uiso   1.00
C296   C     0.85566   0.38599   0.01567   0.00000  Uiso   1.00
C297   C     0.72466   0.52343   0.87479   0.00000  Uiso   1.00
C298   C     0.68048   0.57676   0.88946   0.00000  Uiso   1.00
C299   C     0.69893   0.63382   0.86199   0.00000  Uiso   1.00
H300   H     0.87293   0.46559   0.79301   0.00000  Uiso   1.00
H301   H     0.82726   0.39445   0.71190   0.00000  Uiso   1.00
H302   H     0.95800   0.41663   0.88061   0.00000  Uiso   1.00
H303   H     0.85047   0.58665   0.77516   0.00000  Uiso   1.00
H304   H     0.74997   0.31401   0.63994   0.00000  Uiso   1.00
H305   H     0.02565   0.36080   0.99566   0.00000  Uiso   1.00
H306   H     0.79890   0.71933   0.77331   0.00000  Uiso   1.00
H307   H     0.66742   0.45361   0.93119   0.00000  Uiso   1.00
H308   H     0.61047   0.38182   0.85767   0.00000  Uiso   1.00
H309   H     0.74121   0.40400   0.02637   0.00000  Uiso   1.00
H310   H     0.63368   0.57402   0.92093   0.00000  Uiso   1.00
H311   H     0.57402   0.30376   0.75825   0.00000  Uiso   1.00
H312   H     0.84970   0.35055   0.11397   0.00000  Uiso   1.00
H313   H     0.62294   0.70907   0.89162   0.00000  Uiso   1.00
O314   O     0.62825   0.26186   0.64824   0.00000  Uiso   1.00
O315   O     0.98993   0.32326   0.11494   0.00000  Uiso   1.00
O316   O     0.69244   0.79363   0.82323   0.00000  Uiso   1.00
N317   N     0.71637   0.32146   0.67786   0.00000  Uiso   1.00
N318   N     0.97411   0.36520   0.01044   0.00000  Uiso   1.00
N319   N     0.76213   0.70039   0.80258   0.00000  Uiso   1.00
N320   N     0.62169   0.31595   0.74152   0.00000  Uiso   1.00
N321   N     0.87943   0.35968   0.07410   0.00000  Uiso   1.00
N322   N     0.66745   0.69487   0.86624   0.00000  Uiso   1.00
C323   C     0.81273   0.00273   0.28428   0.00000  Uiso   1.00
C324   C     0.81008   0.96000   0.22935   0.00000  Uiso   1.00
C325   C     0.75429   0.92547   0.21806   0.00000  Uiso   1.00
C326   C     0.76210   0.88924   0.16527   0.00000  Uiso   1.00
C327   C     0.74863   0.82315   0.08604   0.00000  Uiso   1.00
C328   C     0.82558   0.06718   0.25341   0.00000  Uiso   1.00
C329   C     0.78283   0.12277   0.26234   0.00000  Uiso   1.00
C330   C     0.80370   0.17677   0.22981   0.00000  Uiso   1.00
C331   C     0.81433   0.27708   0.18797   0.00000  Uiso   1.00
C332   C     0.88001   0.97900   0.31960   0.00000  Uiso   1.00
C333   C     0.88302   0.96047   0.38420   0.00000  Uiso   1.00
C334   C     0.94972   0.94023   0.40740   0.00000  Uiso   1.00
C335   C     0.04485   0.90364   0.46833   0.00000  Uiso   1.00
C336   C     0.92582   0.99977   0.21062   0.00000  Uiso   1.00
C337   C     0.87151   0.95839   0.18934   0.00000  Uiso   1.00
C338   C     0.87941   0.92220   0.13656   0.00000  Uiso   1.00
C339   C     0.82364   0.88762   0.12518   0.00000  Uiso   1.00
C340   C     0.88701   0.06557   0.21340   0.00000  Uiso   1.00
C341   C     0.90795   0.11949   0.18084   0.00000  Uiso   1.00
C342   C     0.86524   0.17515   0.18972   0.00000  Uiso   1.00
C343   C     0.94144   0.97739   0.27959   0.00000  Uiso   1.00
C344   C     0.00815   0.95718   0.30270   0.00000  Uiso   1.00
C345   C     0.01125   0.93862   0.36731   0.00000  Uiso   1.00
H346   H     0.76490   0.00399   0.31543   0.00000  Uiso   1.00
H347   H     0.70675   0.92674   0.24903   0.00000  Uiso   1.00
H348   H     0.73530   0.12400   0.29331   0.00000  Uiso   1.00
H349   H     0.83547   0.96172   0.41515   0.00000  Uiso   1.00
H350   H     0.66936   0.84040   0.15775   0.00000  Uiso   1.00
H351   H     0.72956   0.25635   0.25114   0.00000  Uiso   1.00
H352   H     0.94080   0.91414   0.50806   0.00000  Uiso   1.00
H353   H     0.97365   0.99852   0.17947   0.00000  Uiso   1.00
H354   H     0.92696   0.92096   0.10560   0.00000  Uiso   1.00
H355   H     0.95550   0.11823   0.14989   0.00000  Uiso   1.00
H356   H     0.05567   0.95595   0.27172   0.00000  Uiso   1.00
H357   H     0.84809   0.83571   0.04134   0.00000  Uiso   1.00
H358   H     0.90828   0.25167   0.13474   0.00000  Uiso   1.00
H359   H     0.11952   0.90946   0.39164   0.00000  Uiso   1.00
O360   O     0.72423   0.78715   0.05339   0.00000  Uiso   1.00
O361   O     0.80321   0.33286   0.17594   0.00000  Uiso   1.00
O362   O     0.08035   0.88389   0.51299   0.00000  Uiso   1.00
N363   N     0.71784   0.84993   0.14050   0.00000  Uiso   1.00
N364   N     0.77411   0.23882   0.22781   0.00000  Uiso   1.00
N365   N     0.97161   0.91890   0.46800   0.00000  Uiso   1.00
N366   N     0.81401   0.84740   0.07786   0.00000  Uiso   1.00
N367   N     0.87028   0.23629   0.16517   0.00000  Uiso   1.00
N368   N     0.06778   0.91638   0.40536   0.00000  Uiso   1.00
C369   C     0.25640   0.06997   0.96963   0.00000  Uiso   1.00
C370   C     0.20432   0.04879   0.92405   0.00000  Uiso   1.00
C371   C     0.19742   0.98709   0.91136   0.00000  Uiso   1.00
C372   C     0.14666   0.97749   0.86818   0.00000  Uiso   1.00
C373   C     0.07221   0.93696   0.80189   0.00000  Uiso   1.00
C374   C     0.21138   0.10902   0.01763   0.00000  Uiso   1.00
C375   C     0.21043   0.09795   0.08362   0.00000  Uiso   1.00
C376   C     0.16561   0.13905   0.11922   0.00000  Uiso   1.00
C377   C     0.10216   0.19204   0.19822   0.00000  Uiso   1.00
C378   C     0.30011   0.11561   0.93015   0.00000  Uiso   1.00
C379   C     0.37376   0.11010   0.92260   0.00000  Uiso   1.00
C380   C     0.40365   0.15676   0.88456   0.00000  Uiso   1.00
C381   C     0.47796   0.21998   0.82773   0.00000  Uiso   1.00
C382   C     0.17851   0.16265   0.91551   0.00000  Uiso   1.00
C383   C     0.16201   0.09914   0.89465   0.00000  Uiso   1.00
C384   C     0.11125   0.08963   0.85148   0.00000  Uiso   1.00
C385   C     0.10428   0.02792   0.83873   0.00000  Uiso   1.00
C386   C     0.16907   0.15935   0.98823   0.00000  Uiso   1.00
C387   C     0.12425   0.20049   0.02374   0.00000  Uiso   1.00
C388   C     0.12322   0.18948   0.08977   0.00000  Uiso   1.00
C389   C     0.25780   0.16595   0.90075   0.00000  Uiso   1.00
C390   C     0.28758   0.21263   0.86272   0.00000  Uiso   1.00
C391   C     0.36126   0.20719   0.85511   0.00000  Uiso   1.00
H392   H     0.28933   0.03078   0.99253   0.00000  Uiso   1.00
H393   H     0.23017   0.94815   0.93412   0.00000  Uiso   1.00
H394   H     0.24318   0.05899   0.10636   0.00000  Uiso   1.00
H395   H     0.40648   0.07114   0.94536   0.00000  Uiso   1.00
H396   H     0.14590   0.87873   0.85643   0.00000  Uiso   1.00
H397   H     0.17334   0.11247   0.21959   0.00000  Uiso   1.00
H398   H     0.51771   0.13808   0.88009   0.00000  Uiso   1.00
H399   H     0.14557   0.20184   0.89263   0.00000  Uiso   1.00
H400   H     0.07851   0.12860   0.82874   0.00000  Uiso   1.00
H401   H     0.09152   0.23944   0.00097   0.00000  Uiso   1.00
H402   H     0.25482   0.25158   0.83997   0.00000  Uiso   1.00
H403   H     0.02281   0.02519   0.77090   0.00000  Uiso   1.00
H404   H     0.05025   0.25893   0.13406   0.00000  Uiso   1.00
H405   H     0.39462   0.28454   0.79456   0.00000  Uiso   1.00
O406   O     0.04282   0.90069   0.77346   0.00000  Uiso   1.00
O407   O     0.07884   0.20735   0.24991   0.00000  Uiso   1.00
O408   O     0.53063   0.24094   0.80449   0.00000  Uiso   1.00
N409   N     0.12614   0.92325   0.84506   0.00000  Uiso   1.00
N410   N     0.15179   0.14178   0.18459   0.00000  Uiso   1.00
N411   N     0.47375   0.16573   0.86720   0.00000  Uiso   1.00
N412   N     0.05991   0.00206   0.79903   0.00000  Uiso   1.00
N413   N     0.08556   0.22058   0.13857   0.00000  Uiso   1.00
N414   N     0.40751   0.24454   0.82118   0.00000  Uiso   1.00
C415   C     0.42174   0.50218   0.86762   0.00000  Uiso   1.00
C416   C     0.35723   0.48549   0.83367   0.00000  Uiso   1.00
C417   C     0.35269   0.43029   0.80384   0.00000  Uiso   1.00
C418   C     0.28907   0.42397   0.77548   0.00000  Uiso   1.00
C419   C     0.19758   0.39090   0.72252   0.00000  Uiso   1.00
C420   C     0.44072   0.56448   0.83554   0.00000  Uiso   1.00
C421   C     0.50637   0.57570   0.80729   0.00000  Uiso   1.00
C422   C     0.51303   0.63587   0.78052   0.00000  Uiso   1.00
C423   C     0.55118   0.72545   0.73050   0.00000  Uiso   1.00
C424   C     0.39538   0.51613   0.93549   0.00000  Uiso   1.00
C425   C     0.42292   0.48670   0.99129   0.00000  Uiso   1.00
C426   C     0.39142   0.50618   0.04867   0.00000  Uiso   1.00
C427   C     0.35917   0.52067   0.15384   0.00000  Uiso   1.00
C428   C     0.31683   0.58911   0.87032   0.00000  Uiso   1.00
C429   C     0.30025   0.53271   0.83513   0.00000  Uiso   1.00
C430   C     0.23661   0.52647   0.80682   0.00000  Uiso   1.00
C431   C     0.23198   0.47127   0.77696   0.00000  Uiso   1.00
C432   C     0.38374   0.61170   0.83700   0.00000  Uiso   1.00
C433   C     0.39030   0.67188   0.81028   0.00000  Uiso   1.00
C434   C     0.45595   0.68318   0.78199   0.00000  Uiso   1.00
C435   C     0.33839   0.56335   0.93696   0.00000  Uiso   1.00
C436   C     0.30685   0.58288   0.99427   0.00000  Uiso   1.00
C437   C     0.33434   0.55348   0.05014   0.00000  Uiso   1.00
H438   H     0.46610   0.46542   0.86647   0.00000  Uiso   1.00
H439   H     0.39680   0.39377   0.80270   0.00000  Uiso   1.00
H440   H     0.55046   0.53915   0.80616   0.00000  Uiso   1.00
H441   H     0.46702   0.45016   0.99013   0.00000  Uiso   1.00
H442   H     0.29484   0.33516   0.73263   0.00000  Uiso   1.00
H443   H     0.61885   0.64171   0.73995   0.00000  Uiso   1.00
H444   H     0.44291   0.45407   0.12788   0.00000  Uiso   1.00
H445   H     0.27246   0.62587   0.87146   0.00000  Uiso   1.00
H446   H     0.19253   0.56302   0.80797   0.00000  Uiso   1.00
H447   H     0.34619   0.70841   0.81142   0.00000  Uiso   1.00
H448   H     0.26275   0.61942   0.99539   0.00000  Uiso   1.00
H449   H     0.12905   0.47253   0.73690   0.00000  Uiso   1.00
H450   H     0.45306   0.77909   0.74422   0.00000  Uiso   1.00
H451   H     0.27711   0.59145   0.13214   0.00000  Uiso   1.00
O452   O     0.16286   0.35962   0.69289   0.00000  Uiso   1.00
O453   O     0.58796   0.76180   0.70250   0.00000  Uiso   1.00
O454   O     0.35712   0.51562   0.21145   0.00000  Uiso   1.00
N455   N     0.26679   0.37611   0.74236   0.00000  Uiso   1.00
N456   N     0.56972   0.66272   0.74919   0.00000  Uiso   1.00
N457   N     0.40523   0.48730   0.11187   0.00000  Uiso   1.00
N458   N     0.17757   0.45003   0.74466   0.00000  Uiso   1.00
N459   N     0.48050   0.73664   0.75149   0.00000  Uiso   1.00
N460   N     0.31602   0.56122   0.11417   0.00000  Uiso   1.00
C461   C     0.33696   0.98593   0.61453   0.00000  Uiso   1.00
C462   C     0.32664   0.92817   0.57872   0.00000  Uiso   1.00
C463   C     0.26302   0.91427   0.55523   0.00000  Uiso   1.00
C464   C     0.26463   0.85914   0.52385   0.00000  Uiso   1.00
C465   C     0.23902   0.77548   0.46942   0.00000  Uiso   1.00
C466   C     0.36832   0.96121   0.67818   0.00000  Uiso   1.00
C467   C     0.33974   0.97511   0.73832   0.00000  Uiso   1.00
C468   C     0.37645   0.94779   0.79067   0.00000  Uiso   1.00
C469   C     0.41557   0.91547   0.89067   0.00000  Uiso   1.00
C470   C     0.39541   0.01824   0.57712   0.00000  Uiso   1.00
C471   C     0.38962   0.08010   0.55231   0.00000  Uiso   1.00
C472   C     0.44915   0.10081   0.51958   0.00000  Uiso   1.00
C473   C     0.53033   0.15704   0.46267   0.00000  Uiso   1.00
C474   C     0.45297   0.91272   0.60057   0.00000  Uiso   1.00
C475   C     0.38966   0.88840   0.57114   0.00000  Uiso   1.00
C476   C     0.39137   0.83327   0.53978   0.00000  Uiso   1.00
C477   C     0.32776   0.81930   0.51625   0.00000  Uiso   1.00
C478   C     0.43133   0.92144   0.67060   0.00000  Uiso   1.00
C479   C     0.46809   0.89410   0.72288   0.00000  Uiso   1.00
C480   C     0.43957   0.90795   0.78308   0.00000  Uiso   1.00
C481   C     0.45842   0.97848   0.56954   0.00000  Uiso   1.00
C482   C     0.51797   0.99910   0.53686   0.00000  Uiso   1.00
C483   C     0.51227   0.06097   0.51199   0.00000  Uiso   1.00
H484   H     0.28791   0.01689   0.62044   0.00000  Uiso   1.00
H485   H     0.21427   0.94506   0.56111   0.00000  Uiso   1.00
H486   H     0.29099   0.00589   0.74418   0.00000  Uiso   1.00
H487   H     0.34086   0.11086   0.55818   0.00000  Uiso   1.00
H488   H     0.16041   0.84787   0.49201   0.00000  Uiso   1.00
H489   H     0.32218   0.97615   0.87802   0.00000  Uiso   1.00
H490   H     0.42734   0.19751   0.48582   0.00000  Uiso   1.00
H491   H     0.50203   0.88176   0.59467   0.00000  Uiso   1.00
H492   H     0.44013   0.80251   0.53392   0.00000  Uiso   1.00
H493   H     0.51685   0.86333   0.71699   0.00000  Uiso   1.00
H494   H     0.56672   0.96831   0.53100   0.00000  Uiso   1.00
H495   H     0.34373   0.73216   0.46995   0.00000  Uiso   1.00
H496   H     0.50550   0.86044   0.85596   0.00000  Uiso   1.00
H497   H     0.61066   0.08181   0.46375   0.00000  Uiso   1.00
O498   O     0.20749   0.74031   0.44151   0.00000  Uiso   1.00
O499   O     0.41973   0.90862   0.94793   0.00000  Uiso   1.00
O500   O     0.55770   0.19904   0.43337   0.00000  Uiso   1.00
N501   N     0.21205   0.83152   0.49514   0.00000  Uiso   1.00
N502   N     0.36329   0.95144   0.85604   0.00000  Uiso   1.00
N503   N     0.46162   0.15841   0.48938   0.00000  Uiso   1.00
N504   N     0.31069   0.76926   0.48327   0.00000  Uiso   1.00
N505   N     0.46193   0.88919   0.84416   0.00000  Uiso   1.00
N506   N     0.56026   0.09615   0.47750   0.00000  Uiso   1.00
C507   C     0.78198   0.56741   0.34140   0.00000  Uiso   1.00
C508   C     0.74071   0.54326   0.28893   0.00000  Uiso   1.00
C509   C     0.75155   0.55601   0.22367   0.00000  Uiso   1.00
C510   C     0.70827   0.52949   0.18346   0.00000  Uiso   1.00
C511   C     0.65211   0.49777   0.09830   0.00000  Uiso   1.00
C512   C     0.72653   0.60178   0.38512   0.00000  Uiso   1.00
C513   C     0.72545   0.66374   0.40073   0.00000  Uiso   1.00
C514   C     0.67023   0.68648   0.44150   0.00000  Uiso   1.00
C515   C     0.59208   0.74562   0.50571   0.00000  Uiso   1.00
C516   C     0.81280   0.50937   0.38076   0.00000  Uiso   1.00
C517   C     0.88426   0.49364   0.39272   0.00000  Uiso   1.00
C518   C     0.90167   0.43858   0.42983   0.00000  Uiso   1.00
C519   C     0.95748   0.35424   0.48727   0.00000  Uiso   1.00
C520   C     0.68583   0.49762   0.38606   0.00000  Uiso   1.00
C521   C     0.68849   0.50535   0.31319   0.00000  Uiso   1.00
C522   C     0.64517   0.47880   0.27307   0.00000  Uiso   1.00
C523   C     0.65595   0.49151   0.20776   0.00000  Uiso   1.00
C524   C     0.67430   0.56388   0.40937   0.00000  Uiso   1.00
C525   C     0.61907   0.58653   0.45013   0.00000  Uiso   1.00
C526   C     0.61791   0.64851   0.46580   0.00000  Uiso   1.00
C527   C     0.76058   0.47146   0.40501   0.00000  Uiso   1.00
C528   C     0.77788   0.41643   0.44212   0.00000  Uiso   1.00
C529   C     0.84935   0.40061   0.45413   0.00000  Uiso   1.00
H530   H     0.82264   0.59692   0.32252   0.00000  Uiso   1.00
H531   H     0.79197   0.58535   0.20492   0.00000  Uiso   1.00
H532   H     0.76588   0.69306   0.38196   0.00000  Uiso   1.00
H533   H     0.92466   0.52299   0.37394   0.00000  Uiso   1.00
H534   H     0.73492   0.55583   0.08522   0.00000  Uiso   1.00
H535   H     0.67991   0.78293   0.45854   0.00000  Uiso   1.00
H536   H     0.01475   0.42429   0.44165   0.00000  Uiso   1.00
H537   H     0.64517   0.46811   0.40494   0.00000  Uiso   1.00
H538   H     0.60476   0.44947   0.29185   0.00000  Uiso   1.00
H539   H     0.57867   0.55718   0.46889   0.00000  Uiso   1.00
H540   H     0.73745   0.38710   0.46088   0.00000  Uiso   1.00
H541   H     0.58298   0.44554   0.15579   0.00000  Uiso   1.00
H542   H     0.52797   0.67265   0.52911   0.00000  Uiso   1.00
H543   H     0.86280   0.31401   0.51221   0.00000  Uiso   1.00
O544   O     0.63556   0.49076   0.04463   0.00000  Uiso   1.00
O545   O     0.56340   0.78871   0.53441   0.00000  Uiso   1.00
O546   O     0.00269   0.31819   0.51224   0.00000  Uiso   1.00
N547   N     0.70472   0.53242   0.11735   0.00000  Uiso   1.00
N548   N     0.65328   0.74475   0.46637   0.00000  Uiso   1.00
N549   N     0.96632   0.40946   0.45059   0.00000  Uiso   1.00
N550   N     0.62296   0.47307   0.15532   0.00000  Uiso   1.00
N551   N     0.57152   0.68541   0.50434   0.00000  Uiso   1.00
N552   N     0.88456   0.35012   0.48856   0.00000  Uiso   1.00
