data_job_02441
_audit_creation_date              2018-12-19
_audit_creation_method            'Materials Studio'
_symmetry_space_group_name_H-M    'P1'
_symmetry_Int_Tables_number       1
_symmetry_cell_setting            triclinic
loop_
_symmetry_equiv_pos_as_xyz
  x,y,z
_cell_length_a                    27.1074
_cell_length_b                    8.3747
_cell_length_c                    40.0475
_cell_angle_alpha                 90.0000
_cell_angle_beta                  132.0632
_cell_angle_gamma                 90.0000
loop_
_atom_site_label
_atom_site_type_symbol
_atom_site_fract_x
_atom_site_fract_y
_atom_site_fract_z
_atom_site_U_iso_or_equiv
_atom_site_adp_type
_atom_site_occupancy
C1     C     0.04965   0.93652   0.67651   0.00000  Uiso   1.00
C2     C     0.99987   0.07282   0.65049   0.00000  Uiso   1.00
C3     C     0.93552   0.05938   0.60918   0.00000  Uiso   1.00
C4     C     0.89783   0.19813   0.59092   0.00000  Uiso   1.00
C5     C     0.81663   0.38744   0.54712   0.00000  Uiso   1.00
C6     C     0.11089   0.98705   0.68450   0.00000  Uiso   1.00
C7     C     0.13988   0.90149   0.67179   0.00000  Uiso   1.00
C8     C     0.19566   0.96804   0.68216   0.00000  Uiso   1.00
C9     C     0.28684   0.02415   0.69119   0.00000  Uiso   1.00
C10    C     0.07075   0.93494   0.72264   0.00000  Uiso   1.00
C11    C     0.06601   0.80555   0.74201   0.00000  Uiso   1.00
C12    C     0.08801   0.82821   0.78450   0.00000  Uiso   1.00
C13    C     0.11686   0.80340   0.85276   0.00000  Uiso   1.00
C14    C     0.09716   0.20683   0.71753   0.00000  Uiso   1.00
C15    C     0.02568   0.21964   0.67277   0.00000  Uiso   1.00
C16    C     0.98809   0.35845   0.65457   0.00000  Uiso   1.00
C17    C     0.92369   0.34522   0.61324   0.00000  Uiso   1.00
C18    C     0.13670   0.13387   0.70678   0.00000  Uiso   1.00
C19    C     0.19245   0.20056   0.71718   0.00000  Uiso   1.00
C20    C     0.22151   0.11513   0.70448   0.00000  Uiso   1.00
C21    C     0.09656   0.08176   0.74493   0.00000  Uiso   1.00
C22    C     0.11857   0.10462   0.78740   0.00000  Uiso   1.00
C23    C     0.11386   0.97530   0.80683   0.00000  Uiso   1.00
H24    H     0.02956   0.82222   0.65916   0.00000  Uiso   1.00
H25    H     0.91557   0.94574   0.59195   0.00000  Uiso   1.00
H26    H     0.11990   0.78787   0.65455   0.00000  Uiso   1.00
H27    H     0.04603   0.69195   0.72476   0.00000  Uiso   1.00
H28    H     0.80057   0.14744   0.52725   0.00000  Uiso   1.00
H29    H     0.23144   0.81454   0.65926   0.00000  Uiso   1.00
H30    H     0.07568   0.61227   0.80731   0.00000  Uiso   1.00
H31    H     0.11726   0.32114   0.73488   0.00000  Uiso   1.00
H32    H     0.00807   0.47205   0.67182   0.00000  Uiso   1.00
H33    H     0.21241   0.31418   0.73442   0.00000  Uiso   1.00
H34    H     0.13854   0.21826   0.80463   0.00000  Uiso   1.00
H35    H     0.87565   0.57462   0.59207   0.00000  Uiso   1.00
H36    H     0.30652   0.24171   0.72409   0.00000  Uiso   1.00
H37    H     0.15076   0.03944   0.87214   0.00000  Uiso   1.00
O38    O     0.76471   0.45131   0.51680   0.00000  Uiso   1.00
O39    O     0.33000   0.01454   0.69001   0.00000  Uiso   1.00
O40    O     0.12564   0.74916   0.88425   0.00000  Uiso   1.00
N41    N     0.83322   0.22726   0.55116   0.00000  Uiso   1.00
N42    N     0.23605   0.91603   0.67458   0.00000  Uiso   1.00
N43    N     0.09044   0.72691   0.81300   0.00000  Uiso   1.00
N44    N     0.87362   0.45712   0.58604   0.00000  Uiso   1.00
N45    N     0.27645   0.14589   0.70947   0.00000  Uiso   1.00
N46    N     0.13084   0.95677   0.84789   0.00000  Uiso   1.00
C47    C     0.54965   0.43652   0.67651   0.00000  Uiso   1.00
C48    C     0.49987   0.57282   0.65049   0.00000  Uiso   1.00
C49    C     0.43552   0.55938   0.60918   0.00000  Uiso   1.00
C50    C     0.39783   0.69813   0.59092   0.00000  Uiso   1.00
C51    C     0.31663   0.88744   0.54712   0.00000  Uiso   1.00
C52    C     0.61089   0.48705   0.68450   0.00000  Uiso   1.00
C53    C     0.63988   0.40149   0.67179   0.00000  Uiso   1.00
C54    C     0.69566   0.46804   0.68216   0.00000  Uiso   1.00
C55    C     0.78684   0.52415   0.69119   0.00000  Uiso   1.00
C56    C     0.57075   0.43494   0.72264   0.00000  Uiso   1.00
C57    C     0.56601   0.30555   0.74201   0.00000  Uiso   1.00
C58    C     0.58801   0.32821   0.78450   0.00000  Uiso   1.00
C59    C     0.61686   0.30340   0.85276   0.00000  Uiso   1.00
C60    C     0.59716   0.70683   0.71753   0.00000  Uiso   1.00
C61    C     0.52568   0.71964   0.67277   0.00000  Uiso   1.00
C62    C     0.48809   0.85845   0.65457   0.00000  Uiso   1.00
C63    C     0.42369   0.84522   0.61324   0.00000  Uiso   1.00
C64    C     0.63670   0.63387   0.70678   0.00000  Uiso   1.00
C65    C     0.69245   0.70056   0.71718   0.00000  Uiso   1.00
C66    C     0.72151   0.61513   0.70448   0.00000  Uiso   1.00
C67    C     0.59656   0.58176   0.74493   0.00000  Uiso   1.00
C68    C     0.61857   0.60462   0.78740   0.00000  Uiso   1.00
C69    C     0.61386   0.47530   0.80683   0.00000  Uiso   1.00
H70    H     0.52956   0.32222   0.65916   0.00000  Uiso   1.00
H71    H     0.41557   0.44574   0.59195   0.00000  Uiso   1.00
H72    H     0.61990   0.28787   0.65455   0.00000  Uiso   1.00
H73    H     0.54603   0.19195   0.72476   0.00000  Uiso   1.00
H74    H     0.30057   0.64744   0.52725   0.00000  Uiso   1.00
H75    H     0.73144   0.31454   0.65926   0.00000  Uiso   1.00
H76    H     0.57568   0.11227   0.80731   0.00000  Uiso   1.00
H77    H     0.61726   0.82114   0.73488   0.00000  Uiso   1.00
H78    H     0.50807   0.97205   0.67182   0.00000  Uiso   1.00
H79    H     0.71241   0.81418   0.73442   0.00000  Uiso   1.00
H80    H     0.63854   0.71826   0.80463   0.00000  Uiso   1.00
H81    H     0.37565   0.07462   0.59207   0.00000  Uiso   1.00
H82    H     0.80652   0.74171   0.72409   0.00000  Uiso   1.00
H83    H     0.65076   0.53944   0.87214   0.00000  Uiso   1.00
O84    O     0.26471   0.95131   0.51680   0.00000  Uiso   1.00
O85    O     0.83000   0.51454   0.69001   0.00000  Uiso   1.00
O86    O     0.62564   0.24916   0.88425   0.00000  Uiso   1.00
N87    N     0.33322   0.72726   0.55116   0.00000  Uiso   1.00
N88    N     0.73605   0.41603   0.67458   0.00000  Uiso   1.00
N89    N     0.59044   0.22691   0.81300   0.00000  Uiso   1.00
N90    N     0.37362   0.95712   0.58604   0.00000  Uiso   1.00
N91    N     0.77645   0.64589   0.70947   0.00000  Uiso   1.00
N92    N     0.63084   0.45677   0.84789   0.00000  Uiso   1.00
C93    C     0.95035   0.93652   0.82349   0.00000  Uiso   1.00
C94    C     0.00013   0.07282   0.84951   0.00000  Uiso   1.00
C95    C     0.06448   0.05938   0.89082   0.00000  Uiso   1.00
C96    C     0.10217   0.19813   0.90908   0.00000  Uiso   1.00
C97    C     0.18337   0.38744   0.95288   0.00000  Uiso   1.00
C98    C     0.88911   0.98705   0.81550   0.00000  Uiso   1.00
C99    C     0.86012   0.90149   0.82821   0.00000  Uiso   1.00
C100   C     0.80434   0.96804   0.81784   0.00000  Uiso   1.00
C101   C     0.71316   0.02415   0.80881   0.00000  Uiso   1.00
C102   C     0.92925   0.93494   0.77736   0.00000  Uiso   1.00
C103   C     0.93399   0.80555   0.75799   0.00000  Uiso   1.00
C104   C     0.91199   0.82821   0.71550   0.00000  Uiso   1.00
C105   C     0.88314   0.80340   0.64724   0.00000  Uiso   1.00
C106   C     0.90284   0.20683   0.78247   0.00000  Uiso   1.00
C107   C     0.97432   0.21964   0.82723   0.00000  Uiso   1.00
C108   C     0.01191   0.35845   0.84543   0.00000  Uiso   1.00
C109   C     0.07631   0.34522   0.88676   0.00000  Uiso   1.00
C110   C     0.86330   0.13387   0.79322   0.00000  Uiso   1.00
C111   C     0.80755   0.20056   0.78282   0.00000  Uiso   1.00
C112   C     0.77849   0.11513   0.79552   0.00000  Uiso   1.00
C113   C     0.90344   0.08176   0.75507   0.00000  Uiso   1.00
C114   C     0.88143   0.10462   0.71260   0.00000  Uiso   1.00
C115   C     0.88614   0.97530   0.69317   0.00000  Uiso   1.00
H116   H     0.97044   0.82222   0.84084   0.00000  Uiso   1.00
H117   H     0.08443   0.94574   0.90805   0.00000  Uiso   1.00
H118   H     0.88010   0.78787   0.84545   0.00000  Uiso   1.00
H119   H     0.95397   0.69195   0.77524   0.00000  Uiso   1.00
H120   H     0.19943   0.14744   0.97275   0.00000  Uiso   1.00
H121   H     0.76856   0.81454   0.84074   0.00000  Uiso   1.00
H122   H     0.92432   0.61227   0.69269   0.00000  Uiso   1.00
H123   H     0.88274   0.32114   0.76512   0.00000  Uiso   1.00
H124   H     0.99193   0.47205   0.82818   0.00000  Uiso   1.00
H125   H     0.78759   0.31418   0.76558   0.00000  Uiso   1.00
H126   H     0.86146   0.21826   0.69537   0.00000  Uiso   1.00
H127   H     0.12435   0.57462   0.90793   0.00000  Uiso   1.00
H128   H     0.69348   0.24171   0.77591   0.00000  Uiso   1.00
H129   H     0.84924   0.03944   0.62786   0.00000  Uiso   1.00
O130   O     0.23529   0.45131   0.98320   0.00000  Uiso   1.00
O131   O     0.67000   0.01454   0.80999   0.00000  Uiso   1.00
O132   O     0.87436   0.74916   0.61575   0.00000  Uiso   1.00
N133   N     0.16678   0.22726   0.94884   0.00000  Uiso   1.00
N134   N     0.76395   0.91603   0.82542   0.00000  Uiso   1.00
N135   N     0.90956   0.72691   0.68700   0.00000  Uiso   1.00
N136   N     0.12638   0.45712   0.91396   0.00000  Uiso   1.00
N137   N     0.72355   0.14589   0.79053   0.00000  Uiso   1.00
N138   N     0.86916   0.95677   0.65211   0.00000  Uiso   1.00
C139   C     0.45035   0.43652   0.82349   0.00000  Uiso   1.00
C140   C     0.50013   0.57282   0.84951   0.00000  Uiso   1.00
C141   C     0.56448   0.55938   0.89082   0.00000  Uiso   1.00
C142   C     0.60217   0.69813   0.90908   0.00000  Uiso   1.00
C143   C     0.68337   0.88744   0.95288   0.00000  Uiso   1.00
C144   C     0.38911   0.48705   0.81550   0.00000  Uiso   1.00
C145   C     0.36012   0.40149   0.82821   0.00000  Uiso   1.00
C146   C     0.30434   0.46804   0.81784   0.00000  Uiso   1.00
C147   C     0.21316   0.52415   0.80881   0.00000  Uiso   1.00
C148   C     0.42925   0.43494   0.77736   0.00000  Uiso   1.00
C149   C     0.43399   0.30555   0.75799   0.00000  Uiso   1.00
C150   C     0.41199   0.32821   0.71550   0.00000  Uiso   1.00
C151   C     0.38314   0.30340   0.64724   0.00000  Uiso   1.00
C152   C     0.40284   0.70683   0.78247   0.00000  Uiso   1.00
C153   C     0.47432   0.71964   0.82723   0.00000  Uiso   1.00
C154   C     0.51191   0.85845   0.84543   0.00000  Uiso   1.00
C155   C     0.57631   0.84522   0.88676   0.00000  Uiso   1.00
C156   C     0.36330   0.63387   0.79322   0.00000  Uiso   1.00
C157   C     0.30755   0.70056   0.78282   0.00000  Uiso   1.00
C158   C     0.27849   0.61513   0.79552   0.00000  Uiso   1.00
C159   C     0.40344   0.58176   0.75507   0.00000  Uiso   1.00
C160   C     0.38143   0.60462   0.71260   0.00000  Uiso   1.00
C161   C     0.38614   0.47530   0.69317   0.00000  Uiso   1.00
H162   H     0.47044   0.32222   0.84084   0.00000  Uiso   1.00
H163   H     0.58443   0.44574   0.90805   0.00000  Uiso   1.00
H164   H     0.38010   0.28787   0.84545   0.00000  Uiso   1.00
H165   H     0.45397   0.19195   0.77524   0.00000  Uiso   1.00
H166   H     0.69943   0.64744   0.97275   0.00000  Uiso   1.00
H167   H     0.26856   0.31454   0.84074   0.00000  Uiso   1.00
H168   H     0.42432   0.11227   0.69269   0.00000  Uiso   1.00
H169   H     0.38274   0.82114   0.76512   0.00000  Uiso   1.00
H170   H     0.49193   0.97205   0.82818   0.00000  Uiso   1.00
H171   H     0.28759   0.81418   0.76558   0.00000  Uiso   1.00
H172   H     0.36146   0.71826   0.69537   0.00000  Uiso   1.00
H173   H     0.62435   0.07462   0.90793   0.00000  Uiso   1.00
H174   H     0.19348   0.74171   0.77591   0.00000  Uiso   1.00
H175   H     0.34924   0.53944   0.62786   0.00000  Uiso   1.00
O176   O     0.73529   0.95131   0.98320   0.00000  Uiso   1.00
O177   O     0.17000   0.51454   0.80999   0.00000  Uiso   1.00
O178   O     0.37436   0.24916   0.61575   0.00000  Uiso   1.00
N179   N     0.66678   0.72726   0.94884   0.00000  Uiso   1.00
N180   N     0.26395   0.41603   0.82542   0.00000  Uiso   1.00
N181   N     0.40956   0.22691   0.68700   0.00000  Uiso   1.00
N182   N     0.62638   0.95712   0.91396   0.00000  Uiso   1.00
N183   N     0.22355   0.64589   0.79053   0.00000  Uiso   1.00
N184   N     0.36916   0.45677   0.65211   0.00000  Uiso   1.00
C185   C     0.95035   0.06348   0.32349   0.00000  Uiso   1.00
C186   C     0.00013   0.92718   0.34951   0.00000  Uiso   1.00
C187   C     0.06448   0.94062   0.39082   0.00000  Uiso   1.00
C188   C     0.10217   0.80187   0.40908   0.00000  Uiso   1.00
C189   C     0.18337   0.61256   0.45288   0.00000  Uiso   1.00
C190   C     0.88911   0.01295   0.31550   0.00000  Uiso   1.00
C191   C     0.86012   0.09851   0.32821   0.00000  Uiso   1.00
C192   C     0.80434   0.03196   0.31784   0.00000  Uiso   1.00
C193   C     0.71316   0.97585   0.30881   0.00000  Uiso   1.00
C194   C     0.92925   0.06506   0.27736   0.00000  Uiso   1.00
C195   C     0.93399   0.19445   0.25799   0.00000  Uiso   1.00
C196   C     0.91199   0.17179   0.21550   0.00000  Uiso   1.00
C197   C     0.88314   0.19660   0.14724   0.00000  Uiso   1.00
C198   C     0.90284   0.79317   0.28247   0.00000  Uiso   1.00
C199   C     0.97432   0.78036   0.32723   0.00000  Uiso   1.00
C200   C     0.01191   0.64155   0.34543   0.00000  Uiso   1.00
C201   C     0.07631   0.65478   0.38676   0.00000  Uiso   1.00
C202   C     0.86330   0.86613   0.29322   0.00000  Uiso   1.00
C203   C     0.80755   0.79944   0.28282   0.00000  Uiso   1.00
C204   C     0.77849   0.88487   0.29552   0.00000  Uiso   1.00
C205   C     0.90344   0.91824   0.25507   0.00000  Uiso   1.00
C206   C     0.88143   0.89538   0.21260   0.00000  Uiso   1.00
C207   C     0.88614   0.02470   0.19317   0.00000  Uiso   1.00
H208   H     0.97044   0.17778   0.34084   0.00000  Uiso   1.00
H209   H     0.08443   0.05426   0.40805   0.00000  Uiso   1.00
H210   H     0.88010   0.21213   0.34545   0.00000  Uiso   1.00
H211   H     0.95397   0.30805   0.27524   0.00000  Uiso   1.00
H212   H     0.19943   0.85256   0.47275   0.00000  Uiso   1.00
H213   H     0.76856   0.18546   0.34074   0.00000  Uiso   1.00
H214   H     0.92432   0.38773   0.19269   0.00000  Uiso   1.00
H215   H     0.88274   0.67886   0.26512   0.00000  Uiso   1.00
H216   H     0.99193   0.52795   0.32818   0.00000  Uiso   1.00
H217   H     0.78759   0.68582   0.26558   0.00000  Uiso   1.00
H218   H     0.86146   0.78174   0.19537   0.00000  Uiso   1.00
H219   H     0.12435   0.42538   0.40793   0.00000  Uiso   1.00
H220   H     0.69348   0.75829   0.27591   0.00000  Uiso   1.00
H221   H     0.84924   0.96056   0.12786   0.00000  Uiso   1.00
O222   O     0.23529   0.54869   0.48320   0.00000  Uiso   1.00
O223   O     0.67000   0.98546   0.30999   0.00000  Uiso   1.00
O224   O     0.87436   0.25084   0.11575   0.00000  Uiso   1.00
N225   N     0.16678   0.77274   0.44884   0.00000  Uiso   1.00
N226   N     0.76395   0.08397   0.32542   0.00000  Uiso   1.00
N227   N     0.90956   0.27309   0.18700   0.00000  Uiso   1.00
N228   N     0.12638   0.54288   0.41396   0.00000  Uiso   1.00
N229   N     0.72355   0.85411   0.29053   0.00000  Uiso   1.00
N230   N     0.86916   0.04323   0.15211   0.00000  Uiso   1.00
C231   C     0.45035   0.56348   0.32349   0.00000  Uiso   1.00
C232   C     0.50013   0.42718   0.34951   0.00000  Uiso   1.00
C233   C     0.56448   0.44062   0.39082   0.00000  Uiso   1.00
C234   C     0.60217   0.30187   0.40908   0.00000  Uiso   1.00
C235   C     0.68337   0.11256   0.45288   0.00000  Uiso   1.00
C236   C     0.38911   0.51295   0.31550   0.00000  Uiso   1.00
C237   C     0.36012   0.59851   0.32821   0.00000  Uiso   1.00
C238   C     0.30434   0.53196   0.31784   0.00000  Uiso   1.00
C239   C     0.21316   0.47585   0.30881   0.00000  Uiso   1.00
C240   C     0.42925   0.56506   0.27736   0.00000  Uiso   1.00
C241   C     0.43399   0.69445   0.25799   0.00000  Uiso   1.00
C242   C     0.41199   0.67179   0.21550   0.00000  Uiso   1.00
C243   C     0.38314   0.69660   0.14724   0.00000  Uiso   1.00
C244   C     0.40284   0.29317   0.28247   0.00000  Uiso   1.00
C245   C     0.47432   0.28036   0.32723   0.00000  Uiso   1.00
C246   C     0.51191   0.14155   0.34543   0.00000  Uiso   1.00
C247   C     0.57631   0.15478   0.38676   0.00000  Uiso   1.00
C248   C     0.36330   0.36613   0.29322   0.00000  Uiso   1.00
C249   C     0.30755   0.29944   0.28282   0.00000  Uiso   1.00
C250   C     0.27849   0.38487   0.29552   0.00000  Uiso   1.00
C251   C     0.40344   0.41824   0.25507   0.00000  Uiso   1.00
C252   C     0.38143   0.39538   0.21260   0.00000  Uiso   1.00
C253   C     0.38614   0.52470   0.19317   0.00000  Uiso   1.00
H254   H     0.47044   0.67778   0.34084   0.00000  Uiso   1.00
H255   H     0.58443   0.55426   0.40805   0.00000  Uiso   1.00
H256   H     0.38010   0.71213   0.34545   0.00000  Uiso   1.00
H257   H     0.45397   0.80805   0.27524   0.00000  Uiso   1.00
H258   H     0.69943   0.35256   0.47275   0.00000  Uiso   1.00
H259   H     0.26856   0.68546   0.34074   0.00000  Uiso   1.00
H260   H     0.42432   0.88773   0.19269   0.00000  Uiso   1.00
H261   H     0.38274   0.17886   0.26512   0.00000  Uiso   1.00
H262   H     0.49193   0.02795   0.32818   0.00000  Uiso   1.00
H263   H     0.28759   0.18582   0.26558   0.00000  Uiso   1.00
H264   H     0.36146   0.28174   0.19537   0.00000  Uiso   1.00
H265   H     0.62435   0.92538   0.40793   0.00000  Uiso   1.00
H266   H     0.19348   0.25829   0.27591   0.00000  Uiso   1.00
H267   H     0.34924   0.46056   0.12786   0.00000  Uiso   1.00
O268   O     0.73529   0.04869   0.48320   0.00000  Uiso   1.00
O269   O     0.17000   0.48546   0.30999   0.00000  Uiso   1.00
O270   O     0.37436   0.75084   0.11575   0.00000  Uiso   1.00
N271   N     0.66678   0.27274   0.44884   0.00000  Uiso   1.00
N272   N     0.26395   0.58397   0.32542   0.00000  Uiso   1.00
N273   N     0.40956   0.77309   0.18700   0.00000  Uiso   1.00
N274   N     0.62638   0.04288   0.41396   0.00000  Uiso   1.00
N275   N     0.22355   0.35411   0.29053   0.00000  Uiso   1.00
N276   N     0.36916   0.54323   0.15211   0.00000  Uiso   1.00
C277   C     0.04965   0.06348   0.17651   0.00000  Uiso   1.00
C278   C     0.99987   0.92718   0.15049   0.00000  Uiso   1.00
C279   C     0.93552   0.94062   0.10918   0.00000  Uiso   1.00
C280   C     0.89783   0.80187   0.09092   0.00000  Uiso   1.00
C281   C     0.81663   0.61256   0.04712   0.00000  Uiso   1.00
C282   C     0.11089   0.01295   0.18450   0.00000  Uiso   1.00
C283   C     0.13988   0.09851   0.17179   0.00000  Uiso   1.00
C284   C     0.19566   0.03196   0.18216   0.00000  Uiso   1.00
C285   C     0.28684   0.97585   0.19119   0.00000  Uiso   1.00
C286   C     0.07075   0.06506   0.22264   0.00000  Uiso   1.00
C287   C     0.06601   0.19445   0.24201   0.00000  Uiso   1.00
C288   C     0.08801   0.17179   0.28450   0.00000  Uiso   1.00
C289   C     0.11686   0.19660   0.35276   0.00000  Uiso   1.00
C290   C     0.09716   0.79317   0.21753   0.00000  Uiso   1.00
C291   C     0.02568   0.78036   0.17277   0.00000  Uiso   1.00
C292   C     0.98809   0.64155   0.15457   0.00000  Uiso   1.00
C293   C     0.92369   0.65478   0.11324   0.00000  Uiso   1.00
C294   C     0.13670   0.86613   0.20678   0.00000  Uiso   1.00
C295   C     0.19245   0.79944   0.21718   0.00000  Uiso   1.00
C296   C     0.22151   0.88487   0.20448   0.00000  Uiso   1.00
C297   C     0.09656   0.91824   0.24493   0.00000  Uiso   1.00
C298   C     0.11857   0.89538   0.28740   0.00000  Uiso   1.00
C299   C     0.11386   0.02470   0.30683   0.00000  Uiso   1.00
H300   H     0.02956   0.17778   0.15916   0.00000  Uiso   1.00
H301   H     0.91557   0.05426   0.09195   0.00000  Uiso   1.00
H302   H     0.11990   0.21213   0.15455   0.00000  Uiso   1.00
H303   H     0.04603   0.30805   0.22476   0.00000  Uiso   1.00
H304   H     0.80057   0.85256   0.02725   0.00000  Uiso   1.00
H305   H     0.23144   0.18546   0.15926   0.00000  Uiso   1.00
H306   H     0.07568   0.38773   0.30731   0.00000  Uiso   1.00
H307   H     0.11726   0.67886   0.23488   0.00000  Uiso   1.00
H308   H     0.00807   0.52795   0.17182   0.00000  Uiso   1.00
H309   H     0.21241   0.68582   0.23442   0.00000  Uiso   1.00
H310   H     0.13854   0.78174   0.30463   0.00000  Uiso   1.00
H311   H     0.87565   0.42538   0.09207   0.00000  Uiso   1.00
H312   H     0.30652   0.75829   0.22409   0.00000  Uiso   1.00
H313   H     0.15076   0.96056   0.37214   0.00000  Uiso   1.00
O314   O     0.76471   0.54869   0.01680   0.00000  Uiso   1.00
O315   O     0.33000   0.98546   0.19001   0.00000  Uiso   1.00
O316   O     0.12564   0.25084   0.38425   0.00000  Uiso   1.00
N317   N     0.83322   0.77274   0.05116   0.00000  Uiso   1.00
N318   N     0.23605   0.08397   0.17458   0.00000  Uiso   1.00
N319   N     0.09044   0.27309   0.31300   0.00000  Uiso   1.00
N320   N     0.87362   0.54288   0.08604   0.00000  Uiso   1.00
N321   N     0.27645   0.85411   0.20947   0.00000  Uiso   1.00
N322   N     0.13084   0.04323   0.34789   0.00000  Uiso   1.00
C323   C     0.54965   0.56348   0.17651   0.00000  Uiso   1.00
C324   C     0.49987   0.42718   0.15049   0.00000  Uiso   1.00
C325   C     0.43552   0.44062   0.10918   0.00000  Uiso   1.00
C326   C     0.39783   0.30187   0.09092   0.00000  Uiso   1.00
C327   C     0.31663   0.11256   0.04712   0.00000  Uiso   1.00
C328   C     0.61089   0.51295   0.18450   0.00000  Uiso   1.00
C329   C     0.63988   0.59851   0.17179   0.00000  Uiso   1.00
C330   C     0.69566   0.53196   0.18216   0.00000  Uiso   1.00
C331   C     0.78684   0.47585   0.19119   0.00000  Uiso   1.00
C332   C     0.57075   0.56506   0.22264   0.00000  Uiso   1.00
C333   C     0.56601   0.69445   0.24201   0.00000  Uiso   1.00
C334   C     0.58801   0.67179   0.28450   0.00000  Uiso   1.00
C335   C     0.61686   0.69660   0.35276   0.00000  Uiso   1.00
C336   C     0.59716   0.29317   0.21753   0.00000  Uiso   1.00
C337   C     0.52568   0.28036   0.17277   0.00000  Uiso   1.00
C338   C     0.48809   0.14155   0.15457   0.00000  Uiso   1.00
C339   C     0.42369   0.15478   0.11324   0.00000  Uiso   1.00
C340   C     0.63670   0.36613   0.20678   0.00000  Uiso   1.00
C341   C     0.69245   0.29944   0.21718   0.00000  Uiso   1.00
C342   C     0.72151   0.38487   0.20448   0.00000  Uiso   1.00
C343   C     0.59656   0.41824   0.24493   0.00000  Uiso   1.00
C344   C     0.61857   0.39538   0.28740   0.00000  Uiso   1.00
C345   C     0.61386   0.52470   0.30683   0.00000  Uiso   1.00
H346   H     0.52956   0.67778   0.15916   0.00000  Uiso   1.00
H347   H     0.41557   0.55426   0.09195   0.00000  Uiso   1.00
H348   H     0.61990   0.71213   0.15455   0.00000  Uiso   1.00
H349   H     0.54603   0.80805   0.22476   0.00000  Uiso   1.00
H350   H     0.30057   0.35256   0.02725   0.00000  Uiso   1.00
H351   H     0.73144   0.68546   0.15926   0.00000  Uiso   1.00
H352   H     0.57568   0.88773   0.30731   0.00000  Uiso   1.00
H353   H     0.61726   0.17886   0.23488   0.00000  Uiso   1.00
H354   H     0.50807   0.02795   0.17182   0.00000  Uiso   1.00
H355   H     0.71241   0.18582   0.23442   0.00000  Uiso   1.00
H356   H     0.63854   0.28174   0.30463   0.00000  Uiso   1.00
H357   H     0.37565   0.92538   0.09207   0.00000  Uiso   1.00
H358   H     0.80652   0.25829   0.22409   0.00000  Uiso   1.00
H359   H     0.65076   0.46056   0.37214   0.00000  Uiso   1.00
O360   O     0.26471   0.04869   0.01680   0.00000  Uiso   1.00
O361   O     0.83000   0.48546   0.19001   0.00000  Uiso   1.00
O362   O     0.62564   0.75084   0.38425   0.00000  Uiso   1.00
N363   N     0.33322   0.27274   0.05116   0.00000  Uiso   1.00
N364   N     0.73605   0.58397   0.17458   0.00000  Uiso   1.00
N365   N     0.59044   0.77309   0.31300   0.00000  Uiso   1.00
N366   N     0.37362   0.04288   0.08604   0.00000  Uiso   1.00
N367   N     0.77645   0.35411   0.20947   0.00000  Uiso   1.00
N368   N     0.63084   0.54323   0.34789   0.00000  Uiso   1.00
