data_job_06741
_audit_creation_date              2018-12-19
_audit_creation_method            'Materials Studio'
_symmetry_space_group_name_H-M    'P1'
_symmetry_Int_Tables_number       1
_symmetry_cell_setting            triclinic
loop_
_symmetry_equiv_pos_as_xyz
  x,y,z
_cell_length_a                    19.6299
_cell_length_b                    22.8054
_cell_length_c                    22.9375
_cell_angle_alpha                 77.7678
_cell_angle_beta                  113.6648
_cell_angle_gamma                 81.7180
loop_
_atom_site_label
_atom_site_type_symbol
_atom_site_fract_x
_atom_site_fract_y
_atom_site_fract_z
_atom_site_U_iso_or_equiv
_atom_site_adp_type
_atom_site_occupancy
C1     C     0.18452   0.56185   0.77601   0.00000  Uiso   1.00
C2     C     0.11153   0.53940   0.76131   0.00000  Uiso   1.00
C3     C     0.10642   0.48432   0.79704   0.00000  Uiso   1.00
C4     C     0.03443   0.47219   0.77564   0.00000  Uiso   1.00
C5     C     0.93091   0.43100   0.76118   0.00000  Uiso   1.00
C6     C     0.19398   0.57284   0.71205   0.00000  Uiso   1.00
C7     C     0.25819   0.54588   0.70638   0.00000  Uiso   1.00
C8     C     0.25561   0.56191   0.64352   0.00000  Uiso   1.00
C9     C     0.28012   0.57267   0.55261   0.00000  Uiso   1.00
C10    C     0.16666   0.62569   0.78507   0.00000  Uiso   1.00
C11    C     0.20792   0.64318   0.84078   0.00000  Uiso   1.00
C12    C     0.18235   0.70372   0.83938   0.00000  Uiso   1.00
C13    C     0.16446   0.79654   0.86184   0.00000  Uiso   1.00
C14    C     0.06576   0.63828   0.67446   0.00000  Uiso   1.00
C15    C     0.04703   0.58091   0.70615   0.00000  Uiso   1.00
C16    C     0.97502   0.56887   0.68469   0.00000  Uiso   1.00
C17    C     0.96980   0.51378   0.72039   0.00000  Uiso   1.00
C18    C     0.12948   0.61435   0.65690   0.00000  Uiso   1.00
C19    C     0.12680   0.63043   0.59403   0.00000  Uiso   1.00
C20    C     0.19099   0.60350   0.58827   0.00000  Uiso   1.00
C21    C     0.10216   0.66720   0.72991   0.00000  Uiso   1.00
C22    C     0.07653   0.72773   0.72843   0.00000  Uiso   1.00
C23    C     0.11773   0.74530   0.78413   0.00000  Uiso   1.00
H24    H     0.23474   0.52954   0.81894   0.00000  Uiso   1.00
H25    H     0.15635   0.45220   0.83972   0.00000  Uiso   1.00
H26    H     0.30810   0.51376   0.74907   0.00000  Uiso   1.00
H27    H     0.25784   0.61105   0.88345   0.00000  Uiso   1.00
H28    H     0.04100   0.38476   0.83841   0.00000  Uiso   1.00
H29    H     0.36099   0.51457   0.64729   0.00000  Uiso   1.00
H30    H     0.25500   0.71972   0.93064   0.00000  Uiso   1.00
H31    H     0.01554   0.67059   0.63152   0.00000  Uiso   1.00
H32    H     0.92512   0.60100   0.64201   0.00000  Uiso   1.00
H33    H     0.07687   0.66256   0.55136   0.00000  Uiso   1.00
H34    H     0.02661   0.75984   0.68574   0.00000  Uiso   1.00
H35    H     0.85332   0.50552   0.67794   0.00000  Uiso   1.00
H36    H     0.17331   0.63534   0.48682   0.00000  Uiso   1.00
H37    H     0.06732   0.84048   0.77017   0.00000  Uiso   1.00
O38    O     0.89164   0.39680   0.76844   0.00000  Uiso   1.00
O39    O     0.31146   0.56712   0.51770   0.00000  Uiso   1.00
O40    O     0.17240   0.83627   0.88946   0.00000  Uiso   1.00
N41    N     0.00924   0.42274   0.79921   0.00000  Uiso   1.00
N42    N     0.30840   0.54410   0.62052   0.00000  Uiso   1.00
N43    N     0.20932   0.73590   0.88543   0.00000  Uiso   1.00
N44    N     0.90825   0.48772   0.71286   0.00000  Uiso   1.00
N45    N     0.20741   0.60908   0.53417   0.00000  Uiso   1.00
N46    N     0.10834   0.80088   0.79908   0.00000  Uiso   1.00
C47    C     0.94495   0.81261   0.27209   0.00000  Uiso   1.00
C48    C     0.90100   0.76845   0.29150   0.00000  Uiso   1.00
C49    C     0.92335   0.72981   0.35507   0.00000  Uiso   1.00
C50    C     0.87524   0.69291   0.36254   0.00000  Uiso   1.00
C51    C     0.81735   0.62405   0.40091   0.00000  Uiso   1.00
C52    C     0.95917   0.79474   0.21676   0.00000  Uiso   1.00
C53    C     0.03045   0.77822   0.21751   0.00000  Uiso   1.00
C54    C     0.03130   0.76346   0.16206   0.00000  Uiso   1.00
C55    C     0.06374   0.73547   0.08439   0.00000  Uiso   1.00
C56    C     0.88888   0.87681   0.23964   0.00000  Uiso   1.00
C57    C     0.90105   0.92929   0.25960   0.00000  Uiso   1.00
C58    C     0.84272   0.98363   0.22340   0.00000  Uiso   1.00
C59    C     0.76601   0.08305   0.18124   0.00000  Uiso   1.00
C60    C     0.81974   0.81578   0.17231   0.00000  Uiso   1.00
C61    C     0.83299   0.77017   0.23730   0.00000  Uiso   1.00
C62    C     0.78482   0.73332   0.24467   0.00000  Uiso   1.00
C63    C     0.80710   0.69464   0.30825   0.00000  Uiso   1.00
C64    C     0.89117   0.79647   0.16257   0.00000  Uiso   1.00
C65    C     0.89192   0.78173   0.10711   0.00000  Uiso   1.00
C66    C     0.96317   0.76519   0.10777   0.00000  Uiso   1.00
C67    C     0.82086   0.87853   0.18544   0.00000  Uiso   1.00
C68    C     0.76251   0.93280   0.14920   0.00000  Uiso   1.00
C69    C     0.77459   0.98535   0.16910   0.00000  Uiso   1.00
H70    H     0.99790   0.81127   0.31429   0.00000  Uiso   1.00
H71    H     0.97600   0.72849   0.39700   0.00000  Uiso   1.00
H72    H     0.08307   0.77690   0.25945   0.00000  Uiso   1.00
H73    H     0.95369   0.92794   0.30154   0.00000  Uiso   1.00
H74    H     0.92173   0.63745   0.46480   0.00000  Uiso   1.00
H75    H     0.14750   0.73955   0.17476   0.00000  Uiso   1.00
H76    H     0.87467   0.05805   0.26351   0.00000  Uiso   1.00
H77    H     0.76678   0.81713   0.13011   0.00000  Uiso   1.00
H78    H     0.73219   0.73466   0.20272   0.00000  Uiso   1.00
H79    H     0.83927   0.78307   0.06517   0.00000  Uiso   1.00
H80    H     0.70989   0.93411   0.10726   0.00000  Uiso   1.00
H81    H     0.72385   0.64246   0.30712   0.00000  Uiso   1.00
H82    H     0.94963   0.74456   0.01708   0.00000  Uiso   1.00
H83    H     0.67680   0.06306   0.10582   0.00000  Uiso   1.00
O84    O     0.80422   0.58559   0.43704   0.00000  Uiso   1.00
O85    O     0.10042   0.71955   0.05652   0.00000  Uiso   1.00
O86    O     0.74248   0.13741   0.17296   0.00000  Uiso   1.00
N87    N     0.87990   0.64996   0.41773   0.00000  Uiso   1.00
N88    N     0.09098   0.74540   0.14656   0.00000  Uiso   1.00
N89    N     0.83592   0.04318   0.22952   0.00000  Uiso   1.00
N90    N     0.77342   0.65265   0.33288   0.00000  Uiso   1.00
N91    N     0.98451   0.74810   0.06171   0.00000  Uiso   1.00
N92    N     0.72944   0.04588   0.14467   0.00000  Uiso   1.00
C93    C     0.54684   0.32001   0.66803   0.00000  Uiso   1.00
C94    C     0.54913   0.38446   0.63434   0.00000  Uiso   1.00
C95    C     0.48595   0.43500   0.59559   0.00000  Uiso   1.00
C96    C     0.50008   0.48995   0.56917   0.00000  Uiso   1.00
C97    C     0.49227   0.58938   0.51500   0.00000  Uiso   1.00
C98    C     0.58510   0.27508   0.64285   0.00000  Uiso   1.00
C99    C     0.55216   0.23364   0.61126   0.00000  Uiso   1.00
C100   C     0.59658   0.19649   0.59200   0.00000  Uiso   1.00
C101   C     0.64464   0.12607   0.55109   0.00000  Uiso   1.00
C102   C     0.60049   0.30577   0.74198   0.00000  Uiso   1.00
C103   C     0.58050   0.29012   0.79374   0.00000  Uiso   1.00
C104   C     0.63788   0.27880   0.85795   0.00000  Uiso   1.00
C105   C     0.70983   0.25603   0.97095   0.00000  Uiso   1.00
C106   C     0.68430   0.32771   0.69002   0.00000  Uiso   1.00
C107   C     0.62379   0.38864   0.64628   0.00000  Uiso   1.00
C108   C     0.63802   0.44353   0.61991   0.00000  Uiso   1.00
C109   C     0.57487   0.49414   0.58113   0.00000  Uiso   1.00
C110   C     0.65976   0.27926   0.65478   0.00000  Uiso   1.00
C111   C     0.70424   0.24216   0.63558   0.00000  Uiso   1.00
C112   C     0.67138   0.20069   0.60396   0.00000  Uiso   1.00
C113   C     0.67515   0.30995   0.75392   0.00000  Uiso   1.00
C114   C     0.73258   0.29865   0.81806   0.00000  Uiso   1.00
C115   C     0.71268   0.28299   0.86991   0.00000  Uiso   1.00
H116   H     0.48872   0.31675   0.65874   0.00000  Uiso   1.00
H117   H     0.42817   0.43174   0.58636   0.00000  Uiso   1.00
H118   H     0.49439   0.23041   0.60203   0.00000  Uiso   1.00
H119   H     0.52272   0.28688   0.78448   0.00000  Uiso   1.00
H120   H     0.39397   0.56108   0.51135   0.00000  Uiso   1.00
H121   H     0.53360   0.13653   0.54442   0.00000  Uiso   1.00
H122   H     0.59334   0.25562   0.92916   0.00000  Uiso   1.00
H123   H     0.74243   0.33097   0.69931   0.00000  Uiso   1.00
H124   H     0.69581   0.44675   0.62916   0.00000  Uiso   1.00
H125   H     0.76202   0.24541   0.64483   0.00000  Uiso   1.00
H126   H     0.79035   0.30189   0.82728   0.00000  Uiso   1.00
H127   H     0.61119   0.57326   0.54609   0.00000  Uiso   1.00
H128   H     0.75082   0.14871   0.57916   0.00000  Uiso   1.00
H129   H     0.81055   0.26780   0.96389   0.00000  Uiso   1.00
O130   O     0.46733   0.64307   0.48182   0.00000  Uiso   1.00
O131   O     0.65052   0.08608   0.52522   0.00000  Uiso   1.00
O132   O     0.72889   0.24232   0.02998   0.00000  Uiso   1.00
N133   N     0.45150   0.54806   0.52917   0.00000  Uiso   1.00
N134   N     0.58203   0.15114   0.56007   0.00000  Uiso   1.00
N135   N     0.63789   0.26246   0.91977   0.00000  Uiso   1.00
N136   N     0.56838   0.55461   0.54786   0.00000  Uiso   1.00
N137   N     0.69892   0.15770   0.57877   0.00000  Uiso   1.00
N138   N     0.75477   0.26902   0.93846   0.00000  Uiso   1.00
C139   C     0.36908   0.99175   0.71589   0.00000  Uiso   1.00
C140   C     0.43711   0.93664   0.73777   0.00000  Uiso   1.00
C141   C     0.50234   0.91671   0.79870   0.00000  Uiso   1.00
C142   C     0.55809   0.86536   0.80915   0.00000  Uiso   1.00
C143   C     0.66510   0.78439   0.85056   0.00000  Uiso   1.00
C144   C     0.29810   0.96619   0.69747   0.00000  Uiso   1.00
C145   C     0.24646   0.97110   0.72450   0.00000  Uiso   1.00
C146   C     0.18519   0.94463   0.70101   0.00000  Uiso   1.00
C147   C     0.07636   0.90956   0.67981   0.00000  Uiso   1.00
C148   C     0.36040   0.03421   0.65091   0.00000  Uiso   1.00
C149   C     0.36111   0.09633   0.63879   0.00000  Uiso   1.00
C150   C     0.35227   0.12714   0.57610   0.00000  Uiso   1.00
C151   C     0.34017   0.19769   0.48261   0.00000  Uiso   1.00
C152   C     0.35210   0.93601   0.62611   0.00000  Uiso   1.00
C153   C     0.42788   0.90637   0.68901   0.00000  Uiso   1.00
C154   C     0.48355   0.85504   0.69937   0.00000  Uiso   1.00
C155   C     0.54886   0.83504   0.76030   0.00000  Uiso   1.00
C156   C     0.28888   0.93591   0.64870   0.00000  Uiso   1.00
C157   C     0.22767   0.90944   0.62517   0.00000  Uiso   1.00
C158   C     0.17595   0.91430   0.65216   0.00000  Uiso   1.00
C159   C     0.35117   0.00394   0.60214   0.00000  Uiso   1.00
C160   C     0.34233   0.03466   0.53946   0.00000  Uiso   1.00
C161   C     0.34303   0.09681   0.52725   0.00000  Uiso   1.00
H162   H     0.37626   0.01531   0.75385   0.00000  Uiso   1.00
H163   H     0.50945   0.94014   0.83643   0.00000  Uiso   1.00
H164   H     0.25361   0.99453   0.76223   0.00000  Uiso   1.00
H165   H     0.36825   0.11974   0.67654   0.00000  Uiso   1.00
H166   H     0.65304   0.84344   0.90648   0.00000  Uiso   1.00
H167   H     0.11356   0.95814   0.75002   0.00000  Uiso   1.00
H168   H     0.35530   0.22216   0.56931   0.00000  Uiso   1.00
H169   H     0.34492   0.91244   0.58814   0.00000  Uiso   1.00
H170   H     0.47640   0.83163   0.66162   0.00000  Uiso   1.00
H171   H     0.22055   0.88601   0.58743   0.00000  Uiso   1.00
H172   H     0.33519   0.01122   0.50174   0.00000  Uiso   1.00
H173   H     0.62621   0.75536   0.76460   0.00000  Uiso   1.00
H174   H     0.08673   0.87006   0.60814   0.00000  Uiso   1.00
H175   H     0.32847   0.13408   0.42744   0.00000  Uiso   1.00
O176   O     0.72667   0.74808   0.88688   0.00000  Uiso   1.00
O177   O     0.01889   0.89857   0.68159   0.00000  Uiso   1.00
O178   O     0.33605   0.24496   0.44452   0.00000  Uiso   1.00
N179   N     0.62869   0.83381   0.86300   0.00000  Uiso   1.00
N180   N     0.12432   0.94104   0.71672   0.00000  Uiso   1.00
N181   N     0.35030   0.18788   0.54778   0.00000  Uiso   1.00
N182   N     0.61425   0.78641   0.78666   0.00000  Uiso   1.00
N183   N     0.10988   0.89364   0.64038   0.00000  Uiso   1.00
N184   N     0.33586   0.14049   0.47143   0.00000  Uiso   1.00
C185   C     0.07470   0.43931   0.08877   0.00000  Uiso   1.00
C186   C     0.11869   0.37239   0.13023   0.00000  Uiso   1.00
C187   C     0.13730   0.34642   0.19686   0.00000  Uiso   1.00
C188   C     0.17776   0.28440   0.22580   0.00000  Uiso   1.00
C189   C     0.24283   0.18576   0.29571   0.00000  Uiso   1.00
C190   C     0.00557   0.43566   0.02875   0.00000  Uiso   1.00
C191   C     0.92907   0.46290   0.01005   0.00000  Uiso   1.00
C192   C     0.87431   0.45413   0.95356   0.00000  Uiso   1.00
C193   C     0.76376   0.45376   0.86589   0.00000  Uiso   1.00
C194   C     0.12641   0.46604   0.06136   0.00000  Uiso   1.00
C195   C     0.15150   0.51884   0.07007   0.00000  Uiso   1.00
C196   C     0.19846   0.53568   0.04103   0.00000  Uiso   1.00
C197   C     0.27553   0.58249   0.00400   0.00000  Uiso   1.00
C198   C     0.11348   0.37533   0.02169   0.00000  Uiso   1.00
C199   C     0.13975   0.33764   0.09379   0.00000  Uiso   1.00
C200   C     0.18020   0.27564   0.12264   0.00000  Uiso   1.00
C201   C     0.19887   0.24958   0.18930   0.00000  Uiso   1.00
C202   C     0.02663   0.40091   0.99231   0.00000  Uiso   1.00
C203   C     0.97197   0.39211   0.93583   0.00000  Uiso   1.00
C204   C     0.89541   0.41932   0.91705   0.00000  Uiso   1.00
C205   C     0.14747   0.43129   0.02493   0.00000  Uiso   1.00
C206   C     0.19440   0.44805   0.99586   0.00000  Uiso   1.00
C207   C     0.21956   0.50086   0.00452   0.00000  Uiso   1.00
H208   H     0.05830   0.46637   0.11714   0.00000  Uiso   1.00
H209   H     0.12098   0.37333   0.22504   0.00000  Uiso   1.00
H210   H     0.91279   0.48979   0.03825   0.00000  Uiso   1.00
H211   H     0.13519   0.54572   0.09827   0.00000  Uiso   1.00
H212   H     0.19974   0.25485   0.32859   0.00000  Uiso   1.00
H213   H     0.76076   0.50043   0.93474   0.00000  Uiso   1.00
H214   H     0.22972   0.61838   0.06129   0.00000  Uiso   1.00
H215   H     0.12987   0.34828   0.99332   0.00000  Uiso   1.00
H216   H     0.19649   0.24876   0.09443   0.00000  Uiso   1.00
H217   H     0.98829   0.36522   0.90764   0.00000  Uiso   1.00
H218   H     0.21069   0.42115   0.96766   0.00000  Uiso   1.00
H219   H     0.26102   0.15374   0.22259   0.00000  Uiso   1.00
H220   H     0.82204   0.39932   0.82872   0.00000  Uiso   1.00
H221   H     0.29100   0.51727   0.95528   0.00000  Uiso   1.00
O222   O     0.27289   0.14095   0.34433   0.00000  Uiso   1.00
O223   O     0.69696   0.46315   0.82760   0.00000  Uiso   1.00
O224   O     0.31223   0.61790   0.99364   0.00000  Uiso   1.00
N225   N     0.20504   0.24471   0.28977   0.00000  Uiso   1.00
N226   N     0.79461   0.47431   0.92154   0.00000  Uiso   1.00
N227   N     0.23303   0.58459   0.03985   0.00000  Uiso   1.00
N228   N     0.23801   0.19031   0.23273   0.00000  Uiso   1.00
N229   N     0.82759   0.41990   0.86450   0.00000  Uiso   1.00
N230   N     0.26601   0.53019   0.98281   0.00000  Uiso   1.00
C231   C     0.85518   0.74618   0.62698   0.00000  Uiso   1.00
C232   C     0.83531   0.81692   0.60448   0.00000  Uiso   1.00
C233   C     0.87750   0.85287   0.58392   0.00000  Uiso   1.00
C234   C     0.84972   0.91684   0.56527   0.00000  Uiso   1.00
C235   C     0.82911   0.02257   0.53002   0.00000  Uiso   1.00
C236   C     0.78503   0.72824   0.58214   0.00000  Uiso   1.00
C237   C     0.78497   0.68961   0.54281   0.00000  Uiso   1.00
C238   C     0.71486   0.67891   0.50537   0.00000  Uiso   1.00
C239   C     0.61621   0.64692   0.43548   0.00000  Uiso   1.00
C240   C     0.85997   0.72744   0.69667   0.00000  Uiso   1.00
C241   C     0.92290   0.68812   0.75364   0.00000  Uiso   1.00
C242   C     0.91588   0.67674   0.81262   0.00000  Uiso   1.00
C243   C     0.93358   0.64351   0.92055   0.00000  Uiso   1.00
C244   C     0.73080   0.79587   0.63042   0.00000  Uiso   1.00
C245   C     0.76774   0.84391   0.60635   0.00000  Uiso   1.00
C246   C     0.73988   0.90784   0.58773   0.00000  Uiso   1.00
C247   C     0.78203   0.94387   0.56715   0.00000  Uiso   1.00
C248   C     0.71747   0.75522   0.58401   0.00000  Uiso   1.00
C249   C     0.64735   0.74457   0.54662   0.00000  Uiso   1.00
C250   C     0.64717   0.70594   0.50724   0.00000  Uiso   1.00
C251   C     0.79241   0.75442   0.69854   0.00000  Uiso   1.00
C252   C     0.78528   0.74309   0.75744   0.00000  Uiso   1.00
C253   C     0.84819   0.70377   0.81449   0.00000  Uiso   1.00
H254   H     0.90778   0.72517   0.62552   0.00000  Uiso   1.00
H255   H     0.92978   0.83197   0.58248   0.00000  Uiso   1.00
H256   H     0.83726   0.66872   0.54138   0.00000  Uiso   1.00
H257   H     0.97517   0.66725   0.75217   0.00000  Uiso   1.00
H258   H     0.92437   0.96227   0.53555   0.00000  Uiso   1.00
H259   H     0.72928   0.61805   0.44892   0.00000  Uiso   1.00
H260   H     0.02010   0.61493   0.89341   0.00000  Uiso   1.00
H261   H     0.67819   0.81688   0.63188   0.00000  Uiso   1.00
H262   H     0.68760   0.92871   0.58918   0.00000  Uiso   1.00
H263   H     0.59508   0.76546   0.54808   0.00000  Uiso   1.00
H264   H     0.73299   0.76399   0.75887   0.00000  Uiso   1.00
H265   H     0.72780   0.04079   0.54099   0.00000  Uiso   1.00
H266   H     0.53272   0.69656   0.45436   0.00000  Uiso   1.00
H267   H     0.82353   0.69345   0.89885   0.00000  Uiso   1.00
O268   O     0.83640   0.07344   0.51004   0.00000  Uiso   1.00
O269   O     0.58046   0.62182   0.39640   0.00000  Uiso   1.00
O270   O     0.96201   0.61773   0.97956   0.00000  Uiso   1.00
N271   N     0.87682   0.96540   0.54270   0.00000  Uiso   1.00
N272   N     0.69443   0.64358   0.46170   0.00000  Uiso   1.00
N273   N     0.96631   0.64065   0.87726   0.00000  Uiso   1.00
N274   N     0.77105   0.00765   0.54563   0.00000  Uiso   1.00
N275   N     0.58866   0.68583   0.46463   0.00000  Uiso   1.00
N276   N     0.86054   0.68290   0.88019   0.00000  Uiso   1.00
C277   C     0.94408   0.13982   0.34860   0.00000  Uiso   1.00
C278   C     0.95535   0.15430   0.28554   0.00000  Uiso   1.00
C279   C     0.89797   0.18485   0.22145   0.00000  Uiso   1.00
C280   C     0.92000   0.19361   0.17045   0.00000  Uiso   1.00
C281   C     0.92585   0.21933   0.07061   0.00000  Uiso   1.00
C282   C     0.99841   0.16882   0.39576   0.00000  Uiso   1.00
C283   C     0.97723   0.21156   0.42435   0.00000  Uiso   1.00
C284   C     0.03551   0.23253   0.46614   0.00000  Uiso   1.00
C285   C     0.10822   0.28075   0.53746   0.00000  Uiso   1.00
C286   C     0.97520   0.06977   0.38051   0.00000  Uiso   1.00
C287   C     0.93452   0.02924   0.39629   0.00000  Uiso   1.00
C288   C     0.97327   0.96682   0.42525   0.00000  Uiso   1.00
C289   C     0.00995   0.86126   0.47289   0.00000  Uiso   1.00
C290   C     0.08524   0.10104   0.37198   0.00000  Uiso   1.00
C291   C     0.03203   0.13324   0.29825   0.00000  Uiso   1.00
C292   C     0.05415   0.14195   0.24733   0.00000  Uiso   1.00
C293   C     0.99681   0.17251   0.18317   0.00000  Uiso   1.00
C294   C     0.07508   0.14776   0.40847   0.00000  Uiso   1.00
C295   C     0.13341   0.16866   0.45022   0.00000  Uiso   1.00
C296   C     0.11232   0.21143   0.47886   0.00000  Uiso   1.00
C297   C     0.05188   0.04871   0.39321   0.00000  Uiso   1.00
C298   C     0.09070   0.98634   0.42216   0.00000  Uiso   1.00
C299   C     0.05008   0.94572   0.43798   0.00000  Uiso   1.00
H300   H     0.88439   0.15622   0.33871   0.00000  Uiso   1.00
H301   H     0.83864   0.20115   0.21164   0.00000  Uiso   1.00
H302   H     0.91790   0.22785   0.41452   0.00000  Uiso   1.00
H303   H     0.87519   0.04556   0.38646   0.00000  Uiso   1.00
H304   H     0.82174   0.24170   0.07637   0.00000  Uiso   1.00
H305   H     0.98886   0.29798   0.50416   0.00000  Uiso   1.00
H306   H     0.89881   0.91358   0.44499   0.00000  Uiso   1.00
H307   H     0.14493   0.08465   0.38187   0.00000  Uiso   1.00
H308   H     0.11348   0.12565   0.25717   0.00000  Uiso   1.00
H309   H     0.19274   0.15235   0.46005   0.00000  Uiso   1.00
H310   H     0.15003   0.97006   0.43198   0.00000  Uiso   1.00
H311   H     0.04482   0.18042   0.11332   0.00000  Uiso   1.00
H312   H     0.21193   0.23670   0.54111   0.00000  Uiso   1.00
H313   H     0.12188   0.85230   0.48194   0.00000  Uiso   1.00
O314   O     0.90790   0.23935   0.01204   0.00000  Uiso   1.00
O315   O     0.12714   0.31317   0.57329   0.00000  Uiso   1.00
O316   O     0.00899   0.80885   0.49565   0.00000  Uiso   1.00
N317   N     0.87856   0.22164   0.10218   0.00000  Uiso   1.00
N318   N     0.03480   0.27427   0.50213   0.00000  Uiso   1.00
N319   N     0.95061   0.91489   0.44682   0.00000  Uiso   1.00
N320   N     0.99859   0.18867   0.12206   0.00000  Uiso   1.00
N321   N     0.15483   0.24129   0.52201   0.00000  Uiso   1.00
N322   N     0.07064   0.88191   0.46671   0.00000  Uiso   1.00
C323   C     0.40284   0.62799   0.85246   0.00000  Uiso   1.00
C324   C     0.37716   0.65984   0.77883   0.00000  Uiso   1.00
C325   C     0.30387   0.69587   0.73325   0.00000  Uiso   1.00
C326   C     0.29194   0.72096   0.66820   0.00000  Uiso   1.00
C327   C     0.24306   0.77205   0.55672   0.00000  Uiso   1.00
C328   C     0.47130   0.65145   0.89089   0.00000  Uiso   1.00
C329   C     0.47718   0.68042   0.93954   0.00000  Uiso   1.00
C330   C     0.54451   0.69844   0.96883   0.00000  Uiso   1.00
C331   C     0.64181   0.73647   0.03136   0.00000  Uiso   1.00
C332   C     0.43485   0.55930   0.86405   0.00000  Uiso   1.00
C333   C     0.41009   0.51079   0.89014   0.00000  Uiso   1.00
C334   C     0.44675   0.45122   0.89684   0.00000  Uiso   1.00
C335   C     0.48745   0.34618   0.91770   0.00000  Uiso   1.00
C336   C     0.51198   0.60846   0.81799   0.00000  Uiso   1.00
C337   C     0.43644   0.64923   0.76011   0.00000  Uiso   1.00
C338   C     0.42462   0.67426   0.69511   0.00000  Uiso   1.00
C339   C     0.35133   0.71033   0.64944   0.00000  Uiso   1.00
C340   C     0.53058   0.64084   0.87217   0.00000  Uiso   1.00
C341   C     0.59793   0.65881   0.90140   0.00000  Uiso   1.00
C342   C     0.60390   0.68781   0.95007   0.00000  Uiso   1.00
C343   C     0.49413   0.54869   0.84532   0.00000  Uiso   1.00
C344   C     0.53084   0.48919   0.85199   0.00000  Uiso   1.00
C345   C     0.50613   0.44060   0.87809   0.00000  Uiso   1.00
H346   H     0.35669   0.63625   0.86704   0.00000  Uiso   1.00
H347   H     0.25801   0.70408   0.74776   0.00000  Uiso   1.00
H348   H     0.43130   0.68862   0.95402   0.00000  Uiso   1.00
H349   H     0.36422   0.51902   0.90462   0.00000  Uiso   1.00
H350   H     0.17476   0.77461   0.60726   0.00000  Uiso   1.00
H351   H     0.54015   0.74201   0.04219   0.00000  Uiso   1.00
H352   H     0.39870   0.38437   0.93803   0.00000  Uiso   1.00
H353   H     0.55813   0.60020   0.80342   0.00000  Uiso   1.00
H354   H     0.47051   0.66605   0.68064   0.00000  Uiso   1.00
H355   H     0.64379   0.65059   0.88690   0.00000  Uiso   1.00
H356   H     0.57671   0.48099   0.83750   0.00000  Uiso   1.00
H357   H     0.34723   0.74375   0.55278   0.00000  Uiso   1.00
H358   H     0.71262   0.71114   0.98771   0.00000  Uiso   1.00
H359   H     0.57117   0.35351   0.88355   0.00000  Uiso   1.00
O360   O     0.19972   0.80317   0.50041   0.00000  Uiso   1.00
O361   O     0.67910   0.76038   0.07103   0.00000  Uiso   1.00
O362   O     0.49352   0.29117   0.93436   0.00000  Uiso   1.00
N363   N     0.22737   0.75830   0.61129   0.00000  Uiso   1.00
N364   N     0.56898   0.72783   0.01791   0.00000  Uiso   1.00
N365   N     0.43675   0.39347   0.92054   0.00000  Uiso   1.00
N366   N     0.32017   0.74170   0.58197   0.00000  Uiso   1.00
N367   N     0.66179   0.71122   0.98860   0.00000  Uiso   1.00
N368   N     0.52956   0.37686   0.89123   0.00000  Uiso   1.00
C369   C     0.61464   0.20752   0.33075   0.00000  Uiso   1.00
C370   C     0.58841   0.15328   0.35895   0.00000  Uiso   1.00
C371   C     0.62489   0.09089   0.37721   0.00000  Uiso   1.00
C372   C     0.59184   0.04837   0.40198   0.00000  Uiso   1.00
C373   C     0.56134   0.96122   0.44485   0.00000  Uiso   1.00
C374   C     0.62416   0.24824   0.37689   0.00000  Uiso   1.00
C375   C     0.69069   0.26570   0.41023   0.00000  Uiso   1.00
C376   C     0.68773   0.30312   0.45010   0.00000  Uiso   1.00
C377   C     0.71272   0.36344   0.52079   0.00000  Uiso   1.00
C378   C     0.54668   0.24532   0.26431   0.00000  Uiso   1.00
C379   C     0.54807   0.26035   0.20299   0.00000  Uiso   1.00
C380   C     0.47988   0.29534   0.14808   0.00000  Uiso   1.00
C381   C     0.38456   0.35113   0.04396   0.00000  Uiso   1.00
C382   C     0.49107   0.24296   0.34228   0.00000  Uiso   1.00
C383   C     0.52129   0.17253   0.36521   0.00000  Uiso   1.00
C384   C     0.48818   0.13010   0.38996   0.00000  Uiso   1.00
C385   C     0.52460   0.06765   0.40825   0.00000  Uiso   1.00
C386   C     0.55704   0.26749   0.38316   0.00000  Uiso   1.00
C387   C     0.55398   0.30490   0.42299   0.00000  Uiso   1.00
C388   C     0.62050   0.32241   0.45638   0.00000  Uiso   1.00
C389   C     0.47956   0.26457   0.27057   0.00000  Uiso   1.00
C390   C     0.41135   0.29955   0.21575   0.00000  Uiso   1.00
C391   C     0.41264   0.31462   0.15435   0.00000  Uiso   1.00
H392   H     0.66689   0.19253   0.32587   0.00000  Uiso   1.00
H393   H     0.67683   0.07601   0.37236   0.00000  Uiso   1.00
H394   H     0.74262   0.25080   0.40537   0.00000  Uiso   1.00
H395   H     0.60002   0.24544   0.19816   0.00000  Uiso   1.00
H396   H     0.65827   0.95531   0.42668   0.00000  Uiso   1.00
H397   H     0.79698   0.32387   0.49627   0.00000  Uiso   1.00
H398   H     0.49627   0.31259   0.05932   0.00000  Uiso   1.00
H399   H     0.43882   0.25795   0.34716   0.00000  Uiso   1.00
H400   H     0.43624   0.14501   0.39481   0.00000  Uiso   1.00
H401   H     0.50203   0.31979   0.42782   0.00000  Uiso   1.00
H402   H     0.35943   0.31444   0.22061   0.00000  Uiso   1.00
H403   H     0.46300   0.01131   0.44490   0.00000  Uiso   1.00
H404   H     0.60171   0.37988   0.51449   0.00000  Uiso   1.00
H405   H     0.30100   0.36859   0.07755   0.00000  Uiso   1.00
O406   O     0.56307   0.90784   0.46677   0.00000  Uiso   1.00
O407   O     0.74505   0.39139   0.55806   0.00000  Uiso   1.00
O408   O     0.35053   0.37658   0.98481   0.00000  Uiso   1.00
N409   N     0.61266   0.98399   0.42441   0.00000  Uiso   1.00
N410   N     0.74235   0.32857   0.48948   0.00000  Uiso   1.00
N411   N     0.46122   0.31803   0.08098   0.00000  Uiso   1.00
N412   N     0.50758   0.01412   0.43422   0.00000  Uiso   1.00
N413   N     0.63727   0.35870   0.49929   0.00000  Uiso   1.00
N414   N     0.35614   0.34816   0.09079   0.00000  Uiso   1.00
C415   C     0.18453   0.57206   0.30467   0.00000  Uiso   1.00
C416   C     0.09924   0.59016   0.25597   0.00000  Uiso   1.00
C417   C     0.06894   0.59060   0.18979   0.00000  Uiso   1.00
C418   C     0.98937   0.60861   0.15352   0.00000  Uiso   1.00
C419   C     0.86416   0.63416   0.07350   0.00000  Uiso   1.00
C420   C     0.19968   0.62747   0.33067   0.00000  Uiso   1.00
C421   C     0.25384   0.65926   0.32728   0.00000  Uiso   1.00
C422   C     0.25882   0.70867   0.35390   0.00000  Uiso   1.00
C423   C     0.28959   0.79211   0.38989   0.00000  Uiso   1.00
C424   C     0.19477   0.51997   0.36389   0.00000  Uiso   1.00
C425   C     0.24481   0.46138   0.38846   0.00000  Uiso   1.00
C426   C     0.24567   0.42030   0.44306   0.00000  Uiso   1.00
C427   C     0.26880   0.33683   0.53062   0.00000  Uiso   1.00
C428   C     0.09711   0.60329   0.35797   0.00000  Uiso   1.00
C429   C     0.05176   0.60712   0.28493   0.00000  Uiso   1.00
C430   C     0.97221   0.62514   0.24875   0.00000  Uiso   1.00
C431   C     0.94180   0.62560   0.18252   0.00000  Uiso   1.00
C432   C     0.15220   0.64443   0.35962   0.00000  Uiso   1.00
C433   C     0.15711   0.69380   0.38625   0.00000  Uiso   1.00
C434   C     0.21125   0.72566   0.38291   0.00000  Uiso   1.00
C435   C     0.14728   0.53693   0.39284   0.00000  Uiso   1.00
C436   C     0.14808   0.49593   0.44742   0.00000  Uiso   1.00
C437   C     0.19810   0.43729   0.47206   0.00000  Uiso   1.00
H438   H     0.22150   0.55886   0.28213   0.00000  Uiso   1.00
H439   H     0.10571   0.57747   0.16740   0.00000  Uiso   1.00
H440   H     0.29058   0.64612   0.30488   0.00000  Uiso   1.00
H441   H     0.28154   0.44828   0.36604   0.00000  Uiso   1.00
H442   H     0.95638   0.60561   0.05295   0.00000  Uiso   1.00
H443   H     0.34621   0.75034   0.34287   0.00000  Uiso   1.00
H444   H     0.32717   0.33315   0.47183   0.00000  Uiso   1.00
H445   H     0.06014   0.61649   0.38051   0.00000  Uiso   1.00
H446   H     0.93548   0.63826   0.27117   0.00000  Uiso   1.00
H447   H     0.12036   0.70691   0.40865   0.00000  Uiso   1.00
H448   H     0.11132   0.50907   0.46981   0.00000  Uiso   1.00
H449   H     0.81822   0.65495   0.13718   0.00000  Uiso   1.00
H450   H     0.20806   0.79968   0.42709   0.00000  Uiso   1.00
H451   H     0.18901   0.38249   0.55606   0.00000  Uiso   1.00
O452   O     0.80821   0.64358   0.02136   0.00000  Uiso   1.00
O453   O     0.31967   0.83345   0.40173   0.00000  Uiso   1.00
O454   O     0.29467   0.28611   0.57092   0.00000  Uiso   1.00
N455   N     0.94097   0.61422   0.08778   0.00000  Uiso   1.00
N456   N     0.30543   0.74954   0.35883   0.00000  Uiso   1.00
N457   N     0.28764   0.35951   0.47941   0.00000  Uiso   1.00
N458   N     0.86663   0.64077   0.13310   0.00000  Uiso   1.00
N459   N     0.23109   0.77609   0.40415   0.00000  Uiso   1.00
N460   N     0.21330   0.38606   0.52473   0.00000  Uiso   1.00
C461   C     0.10749   0.25642   0.73015   0.00000  Uiso   1.00
C462   C     0.06475   0.32297   0.68646   0.00000  Uiso   1.00
C463   C     0.09837   0.36912   0.66956   0.00000  Uiso   1.00
C464   C     0.04935   0.42699   0.62907   0.00000  Uiso   1.00
C465   C     0.99511   0.52862   0.56472   0.00000  Uiso   1.00
C466   C     0.08451   0.24556   0.78688   0.00000  Uiso   1.00
C467   C     0.13474   0.22661   0.85442   0.00000  Uiso   1.00
C468   C     0.10234   0.21931   0.89847   0.00000  Uiso   1.00
C469   C     0.07879   0.20072   0.99002   0.00000  Uiso   1.00
C470   C     0.07259   0.21492   0.68842   0.00000  Uiso   1.00
C471   C     0.11280   0.17020   0.67319   0.00000  Uiso   1.00
C472   C     0.07038   0.13709   0.63435   0.00000  Uiso   1.00
C473   C     0.02832   0.07092   0.57304   0.00000  Uiso   1.00
C474   C     0.96065   0.27713   0.68829   0.00000  Uiso   1.00
C475   C     0.98499   0.33422   0.66372   0.00000  Uiso   1.00
C476   C     0.93590   0.39203   0.62325   0.00000  Uiso   1.00
C477   C     0.96944   0.43826   0.60629   0.00000  Uiso   1.00
C478   C     0.00475   0.25681   0.76415   0.00000  Uiso   1.00
C479   C     0.97227   0.24953   0.80811   0.00000  Uiso   1.00
C480   C     0.02244   0.23058   0.87569   0.00000  Uiso   1.00
C481   C     0.99283   0.22617   0.66569   0.00000  Uiso   1.00
C482   C     0.95034   0.19312   0.62687   0.00000  Uiso   1.00
C483   C     0.99048   0.14835   0.61158   0.00000  Uiso   1.00
H484   H     0.16959   0.24766   0.74785   0.00000  Uiso   1.00
H485   H     0.16010   0.36039   0.68717   0.00000  Uiso   1.00
H486   H     0.19646   0.21791   0.87200   0.00000  Uiso   1.00
H487   H     0.17453   0.16150   0.69079   0.00000  Uiso   1.00
H488   H     0.11440   0.49035   0.60989   0.00000  Uiso   1.00
H489   H     0.19108   0.18989   0.99961   0.00000  Uiso   1.00
H490   H     0.14483   0.07095   0.61750   0.00000  Uiso   1.00
H491   H     0.89855   0.28589   0.67059   0.00000  Uiso   1.00
H492   H     0.87418   0.40072   0.60566   0.00000  Uiso   1.00
H493   H     0.91055   0.25823   0.79049   0.00000  Uiso   1.00
H494   H     0.88862   0.20183   0.60929   0.00000  Uiso   1.00
H495   H     0.88234   0.52309   0.54373   0.00000  Uiso   1.00
H496   H     0.95902   0.22262   0.93345   0.00000  Uiso   1.00
H497   H     0.91277   0.10368   0.55134   0.00000  Uiso   1.00
O498   O     0.98724   0.58158   0.53551   0.00000  Uiso   1.00
O499   O     0.08783   0.18737   0.04681   0.00000  Uiso   1.00
O500   O     0.02716   0.03133   0.54549   0.00000  Uiso   1.00
N501   N     0.06313   0.48229   0.60322   0.00000  Uiso   1.00
N502   N     0.13482   0.20138   0.96758   0.00000  Uiso   1.00
N503   N     0.09158   0.09017   0.61036   0.00000  Uiso   1.00
N504   N     0.93826   0.49991   0.56762   0.00000  Uiso   1.00
N505   N     0.00995   0.21900   0.93198   0.00000  Uiso   1.00
N506   N     0.96671   0.10779   0.57476   0.00000  Uiso   1.00
C507   C     0.32346   0.84159   0.14182   0.00000  Uiso   1.00
C508   C     0.33020   0.77231   0.16525   0.00000  Uiso   1.00
C509   C     0.27167   0.74323   0.14162   0.00000  Uiso   1.00
C510   C     0.28938   0.67944   0.16948   0.00000  Uiso   1.00
C511   C     0.28864   0.57695   0.19833   0.00000  Uiso   1.00
C512   C     0.34724   0.86313   0.20406   0.00000  Uiso   1.00
C513   C     0.30304   0.91041   0.21305   0.00000  Uiso   1.00
C514   C     0.33510   0.92307   0.27357   0.00000  Uiso   1.00
C515   C     0.36084   0.96161   0.36265   0.00000  Uiso   1.00
C516   C     0.38581   0.84714   0.11886   0.00000  Uiso   1.00
C517   C     0.37404   0.88100   0.05622   0.00000  Uiso   1.00
C518   C     0.43858   0.88022   0.04502   0.00000  Uiso   1.00
C519   C     0.52420   0.89394   0.00181   0.00000  Uiso   1.00
C520   C     0.45900   0.78002   0.23333   0.00000  Uiso   1.00
C521   C     0.40382   0.73887   0.21496   0.00000  Uiso   1.00
C522   C     0.42163   0.67511   0.24286   0.00000  Uiso   1.00
C523   C     0.36313   0.64593   0.21927   0.00000  Uiso   1.00
C524   C     0.42086   0.82969   0.25376   0.00000  Uiso   1.00
C525   C     0.45300   0.84229   0.31429   0.00000  Uiso   1.00
C526   C     0.40885   0.88957   0.32337   0.00000  Uiso   1.00
C527   C     0.45943   0.81370   0.16856   0.00000  Uiso   1.00
C528   C     0.52400   0.81287   0.15746   0.00000  Uiso   1.00
C529   C     0.51233   0.84671   0.09481   0.00000  Uiso   1.00
H530   H     0.26614   0.86763   0.10313   0.00000  Uiso   1.00
H531   H     0.21470   0.76912   0.10316   0.00000  Uiso   1.00
H532   H     0.24608   0.93628   0.17457   0.00000  Uiso   1.00
H533   H     0.31706   0.90687   0.01777   0.00000  Uiso   1.00
H534   H     0.19013   0.64517   0.12513   0.00000  Uiso   1.00
H535   H     0.25629   0.99764   0.27570   0.00000  Uiso   1.00
H536   H     0.40598   0.93563   0.94505   0.00000  Uiso   1.00
H537   H     0.51631   0.75399   0.27202   0.00000  Uiso   1.00
H538   H     0.47860   0.64924   0.28132   0.00000  Uiso   1.00
H539   H     0.50997   0.81640   0.35274   0.00000  Uiso   1.00
H540   H     0.58096   0.78699   0.19593   0.00000  Uiso   1.00
H541   H     0.40432   0.54787   0.26973   0.00000  Uiso   1.00
H542   H     0.47048   0.90034   0.42031   0.00000  Uiso   1.00
H543   H     0.62017   0.83833   0.08965   0.00000  Uiso   1.00
O544   O     0.26790   0.52967   0.20051   0.00000  Uiso   1.00
O545   O     0.35470   0.99210   0.39806   0.00000  Uiso   1.00
O546   O     0.55108   0.91074   0.96425   0.00000  Uiso   1.00
N547   N     0.24572   0.63664   0.15787   0.00000  Uiso   1.00
N548   N     0.30757   0.96618   0.29866   0.00000  Uiso   1.00
N549   N     0.44752   0.90821   0.98953   0.00000  Uiso   1.00
N550   N     0.36097   0.58428   0.23568   0.00000  Uiso   1.00
N551   N     0.42282   0.91382   0.37647   0.00000  Uiso   1.00
N552   N     0.56277   0.85586   0.06734   0.00000  Uiso   1.00
