data_job_01810
_audit_creation_date              2018-12-19
_audit_creation_method            'Materials Studio'
_symmetry_space_group_name_H-M    'P1'
_symmetry_Int_Tables_number       1
_symmetry_cell_setting            triclinic
loop_
_symmetry_equiv_pos_as_xyz
  x,y,z
_cell_length_a                    20.9984
_cell_length_b                    12.5897
_cell_length_c                    22.3625
_cell_angle_alpha                 90.0000
_cell_angle_beta                  90.0000
_cell_angle_gamma                 90.0000
loop_
_atom_site_label
_atom_site_type_symbol
_atom_site_fract_x
_atom_site_fract_y
_atom_site_fract_z
_atom_site_U_iso_or_equiv
_atom_site_adp_type
_atom_site_occupancy
C1     C     0.44252   0.86830   0.80023   0.00000  Uiso   1.00
C2     C     0.41032   0.95125   0.83967   0.00000  Uiso   1.00
C3     C     0.43699   0.04679   0.85785   0.00000  Uiso   1.00
C4     C     0.39981   0.11178   0.89386   0.00000  Uiso   1.00
C5     C     0.35920   0.24506   0.95251   0.00000  Uiso   1.00
C6     C     0.44123   0.76486   0.83570   0.00000  Uiso   1.00
C7     C     0.49390   0.70369   0.85053   0.00000  Uiso   1.00
C8     C     0.48274   0.61177   0.88320   0.00000  Uiso   1.00
C9     C     0.49012   0.45565   0.93564   0.00000  Uiso   1.00
C10    C     0.39826   0.85144   0.74702   0.00000  Uiso   1.00
C11    C     0.41479   0.86303   0.68729   0.00000  Uiso   1.00
C12    C     0.36744   0.84397   0.64529   0.00000  Uiso   1.00
C13    C     0.30809   0.82227   0.56004   0.00000  Uiso   1.00
C14    C     0.32906   0.81381   0.83187   0.00000  Uiso   1.00
C15    C     0.34869   0.92165   0.85685   0.00000  Uiso   1.00
C16    C     0.31146   0.98651   0.89284   0.00000  Uiso   1.00
C17    C     0.33807   0.08214   0.91107   0.00000  Uiso   1.00
C18    C     0.37961   0.73527   0.85288   0.00000  Uiso   1.00
C19    C     0.36836   0.64341   0.88553   0.00000  Uiso   1.00
C20    C     0.42100   0.58212   0.90041   0.00000  Uiso   1.00
C21    C     0.33662   0.82184   0.76420   0.00000  Uiso   1.00
C22    C     0.28925   0.80275   0.72228   0.00000  Uiso   1.00
C23    C     0.30570   0.81432   0.66250   0.00000  Uiso   1.00
H24    H     0.49050   0.89133   0.78686   0.00000  Uiso   1.00
H25    H     0.48469   0.06966   0.84455   0.00000  Uiso   1.00
H26    H     0.54159   0.72661   0.83723   0.00000  Uiso   1.00
H27    H     0.46248   0.88593   0.67401   0.00000  Uiso   1.00
H28    H     0.45108   0.25431   0.91610   0.00000  Uiso   1.00
H29    H     0.57104   0.53095   0.90064   0.00000  Uiso   1.00
H30    H     0.40424   0.86690   0.55647   0.00000  Uiso   1.00
H31    H     0.28107   0.79077   0.84524   0.00000  Uiso   1.00
H32    H     0.26377   0.96359   0.90613   0.00000  Uiso   1.00
H33    H     0.32066   0.62053   0.89881   0.00000  Uiso   1.00
H34    H     0.24156   0.77985   0.73560   0.00000  Uiso   1.00
H35    H     0.27177   0.16821   0.96609   0.00000  Uiso   1.00
H36    H     0.39174   0.44484   0.95063   0.00000  Uiso   1.00
H37    H     0.22493   0.78080   0.60645   0.00000  Uiso   1.00
O38    O     0.35382   0.32674   0.98011   0.00000  Uiso   1.00
O39    O     0.51122   0.37771   0.95982   0.00000  Uiso   1.00
O40    O     0.29237   0.81848   0.50827   0.00000  Uiso   1.00
N41    N     0.41125   0.21034   0.91950   0.00000  Uiso   1.00
N42    N     0.52341   0.53405   0.90506   0.00000  Uiso   1.00
N43    N     0.36747   0.84811   0.58328   0.00000  Uiso   1.00
N44    N     0.31476   0.16401   0.94639   0.00000  Uiso   1.00
N45    N     0.42693   0.48772   0.93195   0.00000  Uiso   1.00
N46    N     0.27098   0.80178   0.61018   0.00000  Uiso   1.00
C47    C     0.05748   0.13170   0.30023   0.00000  Uiso   1.00
C48    C     0.08968   0.04875   0.33967   0.00000  Uiso   1.00
C49    C     0.06301   0.95321   0.35785   0.00000  Uiso   1.00
C50    C     0.10019   0.88822   0.39386   0.00000  Uiso   1.00
C51    C     0.14080   0.75494   0.45251   0.00000  Uiso   1.00
C52    C     0.05877   0.23514   0.33570   0.00000  Uiso   1.00
C53    C     0.00610   0.29631   0.35053   0.00000  Uiso   1.00
C54    C     0.01726   0.38823   0.38320   0.00000  Uiso   1.00
C55    C     0.00988   0.54435   0.43564   0.00000  Uiso   1.00
C56    C     0.10174   0.14856   0.24702   0.00000  Uiso   1.00
C57    C     0.08521   0.13697   0.18729   0.00000  Uiso   1.00
C58    C     0.13256   0.15603   0.14529   0.00000  Uiso   1.00
C59    C     0.19191   0.17773   0.06004   0.00000  Uiso   1.00
C60    C     0.17094   0.18619   0.33187   0.00000  Uiso   1.00
C61    C     0.15131   0.07835   0.35685   0.00000  Uiso   1.00
C62    C     0.18854   0.01349   0.39284   0.00000  Uiso   1.00
C63    C     0.16193   0.91786   0.41107   0.00000  Uiso   1.00
C64    C     0.12039   0.26473   0.35288   0.00000  Uiso   1.00
C65    C     0.13164   0.35659   0.38553   0.00000  Uiso   1.00
C66    C     0.07900   0.41788   0.40041   0.00000  Uiso   1.00
C67    C     0.16338   0.17816   0.26420   0.00000  Uiso   1.00
C68    C     0.21075   0.19725   0.22228   0.00000  Uiso   1.00
C69    C     0.19430   0.18568   0.16250   0.00000  Uiso   1.00
H70    H     0.00950   0.10867   0.28686   0.00000  Uiso   1.00
H71    H     0.01531   0.93034   0.34455   0.00000  Uiso   1.00
H72    H     0.95841   0.27339   0.33723   0.00000  Uiso   1.00
H73    H     0.03752   0.11407   0.17401   0.00000  Uiso   1.00
H74    H     0.04892   0.74569   0.41610   0.00000  Uiso   1.00
H75    H     0.92896   0.46905   0.40064   0.00000  Uiso   1.00
H76    H     0.09576   0.13310   0.05647   0.00000  Uiso   1.00
H77    H     0.21893   0.20923   0.34524   0.00000  Uiso   1.00
H78    H     0.23623   0.03641   0.40613   0.00000  Uiso   1.00
H79    H     0.17934   0.37947   0.39881   0.00000  Uiso   1.00
H80    H     0.25844   0.22015   0.23560   0.00000  Uiso   1.00
H81    H     0.22823   0.83179   0.46609   0.00000  Uiso   1.00
H82    H     0.10826   0.55516   0.45063   0.00000  Uiso   1.00
H83    H     0.27507   0.21920   0.10645   0.00000  Uiso   1.00
O84    O     0.14618   0.67326   0.48011   0.00000  Uiso   1.00
O85    O     0.98878   0.62229   0.45982   0.00000  Uiso   1.00
O86    O     0.20763   0.18152   0.00827   0.00000  Uiso   1.00
N87    N     0.08875   0.78966   0.41950   0.00000  Uiso   1.00
N88    N     0.97659   0.46595   0.40506   0.00000  Uiso   1.00
N89    N     0.13253   0.15189   0.08328   0.00000  Uiso   1.00
N90    N     0.18524   0.83599   0.44639   0.00000  Uiso   1.00
N91    N     0.07307   0.51228   0.43195   0.00000  Uiso   1.00
N92    N     0.22902   0.19822   0.11018   0.00000  Uiso   1.00
C93    C     0.55748   0.36830   0.69977   0.00000  Uiso   1.00
C94    C     0.58968   0.45125   0.66033   0.00000  Uiso   1.00
C95    C     0.56301   0.54679   0.64215   0.00000  Uiso   1.00
C96    C     0.60019   0.61178   0.60614   0.00000  Uiso   1.00
C97    C     0.64080   0.74506   0.54749   0.00000  Uiso   1.00
C98    C     0.55877   0.26486   0.66430   0.00000  Uiso   1.00
C99    C     0.50610   0.20369   0.64947   0.00000  Uiso   1.00
C100   C     0.51726   0.11177   0.61680   0.00000  Uiso   1.00
C101   C     0.50988   0.95565   0.56436   0.00000  Uiso   1.00
C102   C     0.60174   0.35144   0.75298   0.00000  Uiso   1.00
C103   C     0.58521   0.36303   0.81271   0.00000  Uiso   1.00
C104   C     0.63256   0.34397   0.85471   0.00000  Uiso   1.00
C105   C     0.69191   0.32227   0.93996   0.00000  Uiso   1.00
C106   C     0.67094   0.31381   0.66813   0.00000  Uiso   1.00
C107   C     0.65131   0.42165   0.64315   0.00000  Uiso   1.00
C108   C     0.68854   0.48651   0.60716   0.00000  Uiso   1.00
C109   C     0.66193   0.58214   0.58893   0.00000  Uiso   1.00
C110   C     0.62039   0.23527   0.64712   0.00000  Uiso   1.00
C111   C     0.63164   0.14341   0.61447   0.00000  Uiso   1.00
C112   C     0.57900   0.08212   0.59959   0.00000  Uiso   1.00
C113   C     0.66338   0.32184   0.73580   0.00000  Uiso   1.00
C114   C     0.71075   0.30275   0.77772   0.00000  Uiso   1.00
C115   C     0.69430   0.31432   0.83750   0.00000  Uiso   1.00
H116   H     0.50950   0.39133   0.71314   0.00000  Uiso   1.00
H117   H     0.51531   0.56966   0.65545   0.00000  Uiso   1.00
H118   H     0.45841   0.22661   0.66277   0.00000  Uiso   1.00
H119   H     0.53752   0.38593   0.82599   0.00000  Uiso   1.00
H120   H     0.54892   0.75431   0.58390   0.00000  Uiso   1.00
H121   H     0.42896   0.03095   0.59936   0.00000  Uiso   1.00
H122   H     0.59576   0.36690   0.94353   0.00000  Uiso   1.00
H123   H     0.71893   0.29077   0.65476   0.00000  Uiso   1.00
H124   H     0.73623   0.46359   0.59387   0.00000  Uiso   1.00
H125   H     0.67934   0.12053   0.60119   0.00000  Uiso   1.00
H126   H     0.75844   0.27985   0.76440   0.00000  Uiso   1.00
H127   H     0.72823   0.66821   0.53391   0.00000  Uiso   1.00
H128   H     0.60826   0.94484   0.54937   0.00000  Uiso   1.00
H129   H     0.77507   0.28080   0.89355   0.00000  Uiso   1.00
O130   O     0.64618   0.82674   0.51989   0.00000  Uiso   1.00
O131   O     0.48878   0.87771   0.54018   0.00000  Uiso   1.00
O132   O     0.70763   0.31848   0.99173   0.00000  Uiso   1.00
N133   N     0.58875   0.71034   0.58050   0.00000  Uiso   1.00
N134   N     0.47659   0.03405   0.59494   0.00000  Uiso   1.00
N135   N     0.63253   0.34811   0.91672   0.00000  Uiso   1.00
N136   N     0.68524   0.66401   0.55361   0.00000  Uiso   1.00
N137   N     0.57307   0.98772   0.56805   0.00000  Uiso   1.00
N138   N     0.72902   0.30178   0.88982   0.00000  Uiso   1.00
C139   C     0.94252   0.63170   0.19977   0.00000  Uiso   1.00
C140   C     0.91032   0.54875   0.16033   0.00000  Uiso   1.00
C141   C     0.93699   0.45321   0.14215   0.00000  Uiso   1.00
C142   C     0.89981   0.38822   0.10614   0.00000  Uiso   1.00
C143   C     0.85920   0.25494   0.04749   0.00000  Uiso   1.00
C144   C     0.94123   0.73514   0.16430   0.00000  Uiso   1.00
C145   C     0.99390   0.79631   0.14947   0.00000  Uiso   1.00
C146   C     0.98274   0.88823   0.11680   0.00000  Uiso   1.00
C147   C     0.99012   0.04435   0.06436   0.00000  Uiso   1.00
C148   C     0.89826   0.64856   0.25298   0.00000  Uiso   1.00
C149   C     0.91479   0.63697   0.31271   0.00000  Uiso   1.00
C150   C     0.86744   0.65603   0.35471   0.00000  Uiso   1.00
C151   C     0.80809   0.67773   0.43996   0.00000  Uiso   1.00
C152   C     0.82906   0.68619   0.16813   0.00000  Uiso   1.00
C153   C     0.84869   0.57835   0.14315   0.00000  Uiso   1.00
C154   C     0.81146   0.51349   0.10716   0.00000  Uiso   1.00
C155   C     0.83807   0.41786   0.08893   0.00000  Uiso   1.00
C156   C     0.87961   0.76473   0.14712   0.00000  Uiso   1.00
C157   C     0.86836   0.85659   0.11447   0.00000  Uiso   1.00
C158   C     0.92100   0.91788   0.09959   0.00000  Uiso   1.00
C159   C     0.83662   0.67816   0.23580   0.00000  Uiso   1.00
C160   C     0.78925   0.69725   0.27772   0.00000  Uiso   1.00
C161   C     0.80570   0.68568   0.33750   0.00000  Uiso   1.00
H162   H     0.99050   0.60867   0.21314   0.00000  Uiso   1.00
H163   H     0.98469   0.43034   0.15545   0.00000  Uiso   1.00
H164   H     0.04159   0.77339   0.16277   0.00000  Uiso   1.00
H165   H     0.96248   0.61407   0.32599   0.00000  Uiso   1.00
H166   H     0.95108   0.24569   0.08390   0.00000  Uiso   1.00
H167   H     0.07104   0.96905   0.09936   0.00000  Uiso   1.00
H168   H     0.90424   0.63310   0.44353   0.00000  Uiso   1.00
H169   H     0.78107   0.70923   0.15476   0.00000  Uiso   1.00
H170   H     0.76377   0.53641   0.09387   0.00000  Uiso   1.00
H171   H     0.82066   0.87947   0.10119   0.00000  Uiso   1.00
H172   H     0.74156   0.72015   0.26440   0.00000  Uiso   1.00
H173   H     0.77177   0.33179   0.03391   0.00000  Uiso   1.00
H174   H     0.89174   0.05516   0.04937   0.00000  Uiso   1.00
H175   H     0.72493   0.71920   0.39355   0.00000  Uiso   1.00
O176   O     0.85382   0.17326   0.01989   0.00000  Uiso   1.00
O177   O     0.01122   0.12229   0.04018   0.00000  Uiso   1.00
O178   O     0.79237   0.68152   0.49173   0.00000  Uiso   1.00
N179   N     0.91125   0.28966   0.08050   0.00000  Uiso   1.00
N180   N     0.02341   0.96595   0.09494   0.00000  Uiso   1.00
N181   N     0.86747   0.65189   0.41672   0.00000  Uiso   1.00
N182   N     0.81476   0.33599   0.05361   0.00000  Uiso   1.00
N183   N     0.92693   0.01228   0.06805   0.00000  Uiso   1.00
N184   N     0.77098   0.69822   0.38982   0.00000  Uiso   1.00
C185   C     0.55748   0.13170   0.19977   0.00000  Uiso   1.00
C186   C     0.58968   0.04875   0.16033   0.00000  Uiso   1.00
C187   C     0.56301   0.95321   0.14215   0.00000  Uiso   1.00
C188   C     0.60019   0.88822   0.10614   0.00000  Uiso   1.00
C189   C     0.64080   0.75494   0.04749   0.00000  Uiso   1.00
C190   C     0.55877   0.23514   0.16430   0.00000  Uiso   1.00
C191   C     0.50610   0.29631   0.14947   0.00000  Uiso   1.00
C192   C     0.51726   0.38823   0.11680   0.00000  Uiso   1.00
C193   C     0.50988   0.54435   0.06436   0.00000  Uiso   1.00
C194   C     0.60174   0.14856   0.25298   0.00000  Uiso   1.00
C195   C     0.58521   0.13697   0.31271   0.00000  Uiso   1.00
C196   C     0.63256   0.15603   0.35471   0.00000  Uiso   1.00
C197   C     0.69191   0.17773   0.43996   0.00000  Uiso   1.00
C198   C     0.67094   0.18619   0.16813   0.00000  Uiso   1.00
C199   C     0.65131   0.07835   0.14315   0.00000  Uiso   1.00
C200   C     0.68854   0.01349   0.10716   0.00000  Uiso   1.00
C201   C     0.66193   0.91786   0.08893   0.00000  Uiso   1.00
C202   C     0.62039   0.26473   0.14712   0.00000  Uiso   1.00
C203   C     0.63164   0.35659   0.11447   0.00000  Uiso   1.00
C204   C     0.57900   0.41788   0.09959   0.00000  Uiso   1.00
C205   C     0.66338   0.17816   0.23580   0.00000  Uiso   1.00
C206   C     0.71075   0.19725   0.27772   0.00000  Uiso   1.00
C207   C     0.69430   0.18568   0.33750   0.00000  Uiso   1.00
H208   H     0.50950   0.10867   0.21314   0.00000  Uiso   1.00
H209   H     0.51531   0.93034   0.15545   0.00000  Uiso   1.00
H210   H     0.45841   0.27339   0.16277   0.00000  Uiso   1.00
H211   H     0.53752   0.11407   0.32599   0.00000  Uiso   1.00
H212   H     0.54892   0.74569   0.08390   0.00000  Uiso   1.00
H213   H     0.42896   0.46905   0.09936   0.00000  Uiso   1.00
H214   H     0.59576   0.13310   0.44353   0.00000  Uiso   1.00
H215   H     0.71893   0.20923   0.15476   0.00000  Uiso   1.00
H216   H     0.73623   0.03641   0.09387   0.00000  Uiso   1.00
H217   H     0.67934   0.37947   0.10119   0.00000  Uiso   1.00
H218   H     0.75844   0.22015   0.26440   0.00000  Uiso   1.00
H219   H     0.72823   0.83179   0.03391   0.00000  Uiso   1.00
H220   H     0.60826   0.55516   0.04937   0.00000  Uiso   1.00
H221   H     0.77507   0.21920   0.39355   0.00000  Uiso   1.00
O222   O     0.64618   0.67326   0.01989   0.00000  Uiso   1.00
O223   O     0.48878   0.62229   0.04018   0.00000  Uiso   1.00
O224   O     0.70763   0.18152   0.49173   0.00000  Uiso   1.00
N225   N     0.58875   0.78966   0.08050   0.00000  Uiso   1.00
N226   N     0.47659   0.46595   0.09494   0.00000  Uiso   1.00
N227   N     0.63253   0.15189   0.41672   0.00000  Uiso   1.00
N228   N     0.68524   0.83599   0.05361   0.00000  Uiso   1.00
N229   N     0.57307   0.51228   0.06805   0.00000  Uiso   1.00
N230   N     0.72902   0.19822   0.38982   0.00000  Uiso   1.00
C231   C     0.94252   0.86830   0.69977   0.00000  Uiso   1.00
C232   C     0.91032   0.95125   0.66033   0.00000  Uiso   1.00
C233   C     0.93699   0.04679   0.64215   0.00000  Uiso   1.00
C234   C     0.89981   0.11178   0.60614   0.00000  Uiso   1.00
C235   C     0.85920   0.24506   0.54749   0.00000  Uiso   1.00
C236   C     0.94123   0.76486   0.66430   0.00000  Uiso   1.00
C237   C     0.99390   0.70369   0.64947   0.00000  Uiso   1.00
C238   C     0.98274   0.61177   0.61680   0.00000  Uiso   1.00
C239   C     0.99012   0.45565   0.56436   0.00000  Uiso   1.00
C240   C     0.89826   0.85144   0.75298   0.00000  Uiso   1.00
C241   C     0.91479   0.86303   0.81271   0.00000  Uiso   1.00
C242   C     0.86744   0.84397   0.85471   0.00000  Uiso   1.00
C243   C     0.80809   0.82227   0.93996   0.00000  Uiso   1.00
C244   C     0.82906   0.81381   0.66813   0.00000  Uiso   1.00
C245   C     0.84869   0.92165   0.64315   0.00000  Uiso   1.00
C246   C     0.81146   0.98651   0.60716   0.00000  Uiso   1.00
C247   C     0.83807   0.08214   0.58893   0.00000  Uiso   1.00
C248   C     0.87961   0.73527   0.64712   0.00000  Uiso   1.00
C249   C     0.86836   0.64341   0.61447   0.00000  Uiso   1.00
C250   C     0.92100   0.58212   0.59959   0.00000  Uiso   1.00
C251   C     0.83662   0.82184   0.73580   0.00000  Uiso   1.00
C252   C     0.78925   0.80275   0.77772   0.00000  Uiso   1.00
C253   C     0.80570   0.81432   0.83750   0.00000  Uiso   1.00
H254   H     0.99050   0.89133   0.71314   0.00000  Uiso   1.00
H255   H     0.98469   0.06966   0.65545   0.00000  Uiso   1.00
H256   H     0.04159   0.72661   0.66277   0.00000  Uiso   1.00
H257   H     0.96248   0.88593   0.82599   0.00000  Uiso   1.00
H258   H     0.95108   0.25431   0.58390   0.00000  Uiso   1.00
H259   H     0.07104   0.53095   0.59936   0.00000  Uiso   1.00
H260   H     0.90424   0.86690   0.94353   0.00000  Uiso   1.00
H261   H     0.78107   0.79077   0.65476   0.00000  Uiso   1.00
H262   H     0.76377   0.96359   0.59387   0.00000  Uiso   1.00
H263   H     0.82066   0.62053   0.60119   0.00000  Uiso   1.00
H264   H     0.74156   0.77985   0.76440   0.00000  Uiso   1.00
H265   H     0.77177   0.16821   0.53391   0.00000  Uiso   1.00
H266   H     0.89174   0.44484   0.54937   0.00000  Uiso   1.00
H267   H     0.72493   0.78080   0.89355   0.00000  Uiso   1.00
O268   O     0.85382   0.32674   0.51989   0.00000  Uiso   1.00
O269   O     0.01122   0.37771   0.54018   0.00000  Uiso   1.00
O270   O     0.79237   0.81848   0.99173   0.00000  Uiso   1.00
N271   N     0.91125   0.21034   0.58050   0.00000  Uiso   1.00
N272   N     0.02341   0.53405   0.59494   0.00000  Uiso   1.00
N273   N     0.86747   0.84811   0.91672   0.00000  Uiso   1.00
N274   N     0.81476   0.16401   0.55361   0.00000  Uiso   1.00
N275   N     0.92693   0.48772   0.56805   0.00000  Uiso   1.00
N276   N     0.77098   0.80178   0.88982   0.00000  Uiso   1.00
C277   C     0.44252   0.63170   0.30023   0.00000  Uiso   1.00
C278   C     0.41032   0.54875   0.33967   0.00000  Uiso   1.00
C279   C     0.43699   0.45321   0.35785   0.00000  Uiso   1.00
C280   C     0.39981   0.38822   0.39386   0.00000  Uiso   1.00
C281   C     0.35920   0.25494   0.45251   0.00000  Uiso   1.00
C282   C     0.44123   0.73514   0.33570   0.00000  Uiso   1.00
C283   C     0.49390   0.79631   0.35053   0.00000  Uiso   1.00
C284   C     0.48274   0.88823   0.38320   0.00000  Uiso   1.00
C285   C     0.49012   0.04435   0.43564   0.00000  Uiso   1.00
C286   C     0.39826   0.64856   0.24702   0.00000  Uiso   1.00
C287   C     0.41479   0.63697   0.18729   0.00000  Uiso   1.00
C288   C     0.36744   0.65603   0.14529   0.00000  Uiso   1.00
C289   C     0.30809   0.67773   0.06004   0.00000  Uiso   1.00
C290   C     0.32906   0.68619   0.33187   0.00000  Uiso   1.00
C291   C     0.34869   0.57835   0.35685   0.00000  Uiso   1.00
C292   C     0.31146   0.51349   0.39284   0.00000  Uiso   1.00
C293   C     0.33807   0.41786   0.41107   0.00000  Uiso   1.00
C294   C     0.37961   0.76473   0.35288   0.00000  Uiso   1.00
C295   C     0.36836   0.85659   0.38553   0.00000  Uiso   1.00
C296   C     0.42100   0.91788   0.40041   0.00000  Uiso   1.00
C297   C     0.33662   0.67816   0.26420   0.00000  Uiso   1.00
C298   C     0.28925   0.69725   0.22228   0.00000  Uiso   1.00
C299   C     0.30570   0.68568   0.16250   0.00000  Uiso   1.00
H300   H     0.49050   0.60867   0.28686   0.00000  Uiso   1.00
H301   H     0.48469   0.43034   0.34455   0.00000  Uiso   1.00
H302   H     0.54159   0.77339   0.33723   0.00000  Uiso   1.00
H303   H     0.46248   0.61407   0.17401   0.00000  Uiso   1.00
H304   H     0.45108   0.24569   0.41610   0.00000  Uiso   1.00
H305   H     0.57104   0.96905   0.40064   0.00000  Uiso   1.00
H306   H     0.40424   0.63310   0.05647   0.00000  Uiso   1.00
H307   H     0.28107   0.70923   0.34524   0.00000  Uiso   1.00
H308   H     0.26377   0.53641   0.40613   0.00000  Uiso   1.00
H309   H     0.32066   0.87947   0.39881   0.00000  Uiso   1.00
H310   H     0.24156   0.72015   0.23560   0.00000  Uiso   1.00
H311   H     0.27177   0.33179   0.46609   0.00000  Uiso   1.00
H312   H     0.39174   0.05516   0.45063   0.00000  Uiso   1.00
H313   H     0.22493   0.71920   0.10645   0.00000  Uiso   1.00
O314   O     0.35382   0.17326   0.48011   0.00000  Uiso   1.00
O315   O     0.51122   0.12229   0.45982   0.00000  Uiso   1.00
O316   O     0.29237   0.68152   0.00827   0.00000  Uiso   1.00
N317   N     0.41125   0.28966   0.41950   0.00000  Uiso   1.00
N318   N     0.52341   0.96595   0.40506   0.00000  Uiso   1.00
N319   N     0.36747   0.65189   0.08328   0.00000  Uiso   1.00
N320   N     0.31476   0.33599   0.44639   0.00000  Uiso   1.00
N321   N     0.42693   0.01228   0.43195   0.00000  Uiso   1.00
N322   N     0.27098   0.69822   0.11018   0.00000  Uiso   1.00
C323   C     0.05748   0.36830   0.80023   0.00000  Uiso   1.00
C324   C     0.08968   0.45125   0.83967   0.00000  Uiso   1.00
C325   C     0.06301   0.54679   0.85785   0.00000  Uiso   1.00
C326   C     0.10019   0.61178   0.89386   0.00000  Uiso   1.00
C327   C     0.14080   0.74506   0.95251   0.00000  Uiso   1.00
C328   C     0.05877   0.26486   0.83570   0.00000  Uiso   1.00
C329   C     0.00610   0.20369   0.85053   0.00000  Uiso   1.00
C330   C     0.01726   0.11177   0.88320   0.00000  Uiso   1.00
C331   C     0.00988   0.95565   0.93564   0.00000  Uiso   1.00
C332   C     0.10174   0.35144   0.74702   0.00000  Uiso   1.00
C333   C     0.08521   0.36303   0.68729   0.00000  Uiso   1.00
C334   C     0.13256   0.34397   0.64529   0.00000  Uiso   1.00
C335   C     0.19191   0.32227   0.56004   0.00000  Uiso   1.00
C336   C     0.17094   0.31381   0.83187   0.00000  Uiso   1.00
C337   C     0.15131   0.42165   0.85685   0.00000  Uiso   1.00
C338   C     0.18854   0.48651   0.89284   0.00000  Uiso   1.00
C339   C     0.16193   0.58214   0.91107   0.00000  Uiso   1.00
C340   C     0.12039   0.23527   0.85288   0.00000  Uiso   1.00
C341   C     0.13164   0.14341   0.88553   0.00000  Uiso   1.00
C342   C     0.07900   0.08212   0.90041   0.00000  Uiso   1.00
C343   C     0.16338   0.32184   0.76420   0.00000  Uiso   1.00
C344   C     0.21075   0.30275   0.72228   0.00000  Uiso   1.00
C345   C     0.19430   0.31432   0.66250   0.00000  Uiso   1.00
H346   H     0.00950   0.39133   0.78686   0.00000  Uiso   1.00
H347   H     0.01531   0.56966   0.84455   0.00000  Uiso   1.00
H348   H     0.95841   0.22661   0.83723   0.00000  Uiso   1.00
H349   H     0.03752   0.38593   0.67401   0.00000  Uiso   1.00
H350   H     0.04892   0.75431   0.91610   0.00000  Uiso   1.00
H351   H     0.92896   0.03095   0.90064   0.00000  Uiso   1.00
H352   H     0.09576   0.36690   0.55647   0.00000  Uiso   1.00
H353   H     0.21893   0.29077   0.84524   0.00000  Uiso   1.00
H354   H     0.23623   0.46359   0.90613   0.00000  Uiso   1.00
H355   H     0.17934   0.12053   0.89881   0.00000  Uiso   1.00
H356   H     0.25844   0.27985   0.73560   0.00000  Uiso   1.00
H357   H     0.22823   0.66821   0.96609   0.00000  Uiso   1.00
H358   H     0.10826   0.94484   0.95063   0.00000  Uiso   1.00
H359   H     0.27507   0.28080   0.60645   0.00000  Uiso   1.00
O360   O     0.14618   0.82674   0.98011   0.00000  Uiso   1.00
O361   O     0.98878   0.87771   0.95982   0.00000  Uiso   1.00
O362   O     0.20763   0.31848   0.50827   0.00000  Uiso   1.00
N363   N     0.08875   0.71034   0.91950   0.00000  Uiso   1.00
N364   N     0.97659   0.03405   0.90506   0.00000  Uiso   1.00
N365   N     0.13253   0.34811   0.58328   0.00000  Uiso   1.00
N366   N     0.18524   0.66401   0.94639   0.00000  Uiso   1.00
N367   N     0.07307   0.98772   0.93195   0.00000  Uiso   1.00
N368   N     0.22902   0.30178   0.61018   0.00000  Uiso   1.00
