data_job_02457
_audit_creation_date              2018-12-19
_audit_creation_method            'Materials Studio'
_symmetry_space_group_name_H-M    'P1'
_symmetry_Int_Tables_number       1
_symmetry_cell_setting            triclinic
loop_
_symmetry_equiv_pos_as_xyz
  x,y,z
_cell_length_a                    14.7258
_cell_length_b                    14.7258
_cell_length_c                    23.2310
_cell_angle_alpha                 90.0000
_cell_angle_beta                  90.0000
_cell_angle_gamma                 90.0000
loop_
_atom_site_label
_atom_site_type_symbol
_atom_site_fract_x
_atom_site_fract_y
_atom_site_fract_z
_atom_site_U_iso_or_equiv
_atom_site_adp_type
_atom_site_occupancy
C1     C     0.44297   0.78283   0.15462   0.00000  Uiso   1.00
C2     C     0.53822   0.80341   0.17683   0.00000  Uiso   1.00
C3     C     0.55886   0.85258   0.22608   0.00000  Uiso   1.00
C4     C     0.65020   0.86394   0.23903   0.00000  Uiso   1.00
C5     C     0.78774   0.90149   0.27883   0.00000  Uiso   1.00
C6     C     0.43964   0.81924   0.09321   0.00000  Uiso   1.00
C7     C     0.37738   0.88172   0.07216   0.00000  Uiso   1.00
C8     C     0.38572   0.90640   0.01472   0.00000  Uiso   1.00
C9     C     0.37015   0.96848   0.92469   0.00000  Uiso   1.00
C10    C     0.43705   0.67976   0.14957   0.00000  Uiso   1.00
C11    C     0.37261   0.62495   0.17590   0.00000  Uiso   1.00
C12    C     0.37877   0.53219   0.16590   0.00000  Uiso   1.00
C13    C     0.35919   0.37770   0.16339   0.00000  Uiso   1.00
C14    C     0.56847   0.71557   0.09004   0.00000  Uiso   1.00
C15    C     0.60639   0.76687   0.14175   0.00000  Uiso   1.00
C16    C     0.69772   0.77816   0.15463   0.00000  Uiso   1.00
C17    C     0.71850   0.82734   0.20389   0.00000  Uiso   1.00
C18    C     0.50780   0.78271   0.05813   0.00000  Uiso   1.00
C19    C     0.51623   0.80730   0.00071   0.00000  Uiso   1.00
C20    C     0.45401   0.86980   0.97958   0.00000  Uiso   1.00
C21    C     0.50522   0.64322   0.11450   0.00000  Uiso   1.00
C22    C     0.51147   0.55053   0.10445   0.00000  Uiso   1.00
C23    C     0.44706   0.49559   0.13076   0.00000  Uiso   1.00
H24    H     0.38989   0.81128   0.18193   0.00000  Uiso   1.00
H25    H     0.50609   0.88085   0.25321   0.00000  Uiso   1.00
H26    H     0.32463   0.90998   0.09931   0.00000  Uiso   1.00
H27    H     0.31987   0.65325   0.20304   0.00000  Uiso   1.00
H28    H     0.66498   0.94190   0.31676   0.00000  Uiso   1.00
H29    H     0.28233   0.00329   0.99225   0.00000  Uiso   1.00
H30    H     0.27229   0.46193   0.21098   0.00000  Uiso   1.00
H31    H     0.62155   0.68712   0.06273   0.00000  Uiso   1.00
H32    H     0.75046   0.74988   0.12748   0.00000  Uiso   1.00
H33    H     0.56899   0.77901   0.97357   0.00000  Uiso   1.00
H34    H     0.56424   0.52228   0.07731   0.00000  Uiso   1.00
H35    H     0.86332   0.83560   0.21471   0.00000  Uiso   1.00
H36    H     0.48067   0.89699   0.89020   0.00000  Uiso   1.00
H37    H     0.47063   0.35563   0.10893   0.00000  Uiso   1.00
O38    O     0.84477   0.93230   0.31047   0.00000  Uiso   1.00
O39    O     0.34274   0.01283   0.88472   0.00000  Uiso   1.00
O40    O     0.32958   0.30258   0.17170   0.00000  Uiso   1.00
N41    N     0.69396   0.90825   0.28386   0.00000  Uiso   1.00
N42    N     0.33622   0.96566   0.98047   0.00000  Uiso   1.00
N43    N     0.32682   0.45954   0.18495   0.00000  Uiso   1.00
N44    N     0.80069   0.85106   0.22895   0.00000  Uiso   1.00
N45    N     0.44295   0.90847   0.92555   0.00000  Uiso   1.00
N46    N     0.43355   0.40234   0.13004   0.00000  Uiso   1.00
C47    C     0.55703   0.21717   0.65462   0.00000  Uiso   1.00
C48    C     0.46178   0.19659   0.67683   0.00000  Uiso   1.00
C49    C     0.44114   0.14742   0.72608   0.00000  Uiso   1.00
C50    C     0.34980   0.13606   0.73903   0.00000  Uiso   1.00
C51    C     0.21226   0.09851   0.77883   0.00000  Uiso   1.00
C52    C     0.56036   0.18076   0.59321   0.00000  Uiso   1.00
C53    C     0.62262   0.11828   0.57216   0.00000  Uiso   1.00
C54    C     0.61428   0.09360   0.51472   0.00000  Uiso   1.00
C55    C     0.62985   0.03152   0.42469   0.00000  Uiso   1.00
C56    C     0.56295   0.32024   0.64957   0.00000  Uiso   1.00
C57    C     0.62739   0.37505   0.67590   0.00000  Uiso   1.00
C58    C     0.62123   0.46781   0.66590   0.00000  Uiso   1.00
C59    C     0.64081   0.62230   0.66339   0.00000  Uiso   1.00
C60    C     0.43153   0.28443   0.59004   0.00000  Uiso   1.00
C61    C     0.39361   0.23313   0.64175   0.00000  Uiso   1.00
C62    C     0.30228   0.22184   0.65463   0.00000  Uiso   1.00
C63    C     0.28150   0.17266   0.70389   0.00000  Uiso   1.00
C64    C     0.49220   0.21729   0.55813   0.00000  Uiso   1.00
C65    C     0.48377   0.19270   0.50071   0.00000  Uiso   1.00
C66    C     0.54599   0.13020   0.47958   0.00000  Uiso   1.00
C67    C     0.49478   0.35678   0.61450   0.00000  Uiso   1.00
C68    C     0.48853   0.44947   0.60445   0.00000  Uiso   1.00
C69    C     0.55294   0.50441   0.63076   0.00000  Uiso   1.00
H70    H     0.61011   0.18872   0.68193   0.00000  Uiso   1.00
H71    H     0.49391   0.11915   0.75321   0.00000  Uiso   1.00
H72    H     0.67537   0.09002   0.59931   0.00000  Uiso   1.00
H73    H     0.68013   0.34675   0.70304   0.00000  Uiso   1.00
H74    H     0.33502   0.05810   0.81676   0.00000  Uiso   1.00
H75    H     0.71767   0.99671   0.49225   0.00000  Uiso   1.00
H76    H     0.72771   0.53807   0.71098   0.00000  Uiso   1.00
H77    H     0.37845   0.31288   0.56273   0.00000  Uiso   1.00
H78    H     0.24954   0.25012   0.62748   0.00000  Uiso   1.00
H79    H     0.43101   0.22099   0.47357   0.00000  Uiso   1.00
H80    H     0.43576   0.47772   0.57731   0.00000  Uiso   1.00
H81    H     0.13668   0.16440   0.71471   0.00000  Uiso   1.00
H82    H     0.51933   0.10301   0.39020   0.00000  Uiso   1.00
H83    H     0.52937   0.64437   0.60893   0.00000  Uiso   1.00
O84    O     0.15523   0.06770   0.81047   0.00000  Uiso   1.00
O85    O     0.65726   0.98717   0.38472   0.00000  Uiso   1.00
O86    O     0.67042   0.69742   0.67170   0.00000  Uiso   1.00
N87    N     0.30604   0.09175   0.78386   0.00000  Uiso   1.00
N88    N     0.66378   0.03434   0.48047   0.00000  Uiso   1.00
N89    N     0.67318   0.54046   0.68495   0.00000  Uiso   1.00
N90    N     0.19931   0.14894   0.72895   0.00000  Uiso   1.00
N91    N     0.55705   0.09153   0.42555   0.00000  Uiso   1.00
N92    N     0.56645   0.59766   0.63004   0.00000  Uiso   1.00
C93    C     0.71717   0.94297   0.90462   0.00000  Uiso   1.00
C94    C     0.69659   0.03822   0.92683   0.00000  Uiso   1.00
C95    C     0.64742   0.05886   0.97608   0.00000  Uiso   1.00
C96    C     0.63606   0.15020   0.98903   0.00000  Uiso   1.00
C97    C     0.59851   0.28774   0.02883   0.00000  Uiso   1.00
C98    C     0.68076   0.93964   0.84321   0.00000  Uiso   1.00
C99    C     0.61828   0.87738   0.82216   0.00000  Uiso   1.00
C100   C     0.59360   0.88572   0.76472   0.00000  Uiso   1.00
C101   C     0.53152   0.87015   0.67469   0.00000  Uiso   1.00
C102   C     0.82024   0.93705   0.89957   0.00000  Uiso   1.00
C103   C     0.87505   0.87261   0.92590   0.00000  Uiso   1.00
C104   C     0.96781   0.87877   0.91590   0.00000  Uiso   1.00
C105   C     0.12230   0.85919   0.91339   0.00000  Uiso   1.00
C106   C     0.78443   0.06847   0.84004   0.00000  Uiso   1.00
C107   C     0.73313   0.10639   0.89175   0.00000  Uiso   1.00
C108   C     0.72184   0.19772   0.90463   0.00000  Uiso   1.00
C109   C     0.67266   0.21850   0.95389   0.00000  Uiso   1.00
C110   C     0.71729   0.00780   0.80813   0.00000  Uiso   1.00
C111   C     0.69270   0.01623   0.75071   0.00000  Uiso   1.00
C112   C     0.63020   0.95401   0.72958   0.00000  Uiso   1.00
C113   C     0.85678   0.00522   0.86450   0.00000  Uiso   1.00
C114   C     0.94947   0.01147   0.85445   0.00000  Uiso   1.00
C115   C     0.00441   0.94706   0.88076   0.00000  Uiso   1.00
H116   H     0.68872   0.88989   0.93193   0.00000  Uiso   1.00
H117   H     0.61915   0.00609   0.00321   0.00000  Uiso   1.00
H118   H     0.59002   0.82463   0.84931   0.00000  Uiso   1.00
H119   H     0.84675   0.81987   0.95304   0.00000  Uiso   1.00
H120   H     0.55810   0.16498   0.06676   0.00000  Uiso   1.00
H121   H     0.49671   0.78233   0.74225   0.00000  Uiso   1.00
H122   H     0.03807   0.77229   0.96098   0.00000  Uiso   1.00
H123   H     0.81288   0.12155   0.81273   0.00000  Uiso   1.00
H124   H     0.75012   0.25046   0.87748   0.00000  Uiso   1.00
H125   H     0.72099   0.06899   0.72357   0.00000  Uiso   1.00
H126   H     0.97772   0.06424   0.82731   0.00000  Uiso   1.00
H127   H     0.66440   0.36332   0.96471   0.00000  Uiso   1.00
H128   H     0.60301   0.98067   0.64020   0.00000  Uiso   1.00
H129   H     0.14437   0.97063   0.85893   0.00000  Uiso   1.00
O130   O     0.56770   0.34477   0.06047   0.00000  Uiso   1.00
O131   O     0.48717   0.84274   0.63472   0.00000  Uiso   1.00
O132   O     0.19742   0.82958   0.92170   0.00000  Uiso   1.00
N133   N     0.59175   0.19396   0.03386   0.00000  Uiso   1.00
N134   N     0.53434   0.83622   0.73047   0.00000  Uiso   1.00
N135   N     0.04046   0.82682   0.93495   0.00000  Uiso   1.00
N136   N     0.64894   0.30069   0.97895   0.00000  Uiso   1.00
N137   N     0.59153   0.94295   0.67555   0.00000  Uiso   1.00
N138   N     0.09766   0.93355   0.88004   0.00000  Uiso   1.00
C139   C     0.28283   0.05703   0.40462   0.00000  Uiso   1.00
C140   C     0.30341   0.96178   0.42683   0.00000  Uiso   1.00
C141   C     0.35258   0.94114   0.47608   0.00000  Uiso   1.00
C142   C     0.36394   0.84980   0.48903   0.00000  Uiso   1.00
C143   C     0.40149   0.71226   0.52883   0.00000  Uiso   1.00
C144   C     0.31924   0.06036   0.34321   0.00000  Uiso   1.00
C145   C     0.38172   0.12262   0.32216   0.00000  Uiso   1.00
C146   C     0.40640   0.11428   0.26472   0.00000  Uiso   1.00
C147   C     0.46848   0.12985   0.17469   0.00000  Uiso   1.00
C148   C     0.17976   0.06295   0.39957   0.00000  Uiso   1.00
C149   C     0.12495   0.12739   0.42590   0.00000  Uiso   1.00
C150   C     0.03219   0.12123   0.41590   0.00000  Uiso   1.00
C151   C     0.87770   0.14081   0.41339   0.00000  Uiso   1.00
C152   C     0.21557   0.93153   0.34004   0.00000  Uiso   1.00
C153   C     0.26687   0.89361   0.39175   0.00000  Uiso   1.00
C154   C     0.27816   0.80228   0.40463   0.00000  Uiso   1.00
C155   C     0.32734   0.78150   0.45389   0.00000  Uiso   1.00
C156   C     0.28271   0.99220   0.30813   0.00000  Uiso   1.00
C157   C     0.30730   0.98377   0.25071   0.00000  Uiso   1.00
C158   C     0.36980   0.04599   0.22958   0.00000  Uiso   1.00
C159   C     0.14322   0.99478   0.36450   0.00000  Uiso   1.00
C160   C     0.05053   0.98853   0.35445   0.00000  Uiso   1.00
C161   C     0.99559   0.05294   0.38076   0.00000  Uiso   1.00
H162   H     0.31128   0.11011   0.43193   0.00000  Uiso   1.00
H163   H     0.38085   0.99391   0.50321   0.00000  Uiso   1.00
H164   H     0.40998   0.17537   0.34931   0.00000  Uiso   1.00
H165   H     0.15325   0.18013   0.45304   0.00000  Uiso   1.00
H166   H     0.44190   0.83502   0.56676   0.00000  Uiso   1.00
H167   H     0.50329   0.21767   0.24225   0.00000  Uiso   1.00
H168   H     0.96193   0.22771   0.46098   0.00000  Uiso   1.00
H169   H     0.18712   0.87845   0.31273   0.00000  Uiso   1.00
H170   H     0.24988   0.74954   0.37748   0.00000  Uiso   1.00
H171   H     0.27901   0.93101   0.22357   0.00000  Uiso   1.00
H172   H     0.02228   0.93576   0.32731   0.00000  Uiso   1.00
H173   H     0.33560   0.63668   0.46471   0.00000  Uiso   1.00
H174   H     0.39699   0.01933   0.14020   0.00000  Uiso   1.00
H175   H     0.85563   0.02937   0.35893   0.00000  Uiso   1.00
O176   O     0.43230   0.65523   0.56047   0.00000  Uiso   1.00
O177   O     0.51283   0.15726   0.13472   0.00000  Uiso   1.00
O178   O     0.80258   0.17042   0.42170   0.00000  Uiso   1.00
N179   N     0.40825   0.80604   0.53386   0.00000  Uiso   1.00
N180   N     0.46566   0.16378   0.23047   0.00000  Uiso   1.00
N181   N     0.95954   0.17318   0.43495   0.00000  Uiso   1.00
N182   N     0.35106   0.69931   0.47895   0.00000  Uiso   1.00
N183   N     0.40847   0.05705   0.17555   0.00000  Uiso   1.00
N184   N     0.90234   0.06645   0.38004   0.00000  Uiso   1.00
C185   C     0.05703   0.28283   0.59538   0.00000  Uiso   1.00
C186   C     0.96178   0.30341   0.57317   0.00000  Uiso   1.00
C187   C     0.94114   0.35258   0.52392   0.00000  Uiso   1.00
C188   C     0.84980   0.36394   0.51097   0.00000  Uiso   1.00
C189   C     0.71226   0.40149   0.47117   0.00000  Uiso   1.00
C190   C     0.06036   0.31924   0.65679   0.00000  Uiso   1.00
C191   C     0.12262   0.38172   0.67784   0.00000  Uiso   1.00
C192   C     0.11428   0.40640   0.73528   0.00000  Uiso   1.00
C193   C     0.12985   0.46848   0.82531   0.00000  Uiso   1.00
C194   C     0.06295   0.17976   0.60043   0.00000  Uiso   1.00
C195   C     0.12739   0.12495   0.57410   0.00000  Uiso   1.00
C196   C     0.12123   0.03219   0.58410   0.00000  Uiso   1.00
C197   C     0.14081   0.87770   0.58661   0.00000  Uiso   1.00
C198   C     0.93153   0.21557   0.65996   0.00000  Uiso   1.00
C199   C     0.89361   0.26687   0.60825   0.00000  Uiso   1.00
C200   C     0.80228   0.27816   0.59537   0.00000  Uiso   1.00
C201   C     0.78150   0.32734   0.54611   0.00000  Uiso   1.00
C202   C     0.99220   0.28271   0.69187   0.00000  Uiso   1.00
C203   C     0.98377   0.30730   0.74929   0.00000  Uiso   1.00
C204   C     0.04599   0.36980   0.77042   0.00000  Uiso   1.00
C205   C     0.99478   0.14322   0.63550   0.00000  Uiso   1.00
C206   C     0.98853   0.05053   0.64555   0.00000  Uiso   1.00
C207   C     0.05294   0.99559   0.61924   0.00000  Uiso   1.00
H208   H     0.11011   0.31128   0.56807   0.00000  Uiso   1.00
H209   H     0.99391   0.38085   0.49679   0.00000  Uiso   1.00
H210   H     0.17537   0.40998   0.65069   0.00000  Uiso   1.00
H211   H     0.18013   0.15325   0.54696   0.00000  Uiso   1.00
H212   H     0.83502   0.44190   0.43324   0.00000  Uiso   1.00
H213   H     0.21767   0.50329   0.75775   0.00000  Uiso   1.00
H214   H     0.22771   0.96193   0.53902   0.00000  Uiso   1.00
H215   H     0.87845   0.18712   0.68727   0.00000  Uiso   1.00
H216   H     0.74954   0.24988   0.62252   0.00000  Uiso   1.00
H217   H     0.93101   0.27901   0.77643   0.00000  Uiso   1.00
H218   H     0.93576   0.02228   0.67269   0.00000  Uiso   1.00
H219   H     0.63668   0.33560   0.53529   0.00000  Uiso   1.00
H220   H     0.01933   0.39699   0.85980   0.00000  Uiso   1.00
H221   H     0.02937   0.85563   0.64107   0.00000  Uiso   1.00
O222   O     0.65523   0.43230   0.43953   0.00000  Uiso   1.00
O223   O     0.15726   0.51283   0.86528   0.00000  Uiso   1.00
O224   O     0.17042   0.80258   0.57830   0.00000  Uiso   1.00
N225   N     0.80604   0.40825   0.46614   0.00000  Uiso   1.00
N226   N     0.16378   0.46566   0.76953   0.00000  Uiso   1.00
N227   N     0.17318   0.95954   0.56505   0.00000  Uiso   1.00
N228   N     0.69931   0.35106   0.52105   0.00000  Uiso   1.00
N229   N     0.05705   0.40847   0.82445   0.00000  Uiso   1.00
N230   N     0.06645   0.90234   0.61996   0.00000  Uiso   1.00
C231   C     0.94297   0.71717   0.09538   0.00000  Uiso   1.00
C232   C     0.03822   0.69659   0.07317   0.00000  Uiso   1.00
C233   C     0.05886   0.64742   0.02392   0.00000  Uiso   1.00
C234   C     0.15020   0.63606   0.01097   0.00000  Uiso   1.00
C235   C     0.28774   0.59851   0.97117   0.00000  Uiso   1.00
C236   C     0.93964   0.68076   0.15679   0.00000  Uiso   1.00
C237   C     0.87738   0.61828   0.17784   0.00000  Uiso   1.00
C238   C     0.88572   0.59360   0.23528   0.00000  Uiso   1.00
C239   C     0.87015   0.53152   0.32531   0.00000  Uiso   1.00
C240   C     0.93705   0.82024   0.10043   0.00000  Uiso   1.00
C241   C     0.87261   0.87505   0.07410   0.00000  Uiso   1.00
C242   C     0.87877   0.96781   0.08410   0.00000  Uiso   1.00
C243   C     0.85919   0.12230   0.08661   0.00000  Uiso   1.00
C244   C     0.06847   0.78443   0.15996   0.00000  Uiso   1.00
C245   C     0.10639   0.73313   0.10825   0.00000  Uiso   1.00
C246   C     0.19772   0.72184   0.09537   0.00000  Uiso   1.00
C247   C     0.21850   0.67266   0.04611   0.00000  Uiso   1.00
C248   C     0.00780   0.71729   0.19187   0.00000  Uiso   1.00
C249   C     0.01623   0.69270   0.24929   0.00000  Uiso   1.00
C250   C     0.95401   0.63020   0.27042   0.00000  Uiso   1.00
C251   C     0.00522   0.85678   0.13550   0.00000  Uiso   1.00
C252   C     0.01147   0.94947   0.14555   0.00000  Uiso   1.00
C253   C     0.94706   0.00441   0.11924   0.00000  Uiso   1.00
H254   H     0.88989   0.68872   0.06807   0.00000  Uiso   1.00
H255   H     0.00609   0.61915   0.99679   0.00000  Uiso   1.00
H256   H     0.82463   0.59002   0.15069   0.00000  Uiso   1.00
H257   H     0.81987   0.84675   0.04696   0.00000  Uiso   1.00
H258   H     0.16498   0.55810   0.93324   0.00000  Uiso   1.00
H259   H     0.78233   0.49671   0.25775   0.00000  Uiso   1.00
H260   H     0.77229   0.03807   0.03902   0.00000  Uiso   1.00
H261   H     0.12155   0.81288   0.18727   0.00000  Uiso   1.00
H262   H     0.25046   0.75012   0.12252   0.00000  Uiso   1.00
H263   H     0.06899   0.72099   0.27643   0.00000  Uiso   1.00
H264   H     0.06424   0.97772   0.17269   0.00000  Uiso   1.00
H265   H     0.36332   0.66440   0.03529   0.00000  Uiso   1.00
H266   H     0.98067   0.60301   0.35980   0.00000  Uiso   1.00
H267   H     0.97063   0.14437   0.14107   0.00000  Uiso   1.00
O268   O     0.34477   0.56770   0.93953   0.00000  Uiso   1.00
O269   O     0.84274   0.48717   0.36528   0.00000  Uiso   1.00
O270   O     0.82958   0.19742   0.07830   0.00000  Uiso   1.00
N271   N     0.19396   0.59175   0.96614   0.00000  Uiso   1.00
N272   N     0.83622   0.53434   0.26953   0.00000  Uiso   1.00
N273   N     0.82682   0.04046   0.06505   0.00000  Uiso   1.00
N274   N     0.30069   0.64894   0.02105   0.00000  Uiso   1.00
N275   N     0.94295   0.59153   0.32445   0.00000  Uiso   1.00
N276   N     0.93355   0.09766   0.11996   0.00000  Uiso   1.00
C277   C     0.78283   0.44297   0.84538   0.00000  Uiso   1.00
C278   C     0.80341   0.53822   0.82317   0.00000  Uiso   1.00
C279   C     0.85258   0.55886   0.77392   0.00000  Uiso   1.00
C280   C     0.86394   0.65020   0.76097   0.00000  Uiso   1.00
C281   C     0.90149   0.78774   0.72117   0.00000  Uiso   1.00
C282   C     0.81924   0.43964   0.90679   0.00000  Uiso   1.00
C283   C     0.88172   0.37738   0.92784   0.00000  Uiso   1.00
C284   C     0.90640   0.38572   0.98528   0.00000  Uiso   1.00
C285   C     0.96848   0.37015   0.07531   0.00000  Uiso   1.00
C286   C     0.67976   0.43705   0.85043   0.00000  Uiso   1.00
C287   C     0.62495   0.37261   0.82410   0.00000  Uiso   1.00
C288   C     0.53219   0.37877   0.83410   0.00000  Uiso   1.00
C289   C     0.37770   0.35919   0.83661   0.00000  Uiso   1.00
C290   C     0.71557   0.56847   0.90996   0.00000  Uiso   1.00
C291   C     0.76687   0.60639   0.85825   0.00000  Uiso   1.00
C292   C     0.77816   0.69772   0.84537   0.00000  Uiso   1.00
C293   C     0.82734   0.71850   0.79611   0.00000  Uiso   1.00
C294   C     0.78271   0.50780   0.94187   0.00000  Uiso   1.00
C295   C     0.80730   0.51623   0.99929   0.00000  Uiso   1.00
C296   C     0.86980   0.45401   0.02042   0.00000  Uiso   1.00
C297   C     0.64322   0.50522   0.88550   0.00000  Uiso   1.00
C298   C     0.55053   0.51147   0.89555   0.00000  Uiso   1.00
C299   C     0.49559   0.44706   0.86924   0.00000  Uiso   1.00
H300   H     0.81128   0.38989   0.81807   0.00000  Uiso   1.00
H301   H     0.88085   0.50609   0.74679   0.00000  Uiso   1.00
H302   H     0.90998   0.32463   0.90069   0.00000  Uiso   1.00
H303   H     0.65325   0.31987   0.79696   0.00000  Uiso   1.00
H304   H     0.94190   0.66498   0.68324   0.00000  Uiso   1.00
H305   H     0.00329   0.28233   0.00775   0.00000  Uiso   1.00
H306   H     0.46193   0.27229   0.78902   0.00000  Uiso   1.00
H307   H     0.68712   0.62155   0.93727   0.00000  Uiso   1.00
H308   H     0.74988   0.75046   0.87252   0.00000  Uiso   1.00
H309   H     0.77901   0.56899   0.02643   0.00000  Uiso   1.00
H310   H     0.52228   0.56424   0.92269   0.00000  Uiso   1.00
H311   H     0.83560   0.86332   0.78529   0.00000  Uiso   1.00
H312   H     0.89699   0.48067   0.10980   0.00000  Uiso   1.00
H313   H     0.35563   0.47063   0.89107   0.00000  Uiso   1.00
O314   O     0.93230   0.84477   0.68953   0.00000  Uiso   1.00
O315   O     0.01283   0.34274   0.11528   0.00000  Uiso   1.00
O316   O     0.30258   0.32958   0.82830   0.00000  Uiso   1.00
N317   N     0.90825   0.69396   0.71614   0.00000  Uiso   1.00
N318   N     0.96566   0.33622   0.01953   0.00000  Uiso   1.00
N319   N     0.45954   0.32682   0.81505   0.00000  Uiso   1.00
N320   N     0.85106   0.80069   0.77105   0.00000  Uiso   1.00
N321   N     0.90847   0.44295   0.07445   0.00000  Uiso   1.00
N322   N     0.40234   0.43355   0.86996   0.00000  Uiso   1.00
C323   C     0.21717   0.55703   0.34538   0.00000  Uiso   1.00
C324   C     0.19659   0.46178   0.32317   0.00000  Uiso   1.00
C325   C     0.14742   0.44114   0.27392   0.00000  Uiso   1.00
C326   C     0.13606   0.34980   0.26097   0.00000  Uiso   1.00
C327   C     0.09851   0.21226   0.22117   0.00000  Uiso   1.00
C328   C     0.18076   0.56036   0.40679   0.00000  Uiso   1.00
C329   C     0.11828   0.62262   0.42784   0.00000  Uiso   1.00
C330   C     0.09360   0.61428   0.48528   0.00000  Uiso   1.00
C331   C     0.03152   0.62985   0.57531   0.00000  Uiso   1.00
C332   C     0.32024   0.56295   0.35043   0.00000  Uiso   1.00
C333   C     0.37505   0.62739   0.32410   0.00000  Uiso   1.00
C334   C     0.46781   0.62123   0.33410   0.00000  Uiso   1.00
C335   C     0.62230   0.64081   0.33661   0.00000  Uiso   1.00
C336   C     0.28443   0.43153   0.40996   0.00000  Uiso   1.00
C337   C     0.23313   0.39361   0.35825   0.00000  Uiso   1.00
C338   C     0.22184   0.30228   0.34537   0.00000  Uiso   1.00
C339   C     0.17266   0.28150   0.29611   0.00000  Uiso   1.00
C340   C     0.21729   0.49220   0.44187   0.00000  Uiso   1.00
C341   C     0.19270   0.48377   0.49929   0.00000  Uiso   1.00
C342   C     0.13020   0.54599   0.52042   0.00000  Uiso   1.00
C343   C     0.35678   0.49478   0.38550   0.00000  Uiso   1.00
C344   C     0.44947   0.48853   0.39555   0.00000  Uiso   1.00
C345   C     0.50441   0.55294   0.36924   0.00000  Uiso   1.00
H346   H     0.18872   0.61011   0.31807   0.00000  Uiso   1.00
H347   H     0.11915   0.49391   0.24679   0.00000  Uiso   1.00
H348   H     0.09002   0.67537   0.40069   0.00000  Uiso   1.00
H349   H     0.34675   0.68013   0.29696   0.00000  Uiso   1.00
H350   H     0.05810   0.33502   0.18324   0.00000  Uiso   1.00
H351   H     0.99671   0.71767   0.50775   0.00000  Uiso   1.00
H352   H     0.53807   0.72771   0.28902   0.00000  Uiso   1.00
H353   H     0.31288   0.37845   0.43727   0.00000  Uiso   1.00
H354   H     0.25012   0.24954   0.37252   0.00000  Uiso   1.00
H355   H     0.22099   0.43101   0.52643   0.00000  Uiso   1.00
H356   H     0.47772   0.43576   0.42269   0.00000  Uiso   1.00
H357   H     0.16440   0.13668   0.28529   0.00000  Uiso   1.00
H358   H     0.10301   0.51933   0.60980   0.00000  Uiso   1.00
H359   H     0.64437   0.52937   0.39107   0.00000  Uiso   1.00
O360   O     0.06770   0.15523   0.18953   0.00000  Uiso   1.00
O361   O     0.98717   0.65726   0.61528   0.00000  Uiso   1.00
O362   O     0.69742   0.67042   0.32830   0.00000  Uiso   1.00
N363   N     0.09175   0.30604   0.21614   0.00000  Uiso   1.00
N364   N     0.03434   0.66378   0.51953   0.00000  Uiso   1.00
N365   N     0.54046   0.67318   0.31505   0.00000  Uiso   1.00
N366   N     0.14894   0.19931   0.27105   0.00000  Uiso   1.00
N367   N     0.09153   0.55705   0.57445   0.00000  Uiso   1.00
N368   N     0.59766   0.56645   0.36996   0.00000  Uiso   1.00
