data_job_02731
_audit_creation_date              2018-12-19
_audit_creation_method            'Materials Studio'
_symmetry_space_group_name_H-M    'P1'
_symmetry_Int_Tables_number       1
_symmetry_cell_setting            triclinic
loop_
_symmetry_equiv_pos_as_xyz
  x,y,z
_cell_length_a                    23.2775
_cell_length_b                    10.4304
_cell_length_c                    28.1959
_cell_angle_alpha                 90.0000
_cell_angle_beta                  125.7734
_cell_angle_gamma                 90.0000
loop_
_atom_site_label
_atom_site_type_symbol
_atom_site_fract_x
_atom_site_fract_y
_atom_site_fract_z
_atom_site_U_iso_or_equiv
_atom_site_adp_type
_atom_site_occupancy
C1     C     0.65972   0.97056   0.72298   0.00000  Uiso   1.00
C2     C     0.59917   0.87920   0.70549   0.00000  Uiso   1.00
C3     C     0.59777   0.74878   0.69513   0.00000  Uiso   1.00
C4     C     0.53750   0.68193   0.67958   0.00000  Uiso   1.00
C5     C     0.45209   0.53074   0.65315   0.00000  Uiso   1.00
C6     C     0.62750   0.07683   0.67720   0.00000  Uiso   1.00
C7     C     0.64994   0.11259   0.64306   0.00000  Uiso   1.00
C8     C     0.61353   0.21211   0.60371   0.00000  Uiso   1.00
C9     C     0.57215   0.36781   0.53339   0.00000  Uiso   1.00
C10    C     0.68085   0.03321   0.77994   0.00000  Uiso   1.00
C11    C     0.74815   0.03231   0.83219   0.00000  Uiso   1.00
C12    C     0.75665   0.09514   0.87933   0.00000  Uiso   1.00
C13    C     0.79810   0.18310   0.96855   0.00000  Uiso   1.00
C14    C     0.55517   0.08375   0.71380   0.00000  Uiso   1.00
C15    C     0.54238   0.94069   0.70050   0.00000  Uiso   1.00
C16    C     0.48209   0.87402   0.68497   0.00000  Uiso   1.00
C17    C     0.48061   0.74352   0.67459   0.00000  Uiso   1.00
C18    C     0.57071   0.13832   0.67221   0.00000  Uiso   1.00
C19    C     0.53426   0.23782   0.63290   0.00000  Uiso   1.00
C20    C     0.55663   0.27371   0.59871   0.00000  Uiso   1.00
C21    C     0.62406   0.09469   0.77496   0.00000  Uiso   1.00
C22    C     0.63246   0.15754   0.82203   0.00000  Uiso   1.00
C23    C     0.69976   0.15673   0.87434   0.00000  Uiso   1.00
H24    H     0.70394   0.92270   0.72686   0.00000  Uiso   1.00
H25    H     0.64173   0.70124   0.69898   0.00000  Uiso   1.00
H26    H     0.69390   0.06499   0.64693   0.00000  Uiso   1.00
H27    H     0.79208   0.98472   0.83603   0.00000  Uiso   1.00
H28    H     0.54770   0.48284   0.66586   0.00000  Uiso   1.00
H29    H     0.65771   0.24986   0.55612   0.00000  Uiso   1.00
H30    H     0.86476   0.08060   0.95487   0.00000  Uiso   1.00
H31    H     0.51095   0.13163   0.70991   0.00000  Uiso   1.00
H32    H     0.43815   0.92163   0.68111   0.00000  Uiso   1.00
H33    H     0.49032   0.28538   0.62906   0.00000  Uiso   1.00
H34    H     0.58850   0.20511   0.81816   0.00000  Uiso   1.00
H35    H     0.38247   0.66171   0.65135   0.00000  Uiso   1.00
H36    H     0.49248   0.42874   0.54162   0.00000  Uiso   1.00
H37    H     0.69953   0.25948   0.94037   0.00000  Uiso   1.00
O38    O     0.42067   0.43037   0.63995   0.00000  Uiso   1.00
O39    O     0.56501   0.43669   0.49598   0.00000  Uiso   1.00
O40    O     0.83665   0.21462   0.01913   0.00000  Uiso   1.00
N41    N     0.51881   0.55375   0.66641   0.00000  Uiso   1.00
N42    N     0.62166   0.27086   0.56381   0.00000  Uiso   1.00
N43    N     0.81523   0.11264   0.93660   0.00000  Uiso   1.00
N44    N     0.42990   0.65000   0.65861   0.00000  Uiso   1.00
N45    N     0.53275   0.36711   0.55600   0.00000  Uiso   1.00
N46    N     0.72632   0.20889   0.92879   0.00000  Uiso   1.00
C47    C     0.15972   0.47056   0.72298   0.00000  Uiso   1.00
C48    C     0.09917   0.37920   0.70549   0.00000  Uiso   1.00
C49    C     0.09777   0.24878   0.69513   0.00000  Uiso   1.00
C50    C     0.03750   0.18193   0.67958   0.00000  Uiso   1.00
C51    C     0.95209   0.03074   0.65315   0.00000  Uiso   1.00
C52    C     0.12750   0.57683   0.67720   0.00000  Uiso   1.00
C53    C     0.14994   0.61259   0.64306   0.00000  Uiso   1.00
C54    C     0.11353   0.71211   0.60371   0.00000  Uiso   1.00
C55    C     0.07215   0.86781   0.53339   0.00000  Uiso   1.00
C56    C     0.18085   0.53321   0.77994   0.00000  Uiso   1.00
C57    C     0.24815   0.53231   0.83219   0.00000  Uiso   1.00
C58    C     0.25665   0.59514   0.87933   0.00000  Uiso   1.00
C59    C     0.29810   0.68310   0.96855   0.00000  Uiso   1.00
C60    C     0.05517   0.58375   0.71380   0.00000  Uiso   1.00
C61    C     0.04238   0.44069   0.70050   0.00000  Uiso   1.00
C62    C     0.98209   0.37402   0.68497   0.00000  Uiso   1.00
C63    C     0.98061   0.24352   0.67459   0.00000  Uiso   1.00
C64    C     0.07071   0.63832   0.67221   0.00000  Uiso   1.00
C65    C     0.03426   0.73782   0.63290   0.00000  Uiso   1.00
C66    C     0.05663   0.77371   0.59871   0.00000  Uiso   1.00
C67    C     0.12406   0.59469   0.77496   0.00000  Uiso   1.00
C68    C     0.13246   0.65754   0.82203   0.00000  Uiso   1.00
C69    C     0.19976   0.65673   0.87434   0.00000  Uiso   1.00
H70    H     0.20394   0.42270   0.72686   0.00000  Uiso   1.00
H71    H     0.14173   0.20124   0.69898   0.00000  Uiso   1.00
H72    H     0.19390   0.56499   0.64693   0.00000  Uiso   1.00
H73    H     0.29208   0.48472   0.83603   0.00000  Uiso   1.00
H74    H     0.04770   0.98284   0.66586   0.00000  Uiso   1.00
H75    H     0.15771   0.74986   0.55612   0.00000  Uiso   1.00
H76    H     0.36476   0.58060   0.95487   0.00000  Uiso   1.00
H77    H     0.01095   0.63163   0.70991   0.00000  Uiso   1.00
H78    H     0.93815   0.42163   0.68111   0.00000  Uiso   1.00
H79    H     0.99032   0.78538   0.62906   0.00000  Uiso   1.00
H80    H     0.08850   0.70511   0.81816   0.00000  Uiso   1.00
H81    H     0.88247   0.16171   0.65135   0.00000  Uiso   1.00
H82    H     0.99248   0.92874   0.54162   0.00000  Uiso   1.00
H83    H     0.19953   0.75948   0.94037   0.00000  Uiso   1.00
O84    O     0.92067   0.93037   0.63995   0.00000  Uiso   1.00
O85    O     0.06501   0.93669   0.49598   0.00000  Uiso   1.00
O86    O     0.33665   0.71462   0.01913   0.00000  Uiso   1.00
N87    N     0.01881   0.05375   0.66641   0.00000  Uiso   1.00
N88    N     0.12166   0.77086   0.56381   0.00000  Uiso   1.00
N89    N     0.31523   0.61264   0.93660   0.00000  Uiso   1.00
N90    N     0.92990   0.15000   0.65861   0.00000  Uiso   1.00
N91    N     0.03275   0.86711   0.55600   0.00000  Uiso   1.00
N92    N     0.22632   0.70889   0.92879   0.00000  Uiso   1.00
C93    C     0.34028   0.97056   0.77702   0.00000  Uiso   1.00
C94    C     0.40083   0.87920   0.79451   0.00000  Uiso   1.00
C95    C     0.40223   0.74878   0.80487   0.00000  Uiso   1.00
C96    C     0.46250   0.68193   0.82042   0.00000  Uiso   1.00
C97    C     0.54791   0.53074   0.84685   0.00000  Uiso   1.00
C98    C     0.37250   0.07683   0.82280   0.00000  Uiso   1.00
C99    C     0.35006   0.11259   0.85694   0.00000  Uiso   1.00
C100   C     0.38647   0.21211   0.89629   0.00000  Uiso   1.00
C101   C     0.42785   0.36781   0.96661   0.00000  Uiso   1.00
C102   C     0.31915   0.03321   0.72006   0.00000  Uiso   1.00
C103   C     0.25185   0.03231   0.66781   0.00000  Uiso   1.00
C104   C     0.24335   0.09514   0.62067   0.00000  Uiso   1.00
C105   C     0.20190   0.18310   0.53145   0.00000  Uiso   1.00
C106   C     0.44483   0.08375   0.78620   0.00000  Uiso   1.00
C107   C     0.45762   0.94069   0.79950   0.00000  Uiso   1.00
C108   C     0.51791   0.87402   0.81503   0.00000  Uiso   1.00
C109   C     0.51939   0.74352   0.82541   0.00000  Uiso   1.00
C110   C     0.42929   0.13832   0.82779   0.00000  Uiso   1.00
C111   C     0.46574   0.23782   0.86710   0.00000  Uiso   1.00
C112   C     0.44337   0.27371   0.90129   0.00000  Uiso   1.00
C113   C     0.37594   0.09469   0.72504   0.00000  Uiso   1.00
C114   C     0.36754   0.15754   0.67797   0.00000  Uiso   1.00
C115   C     0.30024   0.15673   0.62566   0.00000  Uiso   1.00
H116   H     0.29606   0.92270   0.77314   0.00000  Uiso   1.00
H117   H     0.35827   0.70124   0.80102   0.00000  Uiso   1.00
H118   H     0.30610   0.06499   0.85307   0.00000  Uiso   1.00
H119   H     0.20792   0.98472   0.66397   0.00000  Uiso   1.00
H120   H     0.45230   0.48284   0.83414   0.00000  Uiso   1.00
H121   H     0.34229   0.24986   0.94388   0.00000  Uiso   1.00
H122   H     0.13524   0.08060   0.54513   0.00000  Uiso   1.00
H123   H     0.48905   0.13163   0.79009   0.00000  Uiso   1.00
H124   H     0.56185   0.92163   0.81889   0.00000  Uiso   1.00
H125   H     0.50968   0.28538   0.87094   0.00000  Uiso   1.00
H126   H     0.41150   0.20511   0.68184   0.00000  Uiso   1.00
H127   H     0.61753   0.66171   0.84865   0.00000  Uiso   1.00
H128   H     0.50752   0.42874   0.95838   0.00000  Uiso   1.00
H129   H     0.30047   0.25948   0.55963   0.00000  Uiso   1.00
O130   O     0.57933   0.43037   0.86005   0.00000  Uiso   1.00
O131   O     0.43499   0.43669   0.00402   0.00000  Uiso   1.00
O132   O     0.16335   0.21462   0.48087   0.00000  Uiso   1.00
N133   N     0.48119   0.55375   0.83359   0.00000  Uiso   1.00
N134   N     0.37834   0.27086   0.93619   0.00000  Uiso   1.00
N135   N     0.18477   0.11264   0.56340   0.00000  Uiso   1.00
N136   N     0.57010   0.65000   0.84139   0.00000  Uiso   1.00
N137   N     0.46725   0.36711   0.94400   0.00000  Uiso   1.00
N138   N     0.27368   0.20889   0.57121   0.00000  Uiso   1.00
C139   C     0.84028   0.47056   0.77702   0.00000  Uiso   1.00
C140   C     0.90083   0.37920   0.79451   0.00000  Uiso   1.00
C141   C     0.90223   0.24878   0.80487   0.00000  Uiso   1.00
C142   C     0.96250   0.18193   0.82042   0.00000  Uiso   1.00
C143   C     0.04791   0.03074   0.84685   0.00000  Uiso   1.00
C144   C     0.87250   0.57683   0.82280   0.00000  Uiso   1.00
C145   C     0.85006   0.61259   0.85694   0.00000  Uiso   1.00
C146   C     0.88647   0.71211   0.89629   0.00000  Uiso   1.00
C147   C     0.92785   0.86781   0.96661   0.00000  Uiso   1.00
C148   C     0.81915   0.53321   0.72006   0.00000  Uiso   1.00
C149   C     0.75185   0.53231   0.66781   0.00000  Uiso   1.00
C150   C     0.74335   0.59514   0.62067   0.00000  Uiso   1.00
C151   C     0.70190   0.68310   0.53145   0.00000  Uiso   1.00
C152   C     0.94483   0.58375   0.78620   0.00000  Uiso   1.00
C153   C     0.95762   0.44069   0.79950   0.00000  Uiso   1.00
C154   C     0.01791   0.37402   0.81503   0.00000  Uiso   1.00
C155   C     0.01939   0.24352   0.82541   0.00000  Uiso   1.00
C156   C     0.92929   0.63832   0.82779   0.00000  Uiso   1.00
C157   C     0.96574   0.73782   0.86710   0.00000  Uiso   1.00
C158   C     0.94337   0.77371   0.90129   0.00000  Uiso   1.00
C159   C     0.87594   0.59469   0.72504   0.00000  Uiso   1.00
C160   C     0.86754   0.65754   0.67797   0.00000  Uiso   1.00
C161   C     0.80024   0.65673   0.62566   0.00000  Uiso   1.00
H162   H     0.79606   0.42270   0.77314   0.00000  Uiso   1.00
H163   H     0.85827   0.20124   0.80102   0.00000  Uiso   1.00
H164   H     0.80610   0.56499   0.85307   0.00000  Uiso   1.00
H165   H     0.70792   0.48472   0.66397   0.00000  Uiso   1.00
H166   H     0.95230   0.98284   0.83414   0.00000  Uiso   1.00
H167   H     0.84229   0.74986   0.94388   0.00000  Uiso   1.00
H168   H     0.63524   0.58060   0.54513   0.00000  Uiso   1.00
H169   H     0.98905   0.63163   0.79009   0.00000  Uiso   1.00
H170   H     0.06185   0.42163   0.81889   0.00000  Uiso   1.00
H171   H     0.00968   0.78538   0.87094   0.00000  Uiso   1.00
H172   H     0.91150   0.70511   0.68184   0.00000  Uiso   1.00
H173   H     0.11753   0.16171   0.84865   0.00000  Uiso   1.00
H174   H     0.00752   0.92874   0.95838   0.00000  Uiso   1.00
H175   H     0.80047   0.75948   0.55963   0.00000  Uiso   1.00
O176   O     0.07933   0.93037   0.86005   0.00000  Uiso   1.00
O177   O     0.93499   0.93669   0.00402   0.00000  Uiso   1.00
O178   O     0.66335   0.71462   0.48087   0.00000  Uiso   1.00
N179   N     0.98119   0.05375   0.83359   0.00000  Uiso   1.00
N180   N     0.87834   0.77086   0.93619   0.00000  Uiso   1.00
N181   N     0.68477   0.61264   0.56340   0.00000  Uiso   1.00
N182   N     0.07010   0.15000   0.84139   0.00000  Uiso   1.00
N183   N     0.96725   0.86711   0.94400   0.00000  Uiso   1.00
N184   N     0.77368   0.70889   0.57121   0.00000  Uiso   1.00
C185   C     0.34028   0.02944   0.27702   0.00000  Uiso   1.00
C186   C     0.40083   0.12080   0.29451   0.00000  Uiso   1.00
C187   C     0.40223   0.25122   0.30487   0.00000  Uiso   1.00
C188   C     0.46250   0.31807   0.32042   0.00000  Uiso   1.00
C189   C     0.54791   0.46926   0.34685   0.00000  Uiso   1.00
C190   C     0.37250   0.92317   0.32280   0.00000  Uiso   1.00
C191   C     0.35006   0.88741   0.35694   0.00000  Uiso   1.00
C192   C     0.38647   0.78789   0.39629   0.00000  Uiso   1.00
C193   C     0.42785   0.63219   0.46661   0.00000  Uiso   1.00
C194   C     0.31915   0.96679   0.22006   0.00000  Uiso   1.00
C195   C     0.25185   0.96769   0.16781   0.00000  Uiso   1.00
C196   C     0.24335   0.90486   0.12067   0.00000  Uiso   1.00
C197   C     0.20190   0.81690   0.03145   0.00000  Uiso   1.00
C198   C     0.44483   0.91625   0.28620   0.00000  Uiso   1.00
C199   C     0.45762   0.05931   0.29950   0.00000  Uiso   1.00
C200   C     0.51791   0.12598   0.31503   0.00000  Uiso   1.00
C201   C     0.51939   0.25648   0.32541   0.00000  Uiso   1.00
C202   C     0.42929   0.86168   0.32779   0.00000  Uiso   1.00
C203   C     0.46574   0.76218   0.36710   0.00000  Uiso   1.00
C204   C     0.44337   0.72629   0.40129   0.00000  Uiso   1.00
C205   C     0.37594   0.90531   0.22504   0.00000  Uiso   1.00
C206   C     0.36754   0.84246   0.17797   0.00000  Uiso   1.00
C207   C     0.30024   0.84327   0.12566   0.00000  Uiso   1.00
H208   H     0.29606   0.07730   0.27314   0.00000  Uiso   1.00
H209   H     0.35827   0.29876   0.30102   0.00000  Uiso   1.00
H210   H     0.30610   0.93501   0.35307   0.00000  Uiso   1.00
H211   H     0.20792   0.01528   0.16397   0.00000  Uiso   1.00
H212   H     0.45230   0.51716   0.33414   0.00000  Uiso   1.00
H213   H     0.34229   0.75014   0.44388   0.00000  Uiso   1.00
H214   H     0.13524   0.91940   0.04513   0.00000  Uiso   1.00
H215   H     0.48905   0.86837   0.29009   0.00000  Uiso   1.00
H216   H     0.56185   0.07837   0.31889   0.00000  Uiso   1.00
H217   H     0.50968   0.71462   0.37094   0.00000  Uiso   1.00
H218   H     0.41150   0.79489   0.18184   0.00000  Uiso   1.00
H219   H     0.61753   0.33829   0.34865   0.00000  Uiso   1.00
H220   H     0.50752   0.57126   0.45838   0.00000  Uiso   1.00
H221   H     0.30047   0.74052   0.05963   0.00000  Uiso   1.00
O222   O     0.57933   0.56963   0.36005   0.00000  Uiso   1.00
O223   O     0.43499   0.56331   0.50402   0.00000  Uiso   1.00
O224   O     0.16335   0.78538   0.98087   0.00000  Uiso   1.00
N225   N     0.48119   0.44625   0.33359   0.00000  Uiso   1.00
N226   N     0.37834   0.72914   0.43619   0.00000  Uiso   1.00
N227   N     0.18477   0.88736   0.06340   0.00000  Uiso   1.00
N228   N     0.57010   0.35000   0.34139   0.00000  Uiso   1.00
N229   N     0.46725   0.63289   0.44400   0.00000  Uiso   1.00
N230   N     0.27368   0.79111   0.07121   0.00000  Uiso   1.00
C231   C     0.84028   0.52944   0.27702   0.00000  Uiso   1.00
C232   C     0.90083   0.62080   0.29451   0.00000  Uiso   1.00
C233   C     0.90223   0.75122   0.30487   0.00000  Uiso   1.00
C234   C     0.96250   0.81807   0.32042   0.00000  Uiso   1.00
C235   C     0.04791   0.96926   0.34685   0.00000  Uiso   1.00
C236   C     0.87250   0.42317   0.32280   0.00000  Uiso   1.00
C237   C     0.85006   0.38741   0.35694   0.00000  Uiso   1.00
C238   C     0.88647   0.28789   0.39629   0.00000  Uiso   1.00
C239   C     0.92785   0.13219   0.46661   0.00000  Uiso   1.00
C240   C     0.81915   0.46679   0.22006   0.00000  Uiso   1.00
C241   C     0.75185   0.46769   0.16781   0.00000  Uiso   1.00
C242   C     0.74335   0.40486   0.12067   0.00000  Uiso   1.00
C243   C     0.70190   0.31690   0.03145   0.00000  Uiso   1.00
C244   C     0.94483   0.41625   0.28620   0.00000  Uiso   1.00
C245   C     0.95762   0.55931   0.29950   0.00000  Uiso   1.00
C246   C     0.01791   0.62598   0.31503   0.00000  Uiso   1.00
C247   C     0.01939   0.75648   0.32541   0.00000  Uiso   1.00
C248   C     0.92929   0.36168   0.32779   0.00000  Uiso   1.00
C249   C     0.96574   0.26218   0.36710   0.00000  Uiso   1.00
C250   C     0.94337   0.22629   0.40129   0.00000  Uiso   1.00
C251   C     0.87594   0.40531   0.22504   0.00000  Uiso   1.00
C252   C     0.86754   0.34246   0.17797   0.00000  Uiso   1.00
C253   C     0.80024   0.34327   0.12566   0.00000  Uiso   1.00
H254   H     0.79606   0.57730   0.27314   0.00000  Uiso   1.00
H255   H     0.85827   0.79876   0.30102   0.00000  Uiso   1.00
H256   H     0.80610   0.43501   0.35307   0.00000  Uiso   1.00
H257   H     0.70792   0.51528   0.16397   0.00000  Uiso   1.00
H258   H     0.95230   0.01716   0.33414   0.00000  Uiso   1.00
H259   H     0.84229   0.25014   0.44388   0.00000  Uiso   1.00
H260   H     0.63524   0.41940   0.04513   0.00000  Uiso   1.00
H261   H     0.98905   0.36837   0.29009   0.00000  Uiso   1.00
H262   H     0.06185   0.57837   0.31889   0.00000  Uiso   1.00
H263   H     0.00968   0.21462   0.37094   0.00000  Uiso   1.00
H264   H     0.91150   0.29489   0.18184   0.00000  Uiso   1.00
H265   H     0.11753   0.83829   0.34865   0.00000  Uiso   1.00
H266   H     0.00752   0.07126   0.45838   0.00000  Uiso   1.00
H267   H     0.80047   0.24052   0.05963   0.00000  Uiso   1.00
O268   O     0.07933   0.06963   0.36005   0.00000  Uiso   1.00
O269   O     0.93499   0.06331   0.50402   0.00000  Uiso   1.00
O270   O     0.66335   0.28538   0.98087   0.00000  Uiso   1.00
N271   N     0.98119   0.94625   0.33359   0.00000  Uiso   1.00
N272   N     0.87834   0.22914   0.43619   0.00000  Uiso   1.00
N273   N     0.68477   0.38736   0.06340   0.00000  Uiso   1.00
N274   N     0.07010   0.85000   0.34139   0.00000  Uiso   1.00
N275   N     0.96725   0.13289   0.44400   0.00000  Uiso   1.00
N276   N     0.77368   0.29111   0.07121   0.00000  Uiso   1.00
C277   C     0.65972   0.02944   0.22298   0.00000  Uiso   1.00
C278   C     0.59917   0.12080   0.20549   0.00000  Uiso   1.00
C279   C     0.59777   0.25122   0.19513   0.00000  Uiso   1.00
C280   C     0.53750   0.31807   0.17958   0.00000  Uiso   1.00
C281   C     0.45209   0.46926   0.15315   0.00000  Uiso   1.00
C282   C     0.62750   0.92317   0.17720   0.00000  Uiso   1.00
C283   C     0.64994   0.88741   0.14306   0.00000  Uiso   1.00
C284   C     0.61353   0.78789   0.10371   0.00000  Uiso   1.00
C285   C     0.57215   0.63219   0.03339   0.00000  Uiso   1.00
C286   C     0.68085   0.96679   0.27994   0.00000  Uiso   1.00
C287   C     0.74815   0.96769   0.33219   0.00000  Uiso   1.00
C288   C     0.75665   0.90486   0.37933   0.00000  Uiso   1.00
C289   C     0.79810   0.81690   0.46855   0.00000  Uiso   1.00
C290   C     0.55517   0.91625   0.21380   0.00000  Uiso   1.00
C291   C     0.54238   0.05931   0.20050   0.00000  Uiso   1.00
C292   C     0.48209   0.12598   0.18497   0.00000  Uiso   1.00
C293   C     0.48061   0.25648   0.17459   0.00000  Uiso   1.00
C294   C     0.57071   0.86168   0.17221   0.00000  Uiso   1.00
C295   C     0.53426   0.76218   0.13290   0.00000  Uiso   1.00
C296   C     0.55663   0.72629   0.09871   0.00000  Uiso   1.00
C297   C     0.62406   0.90531   0.27496   0.00000  Uiso   1.00
C298   C     0.63246   0.84246   0.32203   0.00000  Uiso   1.00
C299   C     0.69976   0.84327   0.37434   0.00000  Uiso   1.00
H300   H     0.70394   0.07730   0.22686   0.00000  Uiso   1.00
H301   H     0.64173   0.29876   0.19898   0.00000  Uiso   1.00
H302   H     0.69390   0.93501   0.14693   0.00000  Uiso   1.00
H303   H     0.79208   0.01528   0.33603   0.00000  Uiso   1.00
H304   H     0.54770   0.51716   0.16586   0.00000  Uiso   1.00
H305   H     0.65771   0.75014   0.05612   0.00000  Uiso   1.00
H306   H     0.86476   0.91940   0.45487   0.00000  Uiso   1.00
H307   H     0.51095   0.86837   0.20991   0.00000  Uiso   1.00
H308   H     0.43815   0.07837   0.18111   0.00000  Uiso   1.00
H309   H     0.49032   0.71462   0.12906   0.00000  Uiso   1.00
H310   H     0.58850   0.79489   0.31816   0.00000  Uiso   1.00
H311   H     0.38247   0.33829   0.15135   0.00000  Uiso   1.00
H312   H     0.49248   0.57126   0.04162   0.00000  Uiso   1.00
H313   H     0.69953   0.74052   0.44037   0.00000  Uiso   1.00
O314   O     0.42067   0.56963   0.13995   0.00000  Uiso   1.00
O315   O     0.56501   0.56331   0.99598   0.00000  Uiso   1.00
O316   O     0.83665   0.78538   0.51913   0.00000  Uiso   1.00
N317   N     0.51881   0.44625   0.16641   0.00000  Uiso   1.00
N318   N     0.62166   0.72914   0.06381   0.00000  Uiso   1.00
N319   N     0.81523   0.88736   0.43660   0.00000  Uiso   1.00
N320   N     0.42990   0.35000   0.15861   0.00000  Uiso   1.00
N321   N     0.53275   0.63289   0.05600   0.00000  Uiso   1.00
N322   N     0.72632   0.79111   0.42879   0.00000  Uiso   1.00
C323   C     0.15972   0.52944   0.22298   0.00000  Uiso   1.00
C324   C     0.09917   0.62080   0.20549   0.00000  Uiso   1.00
C325   C     0.09777   0.75122   0.19513   0.00000  Uiso   1.00
C326   C     0.03750   0.81807   0.17958   0.00000  Uiso   1.00
C327   C     0.95209   0.96926   0.15315   0.00000  Uiso   1.00
C328   C     0.12750   0.42317   0.17720   0.00000  Uiso   1.00
C329   C     0.14994   0.38741   0.14306   0.00000  Uiso   1.00
C330   C     0.11353   0.28789   0.10371   0.00000  Uiso   1.00
C331   C     0.07215   0.13219   0.03339   0.00000  Uiso   1.00
C332   C     0.18085   0.46679   0.27994   0.00000  Uiso   1.00
C333   C     0.24815   0.46769   0.33219   0.00000  Uiso   1.00
C334   C     0.25665   0.40486   0.37933   0.00000  Uiso   1.00
C335   C     0.29810   0.31690   0.46855   0.00000  Uiso   1.00
C336   C     0.05517   0.41625   0.21380   0.00000  Uiso   1.00
C337   C     0.04238   0.55931   0.20050   0.00000  Uiso   1.00
C338   C     0.98209   0.62598   0.18497   0.00000  Uiso   1.00
C339   C     0.98061   0.75648   0.17459   0.00000  Uiso   1.00
C340   C     0.07071   0.36168   0.17221   0.00000  Uiso   1.00
C341   C     0.03426   0.26218   0.13290   0.00000  Uiso   1.00
C342   C     0.05663   0.22629   0.09871   0.00000  Uiso   1.00
C343   C     0.12406   0.40531   0.27496   0.00000  Uiso   1.00
C344   C     0.13246   0.34246   0.32203   0.00000  Uiso   1.00
C345   C     0.19976   0.34327   0.37434   0.00000  Uiso   1.00
H346   H     0.20394   0.57730   0.22686   0.00000  Uiso   1.00
H347   H     0.14173   0.79876   0.19898   0.00000  Uiso   1.00
H348   H     0.19390   0.43501   0.14693   0.00000  Uiso   1.00
H349   H     0.29208   0.51528   0.33603   0.00000  Uiso   1.00
H350   H     0.04770   0.01716   0.16586   0.00000  Uiso   1.00
H351   H     0.15771   0.25014   0.05612   0.00000  Uiso   1.00
H352   H     0.36476   0.41940   0.45487   0.00000  Uiso   1.00
H353   H     0.01095   0.36837   0.20991   0.00000  Uiso   1.00
H354   H     0.93815   0.57837   0.18111   0.00000  Uiso   1.00
H355   H     0.99032   0.21462   0.12906   0.00000  Uiso   1.00
H356   H     0.08850   0.29489   0.31816   0.00000  Uiso   1.00
H357   H     0.88247   0.83829   0.15135   0.00000  Uiso   1.00
H358   H     0.99248   0.07126   0.04162   0.00000  Uiso   1.00
H359   H     0.19953   0.24052   0.44037   0.00000  Uiso   1.00
O360   O     0.92067   0.06963   0.13995   0.00000  Uiso   1.00
O361   O     0.06501   0.06331   0.99598   0.00000  Uiso   1.00
O362   O     0.33665   0.28538   0.51913   0.00000  Uiso   1.00
N363   N     0.01881   0.94625   0.16641   0.00000  Uiso   1.00
N364   N     0.12166   0.22914   0.06381   0.00000  Uiso   1.00
N365   N     0.31523   0.38736   0.43660   0.00000  Uiso   1.00
N366   N     0.92990   0.85000   0.15861   0.00000  Uiso   1.00
N367   N     0.03275   0.13289   0.05600   0.00000  Uiso   1.00
N368   N     0.22632   0.29111   0.42879   0.00000  Uiso   1.00
