data_job_01628
_audit_creation_date              2018-12-19
_audit_creation_method            'Materials Studio'
_symmetry_space_group_name_H-M    'P1'
_symmetry_Int_Tables_number       1
_symmetry_cell_setting            triclinic
loop_
_symmetry_equiv_pos_as_xyz
  x,y,z
_cell_length_a                    31.8725
_cell_length_b                    7.2246
_cell_length_c                    36.0203
_cell_angle_alpha                 90.0000
_cell_angle_beta                  161.8510
_cell_angle_gamma                 90.0000
loop_
_atom_site_label
_atom_site_type_symbol
_atom_site_fract_x
_atom_site_fract_y
_atom_site_fract_z
_atom_site_U_iso_or_equiv
_atom_site_adp_type
_atom_site_occupancy
C1     C     0.33120   0.18406   0.44864   0.00000  Uiso   1.00
C2     C     0.25280   0.11565   0.41644   0.00000  Uiso   1.00
C3     C     0.15746   0.21639   0.35591   0.00000  Uiso   1.00
C4     C     0.09699   0.12914   0.33509   0.00000  Uiso   1.00
C5     C     0.97017   0.05054   0.27931   0.00000  Uiso   1.00
C6     C     0.47980   0.16264   0.58340   0.00000  Uiso   1.00
C7     C     0.57530   0.30289   0.66324   0.00000  Uiso   1.00
C8     C     0.70592   0.25518   0.78297   0.00000  Uiso   1.00
C9     C     0.93153   0.24951   0.98638   0.00000  Uiso   1.00
C10    C     0.30361   0.04495   0.39453   0.00000  Uiso   1.00
C11    C     0.25102   0.08624   0.31559   0.00000  Uiso   1.00
C12    C     0.23334   0.93944   0.27633   0.00000  Uiso   1.00
C13    C     0.18540   0.75104   0.18649   0.00000  Uiso   1.00
C14    C     0.39336   0.84994   0.51932   0.00000  Uiso   1.00
C15    C     0.28657   0.93416   0.45484   0.00000  Uiso   1.00
C16    C     0.22623   0.84672   0.43411   0.00000  Uiso   1.00
C17    C     0.13080   0.94732   0.37355   0.00000  Uiso   1.00
C18    C     0.51356   0.98116   0.62180   0.00000  Uiso   1.00
C19    C     0.64407   0.93323   0.74144   0.00000  Uiso   1.00
C20    C     0.73975   0.07337   0.82143   0.00000  Uiso   1.00
C21    C     0.33737   0.86346   0.43292   0.00000  Uiso   1.00
C22    C     0.31978   0.71657   0.39378   0.00000  Uiso   1.00
C23    C     0.26717   0.75763   0.31479   0.00000  Uiso   1.00
H24    H     0.30492   0.32536   0.41877   0.00000  Uiso   1.00
H25    H     0.13136   0.35684   0.32622   0.00000  Uiso   1.00
H26    H     0.54915   0.44332   0.63350   0.00000  Uiso   1.00
H27    H     0.22491   0.22670   0.28590   0.00000  Uiso   1.00
H28    H     0.95387   0.31174   0.24059   0.00000  Uiso   1.00
H29    H     0.83479   0.49407   0.88850   0.00000  Uiso   1.00
H30    H     0.15107   0.03729   0.15552   0.00000  Uiso   1.00
H31    H     0.41965   0.70864   0.54922   0.00000  Uiso   1.00
H32    H     0.25237   0.70628   0.46383   0.00000  Uiso   1.00
H33    H     0.67016   0.79277   0.77111   0.00000  Uiso   1.00
H34    H     0.34592   0.57615   0.42351   0.00000  Uiso   1.00
H35    H     0.05209   0.78373   0.35228   0.00000  Uiso   1.00
H36    H     0.93302   0.96606   0.00019   0.00000  Uiso   1.00
H37    H     0.24930   0.50927   0.26721   0.00000  Uiso   1.00
O38    O     0.89090   0.05733   0.23795   0.00000  Uiso   1.00
O39    O     0.04665   0.29654   0.08797   0.00000  Uiso   1.00
O40    O     0.14962   0.69725   0.12632   0.00000  Uiso   1.00
N41    N     0.99992   0.18778   0.27857   0.00000  Uiso   1.00
N42    N     0.82353   0.35826   0.88433   0.00000  Uiso   1.00
N43    N     0.18434   0.93121   0.19908   0.00000  Uiso   1.00
N44    N     0.05277   0.90366   0.33867   0.00000  Uiso   1.00
N45    N     0.87638   0.07414   0.94443   0.00000  Uiso   1.00
N46    N     0.23719   0.64709   0.25918   0.00000  Uiso   1.00
C47    C     0.83120   0.68406   0.44864   0.00000  Uiso   1.00
C48    C     0.75280   0.61565   0.41644   0.00000  Uiso   1.00
C49    C     0.65746   0.71639   0.35591   0.00000  Uiso   1.00
C50    C     0.59699   0.62914   0.33509   0.00000  Uiso   1.00
C51    C     0.47017   0.55054   0.27931   0.00000  Uiso   1.00
C52    C     0.97980   0.66264   0.58340   0.00000  Uiso   1.00
C53    C     0.07530   0.80289   0.66324   0.00000  Uiso   1.00
C54    C     0.20592   0.75518   0.78297   0.00000  Uiso   1.00
C55    C     0.43153   0.74951   0.98638   0.00000  Uiso   1.00
C56    C     0.80361   0.54495   0.39453   0.00000  Uiso   1.00
C57    C     0.75102   0.58624   0.31559   0.00000  Uiso   1.00
C58    C     0.73334   0.43944   0.27633   0.00000  Uiso   1.00
C59    C     0.68540   0.25104   0.18649   0.00000  Uiso   1.00
C60    C     0.89336   0.34994   0.51932   0.00000  Uiso   1.00
C61    C     0.78657   0.43416   0.45484   0.00000  Uiso   1.00
C62    C     0.72623   0.34672   0.43411   0.00000  Uiso   1.00
C63    C     0.63080   0.44732   0.37355   0.00000  Uiso   1.00
C64    C     0.01356   0.48116   0.62180   0.00000  Uiso   1.00
C65    C     0.14407   0.43323   0.74144   0.00000  Uiso   1.00
C66    C     0.23975   0.57337   0.82143   0.00000  Uiso   1.00
C67    C     0.83737   0.36346   0.43292   0.00000  Uiso   1.00
C68    C     0.81978   0.21657   0.39378   0.00000  Uiso   1.00
C69    C     0.76717   0.25763   0.31479   0.00000  Uiso   1.00
H70    H     0.80492   0.82536   0.41877   0.00000  Uiso   1.00
H71    H     0.63136   0.85684   0.32622   0.00000  Uiso   1.00
H72    H     0.04915   0.94332   0.63350   0.00000  Uiso   1.00
H73    H     0.72491   0.72670   0.28590   0.00000  Uiso   1.00
H74    H     0.45387   0.81174   0.24059   0.00000  Uiso   1.00
H75    H     0.33479   0.99407   0.88850   0.00000  Uiso   1.00
H76    H     0.65107   0.53729   0.15552   0.00000  Uiso   1.00
H77    H     0.91965   0.20864   0.54922   0.00000  Uiso   1.00
H78    H     0.75237   0.20628   0.46383   0.00000  Uiso   1.00
H79    H     0.17016   0.29277   0.77111   0.00000  Uiso   1.00
H80    H     0.84592   0.07615   0.42351   0.00000  Uiso   1.00
H81    H     0.55209   0.28373   0.35228   0.00000  Uiso   1.00
H82    H     0.43302   0.46606   0.00019   0.00000  Uiso   1.00
H83    H     0.74930   0.00927   0.26721   0.00000  Uiso   1.00
O84    O     0.39090   0.55733   0.23795   0.00000  Uiso   1.00
O85    O     0.54665   0.79654   0.08797   0.00000  Uiso   1.00
O86    O     0.64962   0.19725   0.12632   0.00000  Uiso   1.00
N87    N     0.49992   0.68778   0.27857   0.00000  Uiso   1.00
N88    N     0.32353   0.85826   0.88433   0.00000  Uiso   1.00
N89    N     0.68434   0.43121   0.19908   0.00000  Uiso   1.00
N90    N     0.55277   0.40366   0.33867   0.00000  Uiso   1.00
N91    N     0.37638   0.57414   0.94443   0.00000  Uiso   1.00
N92    N     0.73719   0.14709   0.25918   0.00000  Uiso   1.00
C93    C     0.66880   0.18406   0.55136   0.00000  Uiso   1.00
C94    C     0.74720   0.11565   0.58356   0.00000  Uiso   1.00
C95    C     0.84254   0.21639   0.64409   0.00000  Uiso   1.00
C96    C     0.90301   0.12914   0.66491   0.00000  Uiso   1.00
C97    C     0.02983   0.05054   0.72069   0.00000  Uiso   1.00
C98    C     0.52020   0.16264   0.41660   0.00000  Uiso   1.00
C99    C     0.42470   0.30289   0.33676   0.00000  Uiso   1.00
C100   C     0.29408   0.25518   0.21703   0.00000  Uiso   1.00
C101   C     0.06847   0.24951   0.01362   0.00000  Uiso   1.00
C102   C     0.69639   0.04495   0.60547   0.00000  Uiso   1.00
C103   C     0.74898   0.08624   0.68441   0.00000  Uiso   1.00
C104   C     0.76666   0.93944   0.72367   0.00000  Uiso   1.00
C105   C     0.81460   0.75104   0.81351   0.00000  Uiso   1.00
C106   C     0.60664   0.84994   0.48068   0.00000  Uiso   1.00
C107   C     0.71343   0.93416   0.54516   0.00000  Uiso   1.00
C108   C     0.77377   0.84672   0.56589   0.00000  Uiso   1.00
C109   C     0.86920   0.94732   0.62645   0.00000  Uiso   1.00
C110   C     0.48644   0.98116   0.37820   0.00000  Uiso   1.00
C111   C     0.35593   0.93323   0.25856   0.00000  Uiso   1.00
C112   C     0.26025   0.07337   0.17857   0.00000  Uiso   1.00
C113   C     0.66263   0.86346   0.56708   0.00000  Uiso   1.00
C114   C     0.68022   0.71657   0.60622   0.00000  Uiso   1.00
C115   C     0.73283   0.75763   0.68521   0.00000  Uiso   1.00
H116   H     0.69508   0.32536   0.58123   0.00000  Uiso   1.00
H117   H     0.86864   0.35684   0.67378   0.00000  Uiso   1.00
H118   H     0.45085   0.44332   0.36650   0.00000  Uiso   1.00
H119   H     0.77509   0.22670   0.71410   0.00000  Uiso   1.00
H120   H     0.04613   0.31174   0.75941   0.00000  Uiso   1.00
H121   H     0.16521   0.49407   0.11150   0.00000  Uiso   1.00
H122   H     0.84893   0.03729   0.84448   0.00000  Uiso   1.00
H123   H     0.58035   0.70864   0.45078   0.00000  Uiso   1.00
H124   H     0.74763   0.70628   0.53617   0.00000  Uiso   1.00
H125   H     0.32984   0.79277   0.22889   0.00000  Uiso   1.00
H126   H     0.65408   0.57615   0.57649   0.00000  Uiso   1.00
H127   H     0.94791   0.78373   0.64772   0.00000  Uiso   1.00
H128   H     0.06698   0.96606   0.99981   0.00000  Uiso   1.00
H129   H     0.75070   0.50927   0.73279   0.00000  Uiso   1.00
O130   O     0.10910   0.05733   0.76205   0.00000  Uiso   1.00
O131   O     0.95335   0.29654   0.91203   0.00000  Uiso   1.00
O132   O     0.85038   0.69725   0.87368   0.00000  Uiso   1.00
N133   N     0.00008   0.18778   0.72143   0.00000  Uiso   1.00
N134   N     0.17647   0.35826   0.11567   0.00000  Uiso   1.00
N135   N     0.81566   0.93121   0.80092   0.00000  Uiso   1.00
N136   N     0.94723   0.90366   0.66133   0.00000  Uiso   1.00
N137   N     0.12362   0.07414   0.05557   0.00000  Uiso   1.00
N138   N     0.76281   0.64709   0.74082   0.00000  Uiso   1.00
C139   C     0.16880   0.68406   0.55136   0.00000  Uiso   1.00
C140   C     0.24720   0.61565   0.58356   0.00000  Uiso   1.00
C141   C     0.34254   0.71639   0.64409   0.00000  Uiso   1.00
C142   C     0.40301   0.62914   0.66491   0.00000  Uiso   1.00
C143   C     0.52983   0.55054   0.72069   0.00000  Uiso   1.00
C144   C     0.02020   0.66264   0.41660   0.00000  Uiso   1.00
C145   C     0.92470   0.80289   0.33676   0.00000  Uiso   1.00
C146   C     0.79408   0.75518   0.21703   0.00000  Uiso   1.00
C147   C     0.56847   0.74951   0.01362   0.00000  Uiso   1.00
C148   C     0.19639   0.54495   0.60547   0.00000  Uiso   1.00
C149   C     0.24898   0.58624   0.68441   0.00000  Uiso   1.00
C150   C     0.26666   0.43944   0.72367   0.00000  Uiso   1.00
C151   C     0.31460   0.25104   0.81351   0.00000  Uiso   1.00
C152   C     0.10664   0.34994   0.48068   0.00000  Uiso   1.00
C153   C     0.21343   0.43416   0.54516   0.00000  Uiso   1.00
C154   C     0.27377   0.34672   0.56589   0.00000  Uiso   1.00
C155   C     0.36920   0.44732   0.62645   0.00000  Uiso   1.00
C156   C     0.98644   0.48116   0.37820   0.00000  Uiso   1.00
C157   C     0.85593   0.43323   0.25856   0.00000  Uiso   1.00
C158   C     0.76025   0.57337   0.17857   0.00000  Uiso   1.00
C159   C     0.16263   0.36346   0.56708   0.00000  Uiso   1.00
C160   C     0.18022   0.21657   0.60622   0.00000  Uiso   1.00
C161   C     0.23283   0.25763   0.68521   0.00000  Uiso   1.00
H162   H     0.19508   0.82536   0.58123   0.00000  Uiso   1.00
H163   H     0.36864   0.85684   0.67378   0.00000  Uiso   1.00
H164   H     0.95085   0.94332   0.36650   0.00000  Uiso   1.00
H165   H     0.27509   0.72670   0.71410   0.00000  Uiso   1.00
H166   H     0.54613   0.81174   0.75941   0.00000  Uiso   1.00
H167   H     0.66521   0.99407   0.11150   0.00000  Uiso   1.00
H168   H     0.34893   0.53729   0.84448   0.00000  Uiso   1.00
H169   H     0.08035   0.20864   0.45078   0.00000  Uiso   1.00
H170   H     0.24763   0.20628   0.53617   0.00000  Uiso   1.00
H171   H     0.82984   0.29277   0.22889   0.00000  Uiso   1.00
H172   H     0.15408   0.07615   0.57649   0.00000  Uiso   1.00
H173   H     0.44791   0.28373   0.64772   0.00000  Uiso   1.00
H174   H     0.56698   0.46606   0.99981   0.00000  Uiso   1.00
H175   H     0.25070   0.00927   0.73279   0.00000  Uiso   1.00
O176   O     0.60910   0.55733   0.76205   0.00000  Uiso   1.00
O177   O     0.45335   0.79654   0.91203   0.00000  Uiso   1.00
O178   O     0.35038   0.19725   0.87368   0.00000  Uiso   1.00
N179   N     0.50008   0.68778   0.72143   0.00000  Uiso   1.00
N180   N     0.67647   0.85826   0.11567   0.00000  Uiso   1.00
N181   N     0.31566   0.43121   0.80092   0.00000  Uiso   1.00
N182   N     0.44723   0.40366   0.66133   0.00000  Uiso   1.00
N183   N     0.62362   0.57414   0.05557   0.00000  Uiso   1.00
N184   N     0.26281   0.14709   0.74082   0.00000  Uiso   1.00
