data_job_03675
_audit_creation_date              2018-12-19
_audit_creation_method            'Materials Studio'
_symmetry_space_group_name_H-M    'P1'
_symmetry_Int_Tables_number       1
_symmetry_cell_setting            triclinic
loop_
_symmetry_equiv_pos_as_xyz
  x,y,z
_cell_length_a                    22.4452
_cell_length_b                    17.4945
_cell_length_c                    14.3267
_cell_angle_alpha                 90.0000
_cell_angle_beta                  90.0000
_cell_angle_gamma                 90.0000
loop_
_atom_site_label
_atom_site_type_symbol
_atom_site_fract_x
_atom_site_fract_y
_atom_site_fract_z
_atom_site_U_iso_or_equiv
_atom_site_adp_type
_atom_site_occupancy
C1     C     0.98022   0.93077   0.83279   0.00000  Uiso   1.00
C2     C     0.00838   0.98392   0.76088   0.00000  Uiso   1.00
C3     C     0.00282   0.06291   0.75886   0.00000  Uiso   1.00
C4     C     0.03200   0.10122   0.68736   0.00000  Uiso   1.00
C5     C     0.07061   0.18974   0.58588   0.00000  Uiso   1.00
C6     C     0.94316   0.87344   0.77749   0.00000  Uiso   1.00
C7     C     0.88276   0.85953   0.78944   0.00000  Uiso   1.00
C8     C     0.85704   0.80484   0.73193   0.00000  Uiso   1.00
C9     C     0.79440   0.72179   0.65628   0.00000  Uiso   1.00
C10    C     0.03140   0.88532   0.87543   0.00000  Uiso   1.00
C11    C     0.04520   0.88138   0.96974   0.00000  Uiso   1.00
C12    C     0.09376   0.83667   0.99468   0.00000  Uiso   1.00
C13    C     0.16813   0.77206   0.07110   0.00000  Uiso   1.00
C14    C     0.04193   0.85836   0.70941   0.00000  Uiso   1.00
C15    C     0.04190   0.94459   0.69387   0.00000  Uiso   1.00
C16    C     0.07110   0.98279   0.62235   0.00000  Uiso   1.00
C17    C     0.06558   0.06183   0.62023   0.00000  Uiso   1.00
C18    C     0.97667   0.83411   0.71047   0.00000  Uiso   1.00
C19    C     0.95104   0.77942   0.65294   0.00000  Uiso   1.00
C20    C     0.89062   0.76544   0.66479   0.00000  Uiso   1.00
C21    C     0.06492   0.84599   0.80842   0.00000  Uiso   1.00
C22    C     0.11347   0.80127   0.83323   0.00000  Uiso   1.00
C23    C     0.12734   0.79726   0.92755   0.00000  Uiso   1.00
H24    H     0.95412   0.96138   0.88496   0.00000  Uiso   1.00
H25    H     0.97688   0.09332   0.81073   0.00000  Uiso   1.00
H26    H     0.85684   0.88997   0.84131   0.00000  Uiso   1.00
H27    H     0.01925   0.91182   0.02157   0.00000  Uiso   1.00
H28    H     0.01687   0.22225   0.69886   0.00000  Uiso   1.00
H29    H     0.76376   0.79346   0.76337   0.00000  Uiso   1.00
H30    H     0.10624   0.83953   0.14349   0.00000  Uiso   1.00
H31    H     0.06802   0.82773   0.65723   0.00000  Uiso   1.00
H32    H     0.09703   0.95234   0.57050   0.00000  Uiso   1.00
H33    H     0.97699   0.74899   0.60109   0.00000  Uiso   1.00
H34    H     0.13940   0.77084   0.78135   0.00000  Uiso   1.00
H35    H     0.11439   0.10783   0.50388   0.00000  Uiso   1.00
H36    H     0.86128   0.67903   0.56839   0.00000  Uiso   1.00
H37    H     0.20376   0.72510   0.94851   0.00000  Uiso   1.00
O38    O     0.08264   0.24942   0.54841   0.00000  Uiso   1.00
O39    O     0.75058   0.68686   0.63306   0.00000  Uiso   1.00
O40    O     0.19990   0.74730   0.13176   0.00000  Uiso   1.00
N41    N     0.03585   0.17822   0.66488   0.00000  Uiso   1.00
N42    N     0.79921   0.77734   0.72519   0.00000  Uiso   1.00
N43    N     0.11938   0.82039   0.08057   0.00000  Uiso   1.00
N44    N     0.08832   0.11665   0.55997   0.00000  Uiso   1.00
N45    N     0.85168   0.71577   0.62027   0.00000  Uiso   1.00
N46    N     0.17186   0.75882   0.97565   0.00000  Uiso   1.00
C47    C     0.51978   0.06923   0.33279   0.00000  Uiso   1.00
C48    C     0.49162   0.01608   0.26088   0.00000  Uiso   1.00
C49    C     0.49718   0.93709   0.25886   0.00000  Uiso   1.00
C50    C     0.46800   0.89878   0.18736   0.00000  Uiso   1.00
C51    C     0.42939   0.81026   0.08588   0.00000  Uiso   1.00
C52    C     0.55684   0.12656   0.27749   0.00000  Uiso   1.00
C53    C     0.61724   0.14047   0.28944   0.00000  Uiso   1.00
C54    C     0.64296   0.19516   0.23193   0.00000  Uiso   1.00
C55    C     0.70560   0.27821   0.15628   0.00000  Uiso   1.00
C56    C     0.46860   0.11468   0.37543   0.00000  Uiso   1.00
C57    C     0.45480   0.11862   0.46974   0.00000  Uiso   1.00
C58    C     0.40624   0.16333   0.49468   0.00000  Uiso   1.00
C59    C     0.33187   0.22794   0.57110   0.00000  Uiso   1.00
C60    C     0.45807   0.14164   0.20941   0.00000  Uiso   1.00
C61    C     0.45810   0.05541   0.19387   0.00000  Uiso   1.00
C62    C     0.42890   0.01721   0.12235   0.00000  Uiso   1.00
C63    C     0.43442   0.93817   0.12023   0.00000  Uiso   1.00
C64    C     0.52333   0.16589   0.21047   0.00000  Uiso   1.00
C65    C     0.54896   0.22058   0.15294   0.00000  Uiso   1.00
C66    C     0.60938   0.23456   0.16479   0.00000  Uiso   1.00
C67    C     0.43508   0.15401   0.30842   0.00000  Uiso   1.00
C68    C     0.38653   0.19873   0.33323   0.00000  Uiso   1.00
C69    C     0.37266   0.20274   0.42755   0.00000  Uiso   1.00
H70    H     0.54588   0.03862   0.38496   0.00000  Uiso   1.00
H71    H     0.52312   0.90668   0.31073   0.00000  Uiso   1.00
H72    H     0.64316   0.11003   0.34131   0.00000  Uiso   1.00
H73    H     0.48075   0.08818   0.52157   0.00000  Uiso   1.00
H74    H     0.48313   0.77775   0.19886   0.00000  Uiso   1.00
H75    H     0.73624   0.20654   0.26337   0.00000  Uiso   1.00
H76    H     0.39376   0.16047   0.64349   0.00000  Uiso   1.00
H77    H     0.43198   0.17227   0.15723   0.00000  Uiso   1.00
H78    H     0.40297   0.04766   0.07050   0.00000  Uiso   1.00
H79    H     0.52301   0.25101   0.10109   0.00000  Uiso   1.00
H80    H     0.36060   0.22916   0.28135   0.00000  Uiso   1.00
H81    H     0.38561   0.89217   0.00388   0.00000  Uiso   1.00
H82    H     0.63872   0.32097   0.06839   0.00000  Uiso   1.00
H83    H     0.29624   0.27490   0.44851   0.00000  Uiso   1.00
O84    O     0.41736   0.75058   0.04841   0.00000  Uiso   1.00
O85    O     0.74942   0.31314   0.13306   0.00000  Uiso   1.00
O86    O     0.30010   0.25270   0.63176   0.00000  Uiso   1.00
N87    N     0.46415   0.82178   0.16488   0.00000  Uiso   1.00
N88    N     0.70079   0.22266   0.22519   0.00000  Uiso   1.00
N89    N     0.38062   0.17961   0.58057   0.00000  Uiso   1.00
N90    N     0.41168   0.88335   0.05997   0.00000  Uiso   1.00
N91    N     0.64832   0.28423   0.12027   0.00000  Uiso   1.00
N92    N     0.32814   0.24118   0.47565   0.00000  Uiso   1.00
C93    C     0.01978   0.43077   0.66721   0.00000  Uiso   1.00
C94    C     0.99162   0.48392   0.73912   0.00000  Uiso   1.00
C95    C     0.99718   0.56291   0.74114   0.00000  Uiso   1.00
C96    C     0.96800   0.60122   0.81264   0.00000  Uiso   1.00
C97    C     0.92939   0.68974   0.91412   0.00000  Uiso   1.00
C98    C     0.05684   0.37344   0.72251   0.00000  Uiso   1.00
C99    C     0.11724   0.35953   0.71056   0.00000  Uiso   1.00
C100   C     0.14296   0.30484   0.76807   0.00000  Uiso   1.00
C101   C     0.20560   0.22179   0.84372   0.00000  Uiso   1.00
C102   C     0.96860   0.38532   0.62457   0.00000  Uiso   1.00
C103   C     0.95480   0.38138   0.53026   0.00000  Uiso   1.00
C104   C     0.90624   0.33667   0.50532   0.00000  Uiso   1.00
C105   C     0.83187   0.27206   0.42890   0.00000  Uiso   1.00
C106   C     0.95807   0.35836   0.79059   0.00000  Uiso   1.00
C107   C     0.95810   0.44459   0.80613   0.00000  Uiso   1.00
C108   C     0.92890   0.48279   0.87765   0.00000  Uiso   1.00
C109   C     0.93442   0.56183   0.87977   0.00000  Uiso   1.00
C110   C     0.02333   0.33411   0.78953   0.00000  Uiso   1.00
C111   C     0.04896   0.27942   0.84706   0.00000  Uiso   1.00
C112   C     0.10938   0.26544   0.83521   0.00000  Uiso   1.00
C113   C     0.93508   0.34599   0.69158   0.00000  Uiso   1.00
C114   C     0.88653   0.30127   0.66677   0.00000  Uiso   1.00
C115   C     0.87266   0.29726   0.57245   0.00000  Uiso   1.00
H116   H     0.04588   0.46138   0.61504   0.00000  Uiso   1.00
H117   H     0.02312   0.59332   0.68927   0.00000  Uiso   1.00
H118   H     0.14316   0.38997   0.65869   0.00000  Uiso   1.00
H119   H     0.98075   0.41182   0.47843   0.00000  Uiso   1.00
H120   H     0.98313   0.72225   0.80114   0.00000  Uiso   1.00
H121   H     0.23624   0.29346   0.73663   0.00000  Uiso   1.00
H122   H     0.89376   0.33953   0.35651   0.00000  Uiso   1.00
H123   H     0.93198   0.32773   0.84277   0.00000  Uiso   1.00
H124   H     0.90297   0.45234   0.92950   0.00000  Uiso   1.00
H125   H     0.02301   0.24899   0.89891   0.00000  Uiso   1.00
H126   H     0.86060   0.27084   0.71865   0.00000  Uiso   1.00
H127   H     0.88561   0.60783   0.99612   0.00000  Uiso   1.00
H128   H     0.13872   0.17903   0.93161   0.00000  Uiso   1.00
H129   H     0.79624   0.22510   0.55149   0.00000  Uiso   1.00
O130   O     0.91736   0.74942   0.95159   0.00000  Uiso   1.00
O131   O     0.24942   0.18686   0.86694   0.00000  Uiso   1.00
O132   O     0.80010   0.24730   0.36824   0.00000  Uiso   1.00
N133   N     0.96415   0.67822   0.83512   0.00000  Uiso   1.00
N134   N     0.20079   0.27734   0.77481   0.00000  Uiso   1.00
N135   N     0.88062   0.32039   0.41943   0.00000  Uiso   1.00
N136   N     0.91168   0.61665   0.94003   0.00000  Uiso   1.00
N137   N     0.14832   0.21577   0.87973   0.00000  Uiso   1.00
N138   N     0.82814   0.25882   0.52435   0.00000  Uiso   1.00
C139   C     0.48022   0.56923   0.16721   0.00000  Uiso   1.00
C140   C     0.50838   0.51608   0.23912   0.00000  Uiso   1.00
C141   C     0.50282   0.43709   0.24114   0.00000  Uiso   1.00
C142   C     0.53200   0.39878   0.31264   0.00000  Uiso   1.00
C143   C     0.57061   0.31026   0.41412   0.00000  Uiso   1.00
C144   C     0.44316   0.62656   0.22251   0.00000  Uiso   1.00
C145   C     0.38276   0.64047   0.21056   0.00000  Uiso   1.00
C146   C     0.35704   0.69516   0.26807   0.00000  Uiso   1.00
C147   C     0.29440   0.77821   0.34372   0.00000  Uiso   1.00
C148   C     0.53140   0.61468   0.12457   0.00000  Uiso   1.00
C149   C     0.54520   0.61862   0.03026   0.00000  Uiso   1.00
C150   C     0.59376   0.66333   0.00532   0.00000  Uiso   1.00
C151   C     0.66813   0.72794   0.92890   0.00000  Uiso   1.00
C152   C     0.54193   0.64164   0.29059   0.00000  Uiso   1.00
C153   C     0.54190   0.55541   0.30613   0.00000  Uiso   1.00
C154   C     0.57110   0.51721   0.37765   0.00000  Uiso   1.00
C155   C     0.56558   0.43817   0.37977   0.00000  Uiso   1.00
C156   C     0.47667   0.66589   0.28953   0.00000  Uiso   1.00
C157   C     0.45104   0.72058   0.34706   0.00000  Uiso   1.00
C158   C     0.39062   0.73456   0.33521   0.00000  Uiso   1.00
C159   C     0.56492   0.65401   0.19158   0.00000  Uiso   1.00
C160   C     0.61347   0.69873   0.16677   0.00000  Uiso   1.00
C161   C     0.62734   0.70274   0.07245   0.00000  Uiso   1.00
H162   H     0.45412   0.53862   0.11504   0.00000  Uiso   1.00
H163   H     0.47688   0.40668   0.18927   0.00000  Uiso   1.00
H164   H     0.35684   0.61003   0.15869   0.00000  Uiso   1.00
H165   H     0.51925   0.58818   0.97843   0.00000  Uiso   1.00
H166   H     0.51687   0.27775   0.30114   0.00000  Uiso   1.00
H167   H     0.26376   0.70654   0.23663   0.00000  Uiso   1.00
H168   H     0.60624   0.66047   0.85651   0.00000  Uiso   1.00
H169   H     0.56802   0.67227   0.34277   0.00000  Uiso   1.00
H170   H     0.59703   0.54766   0.42950   0.00000  Uiso   1.00
H171   H     0.47699   0.75101   0.39891   0.00000  Uiso   1.00
H172   H     0.63940   0.72916   0.21865   0.00000  Uiso   1.00
H173   H     0.61439   0.39217   0.49612   0.00000  Uiso   1.00
H174   H     0.36128   0.82097   0.43161   0.00000  Uiso   1.00
H175   H     0.70376   0.77490   0.05149   0.00000  Uiso   1.00
O176   O     0.58264   0.25058   0.45159   0.00000  Uiso   1.00
O177   O     0.25058   0.81314   0.36694   0.00000  Uiso   1.00
O178   O     0.69990   0.75270   0.86824   0.00000  Uiso   1.00
N179   N     0.53585   0.32178   0.33512   0.00000  Uiso   1.00
N180   N     0.29921   0.72266   0.27481   0.00000  Uiso   1.00
N181   N     0.61938   0.67961   0.91943   0.00000  Uiso   1.00
N182   N     0.58832   0.38335   0.44003   0.00000  Uiso   1.00
N183   N     0.35168   0.78423   0.37973   0.00000  Uiso   1.00
N184   N     0.67186   0.74118   0.02435   0.00000  Uiso   1.00
C185   C     0.01978   0.06923   0.16721   0.00000  Uiso   1.00
C186   C     0.99162   0.01608   0.23912   0.00000  Uiso   1.00
C187   C     0.99718   0.93709   0.24114   0.00000  Uiso   1.00
C188   C     0.96800   0.89878   0.31264   0.00000  Uiso   1.00
C189   C     0.92939   0.81026   0.41412   0.00000  Uiso   1.00
C190   C     0.05684   0.12656   0.22251   0.00000  Uiso   1.00
C191   C     0.11724   0.14047   0.21056   0.00000  Uiso   1.00
C192   C     0.14296   0.19516   0.26807   0.00000  Uiso   1.00
C193   C     0.20560   0.27821   0.34372   0.00000  Uiso   1.00
C194   C     0.96860   0.11468   0.12457   0.00000  Uiso   1.00
C195   C     0.95480   0.11862   0.03026   0.00000  Uiso   1.00
C196   C     0.90624   0.16333   0.00532   0.00000  Uiso   1.00
C197   C     0.83187   0.22794   0.92890   0.00000  Uiso   1.00
C198   C     0.95807   0.14164   0.29059   0.00000  Uiso   1.00
C199   C     0.95810   0.05541   0.30613   0.00000  Uiso   1.00
C200   C     0.92890   0.01721   0.37765   0.00000  Uiso   1.00
C201   C     0.93442   0.93817   0.37977   0.00000  Uiso   1.00
C202   C     0.02333   0.16589   0.28953   0.00000  Uiso   1.00
C203   C     0.04896   0.22058   0.34706   0.00000  Uiso   1.00
C204   C     0.10938   0.23456   0.33521   0.00000  Uiso   1.00
C205   C     0.93508   0.15401   0.19158   0.00000  Uiso   1.00
C206   C     0.88653   0.19873   0.16677   0.00000  Uiso   1.00
C207   C     0.87266   0.20274   0.07245   0.00000  Uiso   1.00
H208   H     0.04588   0.03862   0.11504   0.00000  Uiso   1.00
H209   H     0.02312   0.90668   0.18927   0.00000  Uiso   1.00
H210   H     0.14316   0.11003   0.15869   0.00000  Uiso   1.00
H211   H     0.98075   0.08818   0.97843   0.00000  Uiso   1.00
H212   H     0.98313   0.77775   0.30114   0.00000  Uiso   1.00
H213   H     0.23624   0.20654   0.23663   0.00000  Uiso   1.00
H214   H     0.89376   0.16047   0.85651   0.00000  Uiso   1.00
H215   H     0.93198   0.17227   0.34277   0.00000  Uiso   1.00
H216   H     0.90297   0.04766   0.42950   0.00000  Uiso   1.00
H217   H     0.02301   0.25101   0.39891   0.00000  Uiso   1.00
H218   H     0.86060   0.22916   0.21865   0.00000  Uiso   1.00
H219   H     0.88561   0.89217   0.49612   0.00000  Uiso   1.00
H220   H     0.13872   0.32097   0.43161   0.00000  Uiso   1.00
H221   H     0.79624   0.27490   0.05149   0.00000  Uiso   1.00
O222   O     0.91736   0.75058   0.45159   0.00000  Uiso   1.00
O223   O     0.24942   0.31314   0.36694   0.00000  Uiso   1.00
O224   O     0.80010   0.25270   0.86824   0.00000  Uiso   1.00
N225   N     0.96415   0.82178   0.33512   0.00000  Uiso   1.00
N226   N     0.20079   0.22266   0.27481   0.00000  Uiso   1.00
N227   N     0.88062   0.17961   0.91943   0.00000  Uiso   1.00
N228   N     0.91168   0.88335   0.44003   0.00000  Uiso   1.00
N229   N     0.14832   0.28423   0.37973   0.00000  Uiso   1.00
N230   N     0.82814   0.24118   0.02435   0.00000  Uiso   1.00
C231   C     0.48022   0.93077   0.66721   0.00000  Uiso   1.00
C232   C     0.50838   0.98392   0.73912   0.00000  Uiso   1.00
C233   C     0.50282   0.06291   0.74114   0.00000  Uiso   1.00
C234   C     0.53200   0.10122   0.81264   0.00000  Uiso   1.00
C235   C     0.57061   0.18974   0.91412   0.00000  Uiso   1.00
C236   C     0.44316   0.87344   0.72251   0.00000  Uiso   1.00
C237   C     0.38276   0.85953   0.71056   0.00000  Uiso   1.00
C238   C     0.35704   0.80484   0.76807   0.00000  Uiso   1.00
C239   C     0.29440   0.72179   0.84372   0.00000  Uiso   1.00
C240   C     0.53140   0.88532   0.62457   0.00000  Uiso   1.00
C241   C     0.54520   0.88138   0.53026   0.00000  Uiso   1.00
C242   C     0.59376   0.83667   0.50532   0.00000  Uiso   1.00
C243   C     0.66813   0.77206   0.42890   0.00000  Uiso   1.00
C244   C     0.54193   0.85836   0.79059   0.00000  Uiso   1.00
C245   C     0.54190   0.94459   0.80613   0.00000  Uiso   1.00
C246   C     0.57110   0.98279   0.87765   0.00000  Uiso   1.00
C247   C     0.56558   0.06183   0.87977   0.00000  Uiso   1.00
C248   C     0.47667   0.83411   0.78953   0.00000  Uiso   1.00
C249   C     0.45104   0.77942   0.84706   0.00000  Uiso   1.00
C250   C     0.39062   0.76544   0.83521   0.00000  Uiso   1.00
C251   C     0.56492   0.84599   0.69158   0.00000  Uiso   1.00
C252   C     0.61347   0.80127   0.66677   0.00000  Uiso   1.00
C253   C     0.62734   0.79726   0.57245   0.00000  Uiso   1.00
H254   H     0.45412   0.96138   0.61504   0.00000  Uiso   1.00
H255   H     0.47688   0.09332   0.68927   0.00000  Uiso   1.00
H256   H     0.35684   0.88997   0.65869   0.00000  Uiso   1.00
H257   H     0.51925   0.91182   0.47843   0.00000  Uiso   1.00
H258   H     0.51687   0.22225   0.80114   0.00000  Uiso   1.00
H259   H     0.26376   0.79346   0.73663   0.00000  Uiso   1.00
H260   H     0.60624   0.83953   0.35651   0.00000  Uiso   1.00
H261   H     0.56802   0.82773   0.84277   0.00000  Uiso   1.00
H262   H     0.59703   0.95234   0.92950   0.00000  Uiso   1.00
H263   H     0.47699   0.74899   0.89891   0.00000  Uiso   1.00
H264   H     0.63940   0.77084   0.71865   0.00000  Uiso   1.00
H265   H     0.61439   0.10783   0.99612   0.00000  Uiso   1.00
H266   H     0.36128   0.67903   0.93161   0.00000  Uiso   1.00
H267   H     0.70376   0.72510   0.55149   0.00000  Uiso   1.00
O268   O     0.58264   0.24942   0.95159   0.00000  Uiso   1.00
O269   O     0.25058   0.68686   0.86694   0.00000  Uiso   1.00
O270   O     0.69990   0.74730   0.36824   0.00000  Uiso   1.00
N271   N     0.53585   0.17822   0.83512   0.00000  Uiso   1.00
N272   N     0.29921   0.77734   0.77481   0.00000  Uiso   1.00
N273   N     0.61938   0.82039   0.41943   0.00000  Uiso   1.00
N274   N     0.58832   0.11665   0.94003   0.00000  Uiso   1.00
N275   N     0.35168   0.71577   0.87973   0.00000  Uiso   1.00
N276   N     0.67186   0.75882   0.52435   0.00000  Uiso   1.00
C277   C     0.98022   0.56923   0.33279   0.00000  Uiso   1.00
C278   C     0.00838   0.51608   0.26088   0.00000  Uiso   1.00
C279   C     0.00282   0.43709   0.25886   0.00000  Uiso   1.00
C280   C     0.03200   0.39878   0.18736   0.00000  Uiso   1.00
C281   C     0.07061   0.31026   0.08588   0.00000  Uiso   1.00
C282   C     0.94316   0.62656   0.27749   0.00000  Uiso   1.00
C283   C     0.88276   0.64047   0.28944   0.00000  Uiso   1.00
C284   C     0.85704   0.69516   0.23193   0.00000  Uiso   1.00
C285   C     0.79440   0.77821   0.15628   0.00000  Uiso   1.00
C286   C     0.03140   0.61468   0.37543   0.00000  Uiso   1.00
C287   C     0.04520   0.61862   0.46974   0.00000  Uiso   1.00
C288   C     0.09376   0.66333   0.49468   0.00000  Uiso   1.00
C289   C     0.16813   0.72794   0.57110   0.00000  Uiso   1.00
C290   C     0.04193   0.64164   0.20941   0.00000  Uiso   1.00
C291   C     0.04190   0.55541   0.19387   0.00000  Uiso   1.00
C292   C     0.07110   0.51721   0.12235   0.00000  Uiso   1.00
C293   C     0.06558   0.43817   0.12023   0.00000  Uiso   1.00
C294   C     0.97667   0.66589   0.21047   0.00000  Uiso   1.00
C295   C     0.95104   0.72058   0.15294   0.00000  Uiso   1.00
C296   C     0.89062   0.73456   0.16479   0.00000  Uiso   1.00
C297   C     0.06492   0.65401   0.30842   0.00000  Uiso   1.00
C298   C     0.11347   0.69873   0.33323   0.00000  Uiso   1.00
C299   C     0.12734   0.70274   0.42755   0.00000  Uiso   1.00
H300   H     0.95412   0.53862   0.38496   0.00000  Uiso   1.00
H301   H     0.97688   0.40668   0.31073   0.00000  Uiso   1.00
H302   H     0.85684   0.61003   0.34131   0.00000  Uiso   1.00
H303   H     0.01925   0.58818   0.52157   0.00000  Uiso   1.00
H304   H     0.01687   0.27775   0.19886   0.00000  Uiso   1.00
H305   H     0.76376   0.70654   0.26337   0.00000  Uiso   1.00
H306   H     0.10624   0.66047   0.64349   0.00000  Uiso   1.00
H307   H     0.06802   0.67227   0.15723   0.00000  Uiso   1.00
H308   H     0.09703   0.54766   0.07050   0.00000  Uiso   1.00
H309   H     0.97699   0.75101   0.10109   0.00000  Uiso   1.00
H310   H     0.13940   0.72916   0.28135   0.00000  Uiso   1.00
H311   H     0.11439   0.39217   0.00388   0.00000  Uiso   1.00
H312   H     0.86128   0.82097   0.06839   0.00000  Uiso   1.00
H313   H     0.20376   0.77490   0.44851   0.00000  Uiso   1.00
O314   O     0.08264   0.25058   0.04841   0.00000  Uiso   1.00
O315   O     0.75058   0.81314   0.13306   0.00000  Uiso   1.00
O316   O     0.19990   0.75270   0.63176   0.00000  Uiso   1.00
N317   N     0.03585   0.32178   0.16488   0.00000  Uiso   1.00
N318   N     0.79921   0.72266   0.22519   0.00000  Uiso   1.00
N319   N     0.11938   0.67961   0.58057   0.00000  Uiso   1.00
N320   N     0.08832   0.38335   0.05997   0.00000  Uiso   1.00
N321   N     0.85168   0.78423   0.12027   0.00000  Uiso   1.00
N322   N     0.17186   0.74118   0.47565   0.00000  Uiso   1.00
C323   C     0.51978   0.43077   0.83279   0.00000  Uiso   1.00
C324   C     0.49162   0.48392   0.76088   0.00000  Uiso   1.00
C325   C     0.49718   0.56291   0.75886   0.00000  Uiso   1.00
C326   C     0.46800   0.60122   0.68736   0.00000  Uiso   1.00
C327   C     0.42939   0.68974   0.58588   0.00000  Uiso   1.00
C328   C     0.55684   0.37344   0.77749   0.00000  Uiso   1.00
C329   C     0.61724   0.35953   0.78944   0.00000  Uiso   1.00
C330   C     0.64296   0.30484   0.73193   0.00000  Uiso   1.00
C331   C     0.70560   0.22179   0.65628   0.00000  Uiso   1.00
C332   C     0.46860   0.38532   0.87543   0.00000  Uiso   1.00
C333   C     0.45480   0.38138   0.96974   0.00000  Uiso   1.00
C334   C     0.40624   0.33667   0.99468   0.00000  Uiso   1.00
C335   C     0.33187   0.27206   0.07110   0.00000  Uiso   1.00
C336   C     0.45807   0.35836   0.70941   0.00000  Uiso   1.00
C337   C     0.45810   0.44459   0.69387   0.00000  Uiso   1.00
C338   C     0.42890   0.48279   0.62235   0.00000  Uiso   1.00
C339   C     0.43442   0.56183   0.62023   0.00000  Uiso   1.00
C340   C     0.52333   0.33411   0.71047   0.00000  Uiso   1.00
C341   C     0.54896   0.27942   0.65294   0.00000  Uiso   1.00
C342   C     0.60938   0.26544   0.66479   0.00000  Uiso   1.00
C343   C     0.43508   0.34599   0.80842   0.00000  Uiso   1.00
C344   C     0.38653   0.30127   0.83323   0.00000  Uiso   1.00
C345   C     0.37266   0.29726   0.92755   0.00000  Uiso   1.00
H346   H     0.54588   0.46138   0.88496   0.00000  Uiso   1.00
H347   H     0.52312   0.59332   0.81073   0.00000  Uiso   1.00
H348   H     0.64316   0.38997   0.84131   0.00000  Uiso   1.00
H349   H     0.48075   0.41182   0.02157   0.00000  Uiso   1.00
H350   H     0.48313   0.72225   0.69886   0.00000  Uiso   1.00
H351   H     0.73624   0.29346   0.76337   0.00000  Uiso   1.00
H352   H     0.39376   0.33953   0.14349   0.00000  Uiso   1.00
H353   H     0.43198   0.32773   0.65723   0.00000  Uiso   1.00
H354   H     0.40297   0.45234   0.57050   0.00000  Uiso   1.00
H355   H     0.52301   0.24899   0.60109   0.00000  Uiso   1.00
H356   H     0.36060   0.27084   0.78135   0.00000  Uiso   1.00
H357   H     0.38561   0.60783   0.50388   0.00000  Uiso   1.00
H358   H     0.63872   0.17903   0.56839   0.00000  Uiso   1.00
H359   H     0.29624   0.22510   0.94851   0.00000  Uiso   1.00
O360   O     0.41736   0.74942   0.54841   0.00000  Uiso   1.00
O361   O     0.74942   0.18686   0.63306   0.00000  Uiso   1.00
O362   O     0.30010   0.24730   0.13176   0.00000  Uiso   1.00
N363   N     0.46415   0.67822   0.66488   0.00000  Uiso   1.00
N364   N     0.70079   0.27734   0.72519   0.00000  Uiso   1.00
N365   N     0.38062   0.32039   0.08057   0.00000  Uiso   1.00
N366   N     0.41168   0.61665   0.55997   0.00000  Uiso   1.00
N367   N     0.64832   0.21577   0.62027   0.00000  Uiso   1.00
N368   N     0.32814   0.25882   0.97565   0.00000  Uiso   1.00
