data_job_01467
_audit_creation_date              2018-12-19
_audit_creation_method            'Materials Studio'
_symmetry_space_group_name_H-M    'P1'
_symmetry_Int_Tables_number       1
_symmetry_cell_setting            triclinic
loop_
_symmetry_equiv_pos_as_xyz
  x,y,z
_cell_length_a                    15.0688
_cell_length_b                    29.0842
_cell_length_c                    9.7635
_cell_angle_alpha                 90.0000
_cell_angle_beta                  90.0000
_cell_angle_gamma                 90.0000
loop_
_atom_site_label
_atom_site_type_symbol
_atom_site_fract_x
_atom_site_fract_y
_atom_site_fract_z
_atom_site_U_iso_or_equiv
_atom_site_adp_type
_atom_site_occupancy
C1     C     0.57318   0.09341   0.98570   0.00000  Uiso   1.00
C2     C     0.60909   0.14024   0.02893   0.00000  Uiso   1.00
C3     C     0.67747   0.14774   0.12147   0.00000  Uiso   1.00
C4     C     0.70053   0.19313   0.14734   0.00000  Uiso   1.00
C5     C     0.76291   0.26028   0.22431   0.00000  Uiso   1.00
C6     C     0.47403   0.09437   0.01681   0.00000  Uiso   1.00
C7     C     0.42886   0.06330   0.09916   0.00000  Uiso   1.00
C8     C     0.33822   0.07008   0.11482   0.00000  Uiso   1.00
C9     C     0.19092   0.06600   0.17290   0.00000  Uiso   1.00
C10    C     0.58115   0.09174   0.83009   0.00000  Uiso   1.00
C11    C     0.62603   0.05845   0.75542   0.00000  Uiso   1.00
C12    C     0.62556   0.06301   0.61386   0.00000  Uiso   1.00
C13    C     0.64458   0.05484   0.38203   0.00000  Uiso   1.00
C14    C     0.49252   0.16069   0.86707   0.00000  Uiso   1.00
C15    C     0.56527   0.17678   0.96449   0.00000  Uiso   1.00
C16    C     0.58823   0.22218   0.99022   0.00000  Uiso   1.00
C17    C     0.65664   0.22974   0.08279   0.00000  Uiso   1.00
C18    C     0.43022   0.13091   0.95238   0.00000  Uiso   1.00
C19    C     0.33962   0.13774   0.96791   0.00000  Uiso   1.00
C20    C     0.29433   0.10669   0.05027   0.00000  Uiso   1.00
C21    C     0.53734   0.12828   0.76565   0.00000  Uiso   1.00
C22    C     0.53680   0.13289   0.62418   0.00000  Uiso   1.00
C23    C     0.58167   0.09962   0.54932   0.00000  Uiso   1.00
H24    H     0.60729   0.06496   0.03587   0.00000  Uiso   1.00
H25    H     0.71135   0.11945   0.17133   0.00000  Uiso   1.00
H26    H     0.46278   0.03502   0.14900   0.00000  Uiso   1.00
H27    H     0.65993   0.03018   0.80532   0.00000  Uiso   1.00
H28    H     0.80739   0.19598   0.29312   0.00000  Uiso   1.00
H29    H     0.28326   0.01795   0.24601   0.00000  Uiso   1.00
H30    H     0.69897   0.00773   0.52130   0.00000  Uiso   1.00
H31    H     0.45841   0.18914   0.81691   0.00000  Uiso   1.00
H32    H     0.55432   0.25045   0.94035   0.00000  Uiso   1.00
H33    H     0.30574   0.16602   0.91803   0.00000  Uiso   1.00
H34    H     0.50289   0.16117   0.57435   0.00000  Uiso   1.00
H35    H     0.67993   0.30230   0.10566   0.00000  Uiso   1.00
H36    H     0.15579   0.12427   0.05855   0.00000  Uiso   1.00
H37    H     0.57151   0.11405   0.33384   0.00000  Uiso   1.00
O38    O     0.80941   0.28722   0.28458   0.00000  Uiso   1.00
O39    O     0.12177   0.05365   0.22275   0.00000  Uiso   1.00
O40    O     0.66718   0.04024   0.27195   0.00000  Uiso   1.00
N41    N     0.76424   0.21259   0.23204   0.00000  Uiso   1.00
N42    N     0.27421   0.04614   0.18801   0.00000  Uiso   1.00
N43    N     0.66285   0.03658   0.51047   0.00000  Uiso   1.00
N44    N     0.69566   0.26980   0.13117   0.00000  Uiso   1.00
N45    N     0.20563   0.10336   0.08714   0.00000  Uiso   1.00
N46    N     0.59427   0.09379   0.40959   0.00000  Uiso   1.00
C47    C     0.57318   0.59341   0.48570   0.00000  Uiso   1.00
C48    C     0.60909   0.64024   0.52893   0.00000  Uiso   1.00
C49    C     0.67747   0.64774   0.62147   0.00000  Uiso   1.00
C50    C     0.70053   0.69313   0.64734   0.00000  Uiso   1.00
C51    C     0.76291   0.76028   0.72431   0.00000  Uiso   1.00
C52    C     0.47403   0.59437   0.51681   0.00000  Uiso   1.00
C53    C     0.42886   0.56330   0.59916   0.00000  Uiso   1.00
C54    C     0.33822   0.57008   0.61482   0.00000  Uiso   1.00
C55    C     0.19092   0.56600   0.67290   0.00000  Uiso   1.00
C56    C     0.58115   0.59174   0.33009   0.00000  Uiso   1.00
C57    C     0.62603   0.55845   0.25542   0.00000  Uiso   1.00
C58    C     0.62556   0.56301   0.11386   0.00000  Uiso   1.00
C59    C     0.64458   0.55484   0.88203   0.00000  Uiso   1.00
C60    C     0.49252   0.66069   0.36707   0.00000  Uiso   1.00
C61    C     0.56527   0.67678   0.46449   0.00000  Uiso   1.00
C62    C     0.58823   0.72218   0.49022   0.00000  Uiso   1.00
C63    C     0.65664   0.72974   0.58279   0.00000  Uiso   1.00
C64    C     0.43022   0.63091   0.45238   0.00000  Uiso   1.00
C65    C     0.33962   0.63774   0.46791   0.00000  Uiso   1.00
C66    C     0.29433   0.60669   0.55027   0.00000  Uiso   1.00
C67    C     0.53734   0.62828   0.26565   0.00000  Uiso   1.00
C68    C     0.53680   0.63289   0.12418   0.00000  Uiso   1.00
C69    C     0.58167   0.59962   0.04932   0.00000  Uiso   1.00
H70    H     0.60729   0.56496   0.53587   0.00000  Uiso   1.00
H71    H     0.71135   0.61945   0.67133   0.00000  Uiso   1.00
H72    H     0.46278   0.53502   0.64900   0.00000  Uiso   1.00
H73    H     0.65993   0.53018   0.30532   0.00000  Uiso   1.00
H74    H     0.80739   0.69598   0.79312   0.00000  Uiso   1.00
H75    H     0.28326   0.51795   0.74601   0.00000  Uiso   1.00
H76    H     0.69897   0.50773   0.02130   0.00000  Uiso   1.00
H77    H     0.45841   0.68914   0.31691   0.00000  Uiso   1.00
H78    H     0.55432   0.75045   0.44035   0.00000  Uiso   1.00
H79    H     0.30574   0.66602   0.41803   0.00000  Uiso   1.00
H80    H     0.50289   0.66117   0.07435   0.00000  Uiso   1.00
H81    H     0.67993   0.80230   0.60566   0.00000  Uiso   1.00
H82    H     0.15579   0.62427   0.55855   0.00000  Uiso   1.00
H83    H     0.57151   0.61405   0.83384   0.00000  Uiso   1.00
O84    O     0.80941   0.78722   0.78458   0.00000  Uiso   1.00
O85    O     0.12177   0.55365   0.72275   0.00000  Uiso   1.00
O86    O     0.66718   0.54024   0.77195   0.00000  Uiso   1.00
N87    N     0.76424   0.71259   0.73204   0.00000  Uiso   1.00
N88    N     0.27421   0.54614   0.68801   0.00000  Uiso   1.00
N89    N     0.66285   0.53658   0.01047   0.00000  Uiso   1.00
N90    N     0.69566   0.76980   0.63117   0.00000  Uiso   1.00
N91    N     0.20563   0.60336   0.58714   0.00000  Uiso   1.00
N92    N     0.59427   0.59379   0.90959   0.00000  Uiso   1.00
C93    C     0.42682   0.90659   0.98570   0.00000  Uiso   1.00
C94    C     0.39091   0.85976   0.02893   0.00000  Uiso   1.00
C95    C     0.32253   0.85226   0.12147   0.00000  Uiso   1.00
C96    C     0.29947   0.80687   0.14734   0.00000  Uiso   1.00
C97    C     0.23709   0.73972   0.22431   0.00000  Uiso   1.00
C98    C     0.52597   0.90563   0.01681   0.00000  Uiso   1.00
C99    C     0.57114   0.93670   0.09916   0.00000  Uiso   1.00
C100   C     0.66178   0.92992   0.11482   0.00000  Uiso   1.00
C101   C     0.80908   0.93400   0.17290   0.00000  Uiso   1.00
C102   C     0.41885   0.90826   0.83009   0.00000  Uiso   1.00
C103   C     0.37397   0.94155   0.75542   0.00000  Uiso   1.00
C104   C     0.37444   0.93699   0.61386   0.00000  Uiso   1.00
C105   C     0.35542   0.94516   0.38203   0.00000  Uiso   1.00
C106   C     0.50748   0.83931   0.86707   0.00000  Uiso   1.00
C107   C     0.43473   0.82322   0.96449   0.00000  Uiso   1.00
C108   C     0.41177   0.77782   0.99022   0.00000  Uiso   1.00
C109   C     0.34336   0.77026   0.08279   0.00000  Uiso   1.00
C110   C     0.56978   0.86909   0.95238   0.00000  Uiso   1.00
C111   C     0.66038   0.86226   0.96791   0.00000  Uiso   1.00
C112   C     0.70567   0.89331   0.05027   0.00000  Uiso   1.00
C113   C     0.46266   0.87172   0.76565   0.00000  Uiso   1.00
C114   C     0.46320   0.86711   0.62418   0.00000  Uiso   1.00
C115   C     0.41833   0.90038   0.54932   0.00000  Uiso   1.00
H116   H     0.39271   0.93504   0.03587   0.00000  Uiso   1.00
H117   H     0.28865   0.88055   0.17133   0.00000  Uiso   1.00
H118   H     0.53722   0.96498   0.14900   0.00000  Uiso   1.00
H119   H     0.34007   0.96982   0.80532   0.00000  Uiso   1.00
H120   H     0.19261   0.80402   0.29312   0.00000  Uiso   1.00
H121   H     0.71674   0.98205   0.24601   0.00000  Uiso   1.00
H122   H     0.30103   0.99227   0.52130   0.00000  Uiso   1.00
H123   H     0.54159   0.81086   0.81691   0.00000  Uiso   1.00
H124   H     0.44568   0.74955   0.94035   0.00000  Uiso   1.00
H125   H     0.69426   0.83398   0.91803   0.00000  Uiso   1.00
H126   H     0.49711   0.83883   0.57435   0.00000  Uiso   1.00
H127   H     0.32007   0.69770   0.10566   0.00000  Uiso   1.00
H128   H     0.84421   0.87573   0.05855   0.00000  Uiso   1.00
H129   H     0.42849   0.88595   0.33384   0.00000  Uiso   1.00
O130   O     0.19059   0.71278   0.28458   0.00000  Uiso   1.00
O131   O     0.87823   0.94635   0.22275   0.00000  Uiso   1.00
O132   O     0.33282   0.95976   0.27195   0.00000  Uiso   1.00
N133   N     0.23576   0.78741   0.23204   0.00000  Uiso   1.00
N134   N     0.72579   0.95386   0.18801   0.00000  Uiso   1.00
N135   N     0.33715   0.96342   0.51047   0.00000  Uiso   1.00
N136   N     0.30434   0.73020   0.13117   0.00000  Uiso   1.00
N137   N     0.79437   0.89664   0.08714   0.00000  Uiso   1.00
N138   N     0.40573   0.90621   0.40959   0.00000  Uiso   1.00
C139   C     0.42682   0.40659   0.48570   0.00000  Uiso   1.00
C140   C     0.39091   0.35976   0.52893   0.00000  Uiso   1.00
C141   C     0.32253   0.35226   0.62147   0.00000  Uiso   1.00
C142   C     0.29947   0.30687   0.64734   0.00000  Uiso   1.00
C143   C     0.23709   0.23972   0.72431   0.00000  Uiso   1.00
C144   C     0.52597   0.40563   0.51681   0.00000  Uiso   1.00
C145   C     0.57114   0.43670   0.59916   0.00000  Uiso   1.00
C146   C     0.66178   0.42992   0.61482   0.00000  Uiso   1.00
C147   C     0.80908   0.43400   0.67290   0.00000  Uiso   1.00
C148   C     0.41885   0.40826   0.33009   0.00000  Uiso   1.00
C149   C     0.37397   0.44155   0.25542   0.00000  Uiso   1.00
C150   C     0.37444   0.43699   0.11386   0.00000  Uiso   1.00
C151   C     0.35542   0.44516   0.88203   0.00000  Uiso   1.00
C152   C     0.50748   0.33931   0.36707   0.00000  Uiso   1.00
C153   C     0.43473   0.32322   0.46449   0.00000  Uiso   1.00
C154   C     0.41177   0.27782   0.49022   0.00000  Uiso   1.00
C155   C     0.34336   0.27026   0.58279   0.00000  Uiso   1.00
C156   C     0.56978   0.36909   0.45238   0.00000  Uiso   1.00
C157   C     0.66038   0.36226   0.46791   0.00000  Uiso   1.00
C158   C     0.70567   0.39331   0.55027   0.00000  Uiso   1.00
C159   C     0.46266   0.37172   0.26565   0.00000  Uiso   1.00
C160   C     0.46320   0.36711   0.12418   0.00000  Uiso   1.00
C161   C     0.41833   0.40038   0.04932   0.00000  Uiso   1.00
H162   H     0.39271   0.43504   0.53587   0.00000  Uiso   1.00
H163   H     0.28865   0.38055   0.67133   0.00000  Uiso   1.00
H164   H     0.53722   0.46498   0.64900   0.00000  Uiso   1.00
H165   H     0.34007   0.46982   0.30532   0.00000  Uiso   1.00
H166   H     0.19261   0.30402   0.79312   0.00000  Uiso   1.00
H167   H     0.71674   0.48205   0.74601   0.00000  Uiso   1.00
H168   H     0.30103   0.49227   0.02130   0.00000  Uiso   1.00
H169   H     0.54159   0.31086   0.31691   0.00000  Uiso   1.00
H170   H     0.44568   0.24955   0.44035   0.00000  Uiso   1.00
H171   H     0.69426   0.33398   0.41803   0.00000  Uiso   1.00
H172   H     0.49711   0.33883   0.07435   0.00000  Uiso   1.00
H173   H     0.32007   0.19770   0.60566   0.00000  Uiso   1.00
H174   H     0.84421   0.37573   0.55855   0.00000  Uiso   1.00
H175   H     0.42849   0.38595   0.83384   0.00000  Uiso   1.00
O176   O     0.19059   0.21278   0.78458   0.00000  Uiso   1.00
O177   O     0.87823   0.44635   0.72275   0.00000  Uiso   1.00
O178   O     0.33282   0.45976   0.77195   0.00000  Uiso   1.00
N179   N     0.23576   0.28741   0.73204   0.00000  Uiso   1.00
N180   N     0.72579   0.45386   0.68801   0.00000  Uiso   1.00
N181   N     0.33715   0.46342   0.01047   0.00000  Uiso   1.00
N182   N     0.30434   0.23020   0.63117   0.00000  Uiso   1.00
N183   N     0.79437   0.39664   0.58714   0.00000  Uiso   1.00
N184   N     0.40573   0.40621   0.90959   0.00000  Uiso   1.00
C185   C     0.07318   0.40659   0.98570   0.00000  Uiso   1.00
C186   C     0.10909   0.35976   0.02893   0.00000  Uiso   1.00
C187   C     0.17747   0.35226   0.12147   0.00000  Uiso   1.00
C188   C     0.20053   0.30687   0.14734   0.00000  Uiso   1.00
C189   C     0.26291   0.23972   0.22431   0.00000  Uiso   1.00
C190   C     0.97403   0.40563   0.01681   0.00000  Uiso   1.00
C191   C     0.92886   0.43670   0.09916   0.00000  Uiso   1.00
C192   C     0.83822   0.42992   0.11482   0.00000  Uiso   1.00
C193   C     0.69092   0.43400   0.17290   0.00000  Uiso   1.00
C194   C     0.08115   0.40826   0.83009   0.00000  Uiso   1.00
C195   C     0.12603   0.44155   0.75542   0.00000  Uiso   1.00
C196   C     0.12556   0.43699   0.61386   0.00000  Uiso   1.00
C197   C     0.14458   0.44516   0.38203   0.00000  Uiso   1.00
C198   C     0.99252   0.33931   0.86707   0.00000  Uiso   1.00
C199   C     0.06527   0.32322   0.96449   0.00000  Uiso   1.00
C200   C     0.08823   0.27782   0.99022   0.00000  Uiso   1.00
C201   C     0.15664   0.27026   0.08279   0.00000  Uiso   1.00
C202   C     0.93022   0.36909   0.95238   0.00000  Uiso   1.00
C203   C     0.83962   0.36226   0.96791   0.00000  Uiso   1.00
C204   C     0.79433   0.39331   0.05027   0.00000  Uiso   1.00
C205   C     0.03734   0.37172   0.76565   0.00000  Uiso   1.00
C206   C     0.03680   0.36711   0.62418   0.00000  Uiso   1.00
C207   C     0.08167   0.40038   0.54932   0.00000  Uiso   1.00
H208   H     0.10729   0.43504   0.03587   0.00000  Uiso   1.00
H209   H     0.21135   0.38055   0.17133   0.00000  Uiso   1.00
H210   H     0.96278   0.46498   0.14900   0.00000  Uiso   1.00
H211   H     0.15993   0.46982   0.80532   0.00000  Uiso   1.00
H212   H     0.30739   0.30402   0.29312   0.00000  Uiso   1.00
H213   H     0.78326   0.48205   0.24601   0.00000  Uiso   1.00
H214   H     0.19897   0.49227   0.52130   0.00000  Uiso   1.00
H215   H     0.95841   0.31086   0.81691   0.00000  Uiso   1.00
H216   H     0.05432   0.24955   0.94035   0.00000  Uiso   1.00
H217   H     0.80574   0.33398   0.91803   0.00000  Uiso   1.00
H218   H     0.00289   0.33883   0.57435   0.00000  Uiso   1.00
H219   H     0.17993   0.19770   0.10566   0.00000  Uiso   1.00
H220   H     0.65579   0.37573   0.05855   0.00000  Uiso   1.00
H221   H     0.07151   0.38595   0.33384   0.00000  Uiso   1.00
O222   O     0.30941   0.21278   0.28458   0.00000  Uiso   1.00
O223   O     0.62177   0.44635   0.22275   0.00000  Uiso   1.00
O224   O     0.16718   0.45976   0.27195   0.00000  Uiso   1.00
N225   N     0.26424   0.28741   0.23204   0.00000  Uiso   1.00
N226   N     0.77421   0.45386   0.18801   0.00000  Uiso   1.00
N227   N     0.16285   0.46342   0.51047   0.00000  Uiso   1.00
N228   N     0.19566   0.23020   0.13117   0.00000  Uiso   1.00
N229   N     0.70563   0.39664   0.08714   0.00000  Uiso   1.00
N230   N     0.09427   0.40621   0.40959   0.00000  Uiso   1.00
C231   C     0.07318   0.90659   0.48570   0.00000  Uiso   1.00
C232   C     0.10909   0.85976   0.52893   0.00000  Uiso   1.00
C233   C     0.17747   0.85226   0.62147   0.00000  Uiso   1.00
C234   C     0.20053   0.80687   0.64734   0.00000  Uiso   1.00
C235   C     0.26291   0.73972   0.72431   0.00000  Uiso   1.00
C236   C     0.97403   0.90563   0.51681   0.00000  Uiso   1.00
C237   C     0.92886   0.93670   0.59916   0.00000  Uiso   1.00
C238   C     0.83822   0.92992   0.61482   0.00000  Uiso   1.00
C239   C     0.69092   0.93400   0.67290   0.00000  Uiso   1.00
C240   C     0.08115   0.90826   0.33009   0.00000  Uiso   1.00
C241   C     0.12603   0.94155   0.25542   0.00000  Uiso   1.00
C242   C     0.12556   0.93699   0.11386   0.00000  Uiso   1.00
C243   C     0.14458   0.94516   0.88203   0.00000  Uiso   1.00
C244   C     0.99252   0.83931   0.36707   0.00000  Uiso   1.00
C245   C     0.06527   0.82322   0.46449   0.00000  Uiso   1.00
C246   C     0.08823   0.77782   0.49022   0.00000  Uiso   1.00
C247   C     0.15664   0.77026   0.58279   0.00000  Uiso   1.00
C248   C     0.93022   0.86909   0.45238   0.00000  Uiso   1.00
C249   C     0.83962   0.86226   0.46791   0.00000  Uiso   1.00
C250   C     0.79433   0.89331   0.55027   0.00000  Uiso   1.00
C251   C     0.03734   0.87172   0.26565   0.00000  Uiso   1.00
C252   C     0.03680   0.86711   0.12418   0.00000  Uiso   1.00
C253   C     0.08167   0.90038   0.04932   0.00000  Uiso   1.00
H254   H     0.10729   0.93504   0.53587   0.00000  Uiso   1.00
H255   H     0.21135   0.88055   0.67133   0.00000  Uiso   1.00
H256   H     0.96278   0.96498   0.64900   0.00000  Uiso   1.00
H257   H     0.15993   0.96982   0.30532   0.00000  Uiso   1.00
H258   H     0.30739   0.80402   0.79312   0.00000  Uiso   1.00
H259   H     0.78326   0.98205   0.74601   0.00000  Uiso   1.00
H260   H     0.19897   0.99227   0.02130   0.00000  Uiso   1.00
H261   H     0.95841   0.81086   0.31691   0.00000  Uiso   1.00
H262   H     0.05432   0.74955   0.44035   0.00000  Uiso   1.00
H263   H     0.80574   0.83398   0.41803   0.00000  Uiso   1.00
H264   H     0.00289   0.83883   0.07435   0.00000  Uiso   1.00
H265   H     0.17993   0.69770   0.60566   0.00000  Uiso   1.00
H266   H     0.65579   0.87573   0.55855   0.00000  Uiso   1.00
H267   H     0.07151   0.88595   0.83384   0.00000  Uiso   1.00
O268   O     0.30941   0.71278   0.78458   0.00000  Uiso   1.00
O269   O     0.62177   0.94635   0.72275   0.00000  Uiso   1.00
O270   O     0.16718   0.95976   0.77195   0.00000  Uiso   1.00
N271   N     0.26424   0.78741   0.73204   0.00000  Uiso   1.00
N272   N     0.77421   0.95386   0.68801   0.00000  Uiso   1.00
N273   N     0.16285   0.96342   0.01047   0.00000  Uiso   1.00
N274   N     0.19566   0.73020   0.63117   0.00000  Uiso   1.00
N275   N     0.70563   0.89664   0.58714   0.00000  Uiso   1.00
N276   N     0.09427   0.90621   0.90959   0.00000  Uiso   1.00
C277   C     0.92682   0.59341   0.98570   0.00000  Uiso   1.00
C278   C     0.89091   0.64024   0.02893   0.00000  Uiso   1.00
C279   C     0.82253   0.64774   0.12147   0.00000  Uiso   1.00
C280   C     0.79947   0.69313   0.14734   0.00000  Uiso   1.00
C281   C     0.73709   0.76028   0.22431   0.00000  Uiso   1.00
C282   C     0.02597   0.59437   0.01681   0.00000  Uiso   1.00
C283   C     0.07114   0.56330   0.09916   0.00000  Uiso   1.00
C284   C     0.16178   0.57008   0.11482   0.00000  Uiso   1.00
C285   C     0.30908   0.56600   0.17290   0.00000  Uiso   1.00
C286   C     0.91885   0.59174   0.83009   0.00000  Uiso   1.00
C287   C     0.87397   0.55845   0.75542   0.00000  Uiso   1.00
C288   C     0.87444   0.56301   0.61386   0.00000  Uiso   1.00
C289   C     0.85542   0.55484   0.38203   0.00000  Uiso   1.00
C290   C     0.00748   0.66069   0.86707   0.00000  Uiso   1.00
C291   C     0.93473   0.67678   0.96449   0.00000  Uiso   1.00
C292   C     0.91177   0.72218   0.99022   0.00000  Uiso   1.00
C293   C     0.84336   0.72974   0.08279   0.00000  Uiso   1.00
C294   C     0.06978   0.63091   0.95238   0.00000  Uiso   1.00
C295   C     0.16038   0.63774   0.96791   0.00000  Uiso   1.00
C296   C     0.20567   0.60669   0.05027   0.00000  Uiso   1.00
C297   C     0.96266   0.62828   0.76565   0.00000  Uiso   1.00
C298   C     0.96320   0.63289   0.62418   0.00000  Uiso   1.00
C299   C     0.91833   0.59962   0.54932   0.00000  Uiso   1.00
H300   H     0.89271   0.56496   0.03587   0.00000  Uiso   1.00
H301   H     0.78865   0.61945   0.17133   0.00000  Uiso   1.00
H302   H     0.03722   0.53502   0.14900   0.00000  Uiso   1.00
H303   H     0.84007   0.53018   0.80532   0.00000  Uiso   1.00
H304   H     0.69261   0.69598   0.29312   0.00000  Uiso   1.00
H305   H     0.21674   0.51795   0.24601   0.00000  Uiso   1.00
H306   H     0.80103   0.50773   0.52130   0.00000  Uiso   1.00
H307   H     0.04159   0.68914   0.81691   0.00000  Uiso   1.00
H308   H     0.94568   0.75045   0.94035   0.00000  Uiso   1.00
H309   H     0.19426   0.66602   0.91803   0.00000  Uiso   1.00
H310   H     0.99711   0.66117   0.57435   0.00000  Uiso   1.00
H311   H     0.82007   0.80230   0.10566   0.00000  Uiso   1.00
H312   H     0.34421   0.62427   0.05855   0.00000  Uiso   1.00
H313   H     0.92849   0.61405   0.33384   0.00000  Uiso   1.00
O314   O     0.69059   0.78722   0.28458   0.00000  Uiso   1.00
O315   O     0.37823   0.55365   0.22275   0.00000  Uiso   1.00
O316   O     0.83282   0.54024   0.27195   0.00000  Uiso   1.00
N317   N     0.73576   0.71259   0.23204   0.00000  Uiso   1.00
N318   N     0.22579   0.54614   0.18801   0.00000  Uiso   1.00
N319   N     0.83715   0.53658   0.51047   0.00000  Uiso   1.00
N320   N     0.80434   0.76980   0.13117   0.00000  Uiso   1.00
N321   N     0.29437   0.60336   0.08714   0.00000  Uiso   1.00
N322   N     0.90573   0.59379   0.40959   0.00000  Uiso   1.00
C323   C     0.92682   0.09341   0.48570   0.00000  Uiso   1.00
C324   C     0.89091   0.14024   0.52893   0.00000  Uiso   1.00
C325   C     0.82253   0.14774   0.62147   0.00000  Uiso   1.00
C326   C     0.79947   0.19313   0.64734   0.00000  Uiso   1.00
C327   C     0.73709   0.26028   0.72431   0.00000  Uiso   1.00
C328   C     0.02597   0.09437   0.51681   0.00000  Uiso   1.00
C329   C     0.07114   0.06330   0.59916   0.00000  Uiso   1.00
C330   C     0.16178   0.07008   0.61482   0.00000  Uiso   1.00
C331   C     0.30908   0.06600   0.67290   0.00000  Uiso   1.00
C332   C     0.91885   0.09174   0.33009   0.00000  Uiso   1.00
C333   C     0.87397   0.05845   0.25542   0.00000  Uiso   1.00
C334   C     0.87444   0.06301   0.11386   0.00000  Uiso   1.00
C335   C     0.85542   0.05484   0.88203   0.00000  Uiso   1.00
C336   C     0.00748   0.16069   0.36707   0.00000  Uiso   1.00
C337   C     0.93473   0.17678   0.46449   0.00000  Uiso   1.00
C338   C     0.91177   0.22218   0.49022   0.00000  Uiso   1.00
C339   C     0.84336   0.22974   0.58279   0.00000  Uiso   1.00
C340   C     0.06978   0.13091   0.45238   0.00000  Uiso   1.00
C341   C     0.16038   0.13774   0.46791   0.00000  Uiso   1.00
C342   C     0.20567   0.10669   0.55027   0.00000  Uiso   1.00
C343   C     0.96266   0.12828   0.26565   0.00000  Uiso   1.00
C344   C     0.96320   0.13289   0.12418   0.00000  Uiso   1.00
C345   C     0.91833   0.09962   0.04932   0.00000  Uiso   1.00
H346   H     0.89271   0.06496   0.53587   0.00000  Uiso   1.00
H347   H     0.78865   0.11945   0.67133   0.00000  Uiso   1.00
H348   H     0.03722   0.03502   0.64900   0.00000  Uiso   1.00
H349   H     0.84007   0.03018   0.30532   0.00000  Uiso   1.00
H350   H     0.69261   0.19598   0.79312   0.00000  Uiso   1.00
H351   H     0.21674   0.01795   0.74601   0.00000  Uiso   1.00
H352   H     0.80103   0.00773   0.02130   0.00000  Uiso   1.00
H353   H     0.04159   0.18914   0.31691   0.00000  Uiso   1.00
H354   H     0.94568   0.25045   0.44035   0.00000  Uiso   1.00
H355   H     0.19426   0.16602   0.41803   0.00000  Uiso   1.00
H356   H     0.99711   0.16117   0.07435   0.00000  Uiso   1.00
H357   H     0.82007   0.30230   0.60566   0.00000  Uiso   1.00
H358   H     0.34421   0.12427   0.55855   0.00000  Uiso   1.00
H359   H     0.92849   0.11405   0.83384   0.00000  Uiso   1.00
O360   O     0.69059   0.28722   0.78458   0.00000  Uiso   1.00
O361   O     0.37823   0.05365   0.72275   0.00000  Uiso   1.00
O362   O     0.83282   0.04024   0.77195   0.00000  Uiso   1.00
N363   N     0.73576   0.21259   0.73204   0.00000  Uiso   1.00
N364   N     0.22579   0.04614   0.68801   0.00000  Uiso   1.00
N365   N     0.83715   0.03658   0.01047   0.00000  Uiso   1.00
N366   N     0.80434   0.26980   0.63117   0.00000  Uiso   1.00
N367   N     0.29437   0.10336   0.58714   0.00000  Uiso   1.00
N368   N     0.90573   0.09379   0.90959   0.00000  Uiso   1.00
