data_job_01271
_audit_creation_date              2018-12-19
_audit_creation_method            'Materials Studio'
_symmetry_space_group_name_H-M    'P1'
_symmetry_Int_Tables_number       1
_symmetry_cell_setting            triclinic
loop_
_symmetry_equiv_pos_as_xyz
  x,y,z
_cell_length_a                    11.6493
_cell_length_b                    21.4252
_cell_length_c                    15.2338
_cell_angle_alpha                 90.0000
_cell_angle_beta                  126.7364
_cell_angle_gamma                 90.0000
loop_
_atom_site_label
_atom_site_type_symbol
_atom_site_fract_x
_atom_site_fract_y
_atom_site_fract_z
_atom_site_U_iso_or_equiv
_atom_site_adp_type
_atom_site_occupancy
C1     C     0.79323   0.71705   0.94209   0.00000  Uiso   1.00
C2     C     0.94014   0.74813   0.01125   0.00000  Uiso   1.00
C3     C     0.00705   0.77236   0.11571   0.00000  Uiso   1.00
C4     C     0.14133   0.79890   0.16524   0.00000  Uiso   1.00
C5     C     0.35954   0.84685   0.28068   0.00000  Uiso   1.00
C6     C     0.70498   0.75336   0.83474   0.00000  Uiso   1.00
C7     C     0.57415   0.78197   0.79080   0.00000  Uiso   1.00
C8     C     0.51047   0.81290   0.69173   0.00000  Uiso   1.00
C9     C     0.36354   0.86893   0.53310   0.00000  Uiso   1.00
C10    C     0.81645   0.65243   0.91326   0.00000  Uiso   1.00
C11    C     0.77933   0.59618   0.93531   0.00000  Uiso   1.00
C12    C     0.80947   0.54213   0.90232   0.00000  Uiso   1.00
C13    C     0.83562   0.44145   0.86560   0.00000  Uiso   1.00
C14    C     0.91273   0.72108   0.84427   0.00000  Uiso   1.00
C15    C     0.00504   0.75032   0.95811   0.00000  Uiso   1.00
C16    C     0.13927   0.77683   0.00749   0.00000  Uiso   1.00
C17    C     0.20636   0.80109   0.11202   0.00000  Uiso   1.00
C18    C     0.76988   0.75555   0.78161   0.00000  Uiso   1.00
C19    C     0.70637   0.78644   0.68257   0.00000  Uiso   1.00
C20    C     0.57550   0.81510   0.63850   0.00000  Uiso   1.00
C21    C     0.88137   0.65462   0.86013   0.00000  Uiso   1.00
C22    C     0.91156   0.60064   0.82709   0.00000  Uiso   1.00
C23    C     0.87449   0.54432   0.84909   0.00000  Uiso   1.00
H24    H     0.74269   0.71534   0.98345   0.00000  Uiso   1.00
H25    H     0.95677   0.77066   0.15680   0.00000  Uiso   1.00
H26    H     0.52395   0.78026   0.83193   0.00000  Uiso   1.00
H27    H     0.72910   0.59450   0.97642   0.00000  Uiso   1.00
H28    H     0.22273   0.83298   0.32554   0.00000  Uiso   1.00
H29    H     0.31007   0.85321   0.64052   0.00000  Uiso   1.00
H30    H     0.74266   0.46149   0.94520   0.00000  Uiso   1.00
H31    H     0.96327   0.72279   0.80290   0.00000  Uiso   1.00
H32    H     0.18947   0.77852   0.96635   0.00000  Uiso   1.00
H33    H     0.75663   0.78812   0.64148   0.00000  Uiso   1.00
H34    H     0.96179   0.60236   0.78597   0.00000  Uiso   1.00
H35    H     0.41159   0.83936   0.17097   0.00000  Uiso   1.00
H36    H     0.49892   0.85959   0.48594   0.00000  Uiso   1.00
H37    H     0.93152   0.46787   0.79063   0.00000  Uiso   1.00
O38    O     0.46196   0.87271   0.35902   0.00000  Uiso   1.00
O39    O     0.26457   0.89924   0.46028   0.00000  Uiso   1.00
O40    O     0.83213   0.38532   0.86003   0.00000  Uiso   1.00
N41    N     0.23615   0.82682   0.26674   0.00000  Uiso   1.00
N42    N     0.38287   0.84574   0.62629   0.00000  Uiso   1.00
N43    N     0.78728   0.47952   0.91112   0.00000  Uiso   1.00
N44    N     0.33777   0.83025   0.18357   0.00000  Uiso   1.00
N45    N     0.48450   0.84918   0.54312   0.00000  Uiso   1.00
N46    N     0.88890   0.48295   0.82795   0.00000  Uiso   1.00
C47    C     0.20677   0.21705   0.55791   0.00000  Uiso   1.00
C48    C     0.05986   0.24813   0.48875   0.00000  Uiso   1.00
C49    C     0.99295   0.27236   0.38429   0.00000  Uiso   1.00
C50    C     0.85867   0.29890   0.33476   0.00000  Uiso   1.00
C51    C     0.64046   0.34685   0.21932   0.00000  Uiso   1.00
C52    C     0.29502   0.25336   0.66526   0.00000  Uiso   1.00
C53    C     0.42585   0.28197   0.70920   0.00000  Uiso   1.00
C54    C     0.48953   0.31290   0.80827   0.00000  Uiso   1.00
C55    C     0.63646   0.36893   0.96690   0.00000  Uiso   1.00
C56    C     0.18355   0.15243   0.58674   0.00000  Uiso   1.00
C57    C     0.22067   0.09618   0.56469   0.00000  Uiso   1.00
C58    C     0.19053   0.04213   0.59768   0.00000  Uiso   1.00
C59    C     0.16438   0.94145   0.63440   0.00000  Uiso   1.00
C60    C     0.08727   0.22108   0.65573   0.00000  Uiso   1.00
C61    C     0.99496   0.25032   0.54189   0.00000  Uiso   1.00
C62    C     0.86073   0.27683   0.49251   0.00000  Uiso   1.00
C63    C     0.79364   0.30109   0.38798   0.00000  Uiso   1.00
C64    C     0.23012   0.25555   0.71839   0.00000  Uiso   1.00
C65    C     0.29363   0.28644   0.81743   0.00000  Uiso   1.00
C66    C     0.42450   0.31510   0.86150   0.00000  Uiso   1.00
C67    C     0.11863   0.15462   0.63987   0.00000  Uiso   1.00
C68    C     0.08844   0.10064   0.67291   0.00000  Uiso   1.00
C69    C     0.12551   0.04432   0.65091   0.00000  Uiso   1.00
H70    H     0.25731   0.21534   0.51655   0.00000  Uiso   1.00
H71    H     0.04323   0.27066   0.34320   0.00000  Uiso   1.00
H72    H     0.47605   0.28026   0.66807   0.00000  Uiso   1.00
H73    H     0.27090   0.09450   0.52358   0.00000  Uiso   1.00
H74    H     0.77727   0.33298   0.17446   0.00000  Uiso   1.00
H75    H     0.68993   0.35321   0.85948   0.00000  Uiso   1.00
H76    H     0.25734   0.96149   0.55480   0.00000  Uiso   1.00
H77    H     0.03673   0.22279   0.69710   0.00000  Uiso   1.00
H78    H     0.81053   0.27852   0.53365   0.00000  Uiso   1.00
H79    H     0.24337   0.28812   0.85852   0.00000  Uiso   1.00
H80    H     0.03821   0.10236   0.71403   0.00000  Uiso   1.00
H81    H     0.58841   0.33936   0.32903   0.00000  Uiso   1.00
H82    H     0.50108   0.35959   0.01406   0.00000  Uiso   1.00
H83    H     0.06848   0.96787   0.70937   0.00000  Uiso   1.00
O84    O     0.53804   0.37271   0.14098   0.00000  Uiso   1.00
O85    O     0.73543   0.39924   0.03972   0.00000  Uiso   1.00
O86    O     0.16787   0.88532   0.63997   0.00000  Uiso   1.00
N87    N     0.76385   0.32682   0.23326   0.00000  Uiso   1.00
N88    N     0.61713   0.34574   0.87371   0.00000  Uiso   1.00
N89    N     0.21272   0.97952   0.58888   0.00000  Uiso   1.00
N90    N     0.66223   0.33025   0.31643   0.00000  Uiso   1.00
N91    N     0.51550   0.34918   0.95688   0.00000  Uiso   1.00
N92    N     0.11110   0.98295   0.67205   0.00000  Uiso   1.00
C93    C     0.20677   0.28295   0.05791   0.00000  Uiso   1.00
C94    C     0.05986   0.25187   0.98875   0.00000  Uiso   1.00
C95    C     0.99295   0.22764   0.88429   0.00000  Uiso   1.00
C96    C     0.85867   0.20110   0.83476   0.00000  Uiso   1.00
C97    C     0.64046   0.15315   0.71932   0.00000  Uiso   1.00
C98    C     0.29502   0.24664   0.16526   0.00000  Uiso   1.00
C99    C     0.42585   0.21803   0.20920   0.00000  Uiso   1.00
C100   C     0.48953   0.18710   0.30827   0.00000  Uiso   1.00
C101   C     0.63646   0.13107   0.46690   0.00000  Uiso   1.00
C102   C     0.18355   0.34757   0.08674   0.00000  Uiso   1.00
C103   C     0.22067   0.40382   0.06469   0.00000  Uiso   1.00
C104   C     0.19053   0.45787   0.09768   0.00000  Uiso   1.00
C105   C     0.16438   0.55855   0.13440   0.00000  Uiso   1.00
C106   C     0.08727   0.27892   0.15573   0.00000  Uiso   1.00
C107   C     0.99496   0.24968   0.04189   0.00000  Uiso   1.00
C108   C     0.86073   0.22317   0.99251   0.00000  Uiso   1.00
C109   C     0.79364   0.19891   0.88798   0.00000  Uiso   1.00
C110   C     0.23012   0.24445   0.21839   0.00000  Uiso   1.00
C111   C     0.29363   0.21356   0.31743   0.00000  Uiso   1.00
C112   C     0.42450   0.18490   0.36150   0.00000  Uiso   1.00
C113   C     0.11863   0.34538   0.13987   0.00000  Uiso   1.00
C114   C     0.08844   0.39936   0.17291   0.00000  Uiso   1.00
C115   C     0.12551   0.45568   0.15091   0.00000  Uiso   1.00
H116   H     0.25731   0.28466   0.01655   0.00000  Uiso   1.00
H117   H     0.04323   0.22934   0.84320   0.00000  Uiso   1.00
H118   H     0.47605   0.21974   0.16807   0.00000  Uiso   1.00
H119   H     0.27090   0.40550   0.02358   0.00000  Uiso   1.00
H120   H     0.77727   0.16702   0.67446   0.00000  Uiso   1.00
H121   H     0.68993   0.14679   0.35948   0.00000  Uiso   1.00
H122   H     0.25734   0.53851   0.05480   0.00000  Uiso   1.00
H123   H     0.03673   0.27721   0.19710   0.00000  Uiso   1.00
H124   H     0.81053   0.22148   0.03365   0.00000  Uiso   1.00
H125   H     0.24337   0.21188   0.35852   0.00000  Uiso   1.00
H126   H     0.03821   0.39764   0.21403   0.00000  Uiso   1.00
H127   H     0.58841   0.16064   0.82903   0.00000  Uiso   1.00
H128   H     0.50108   0.14041   0.51406   0.00000  Uiso   1.00
H129   H     0.06848   0.53213   0.20937   0.00000  Uiso   1.00
O130   O     0.53804   0.12729   0.64098   0.00000  Uiso   1.00
O131   O     0.73543   0.10076   0.53972   0.00000  Uiso   1.00
O132   O     0.16787   0.61468   0.13997   0.00000  Uiso   1.00
N133   N     0.76385   0.17318   0.73326   0.00000  Uiso   1.00
N134   N     0.61713   0.15426   0.37371   0.00000  Uiso   1.00
N135   N     0.21272   0.52048   0.08888   0.00000  Uiso   1.00
N136   N     0.66223   0.16975   0.81643   0.00000  Uiso   1.00
N137   N     0.51550   0.15082   0.45688   0.00000  Uiso   1.00
N138   N     0.11110   0.51705   0.17205   0.00000  Uiso   1.00
C139   C     0.79323   0.78295   0.44209   0.00000  Uiso   1.00
C140   C     0.94014   0.75187   0.51125   0.00000  Uiso   1.00
C141   C     0.00705   0.72764   0.61571   0.00000  Uiso   1.00
C142   C     0.14133   0.70110   0.66524   0.00000  Uiso   1.00
C143   C     0.35954   0.65315   0.78068   0.00000  Uiso   1.00
C144   C     0.70498   0.74664   0.33474   0.00000  Uiso   1.00
C145   C     0.57415   0.71803   0.29080   0.00000  Uiso   1.00
C146   C     0.51047   0.68710   0.19173   0.00000  Uiso   1.00
C147   C     0.36354   0.63107   0.03310   0.00000  Uiso   1.00
C148   C     0.81645   0.84757   0.41326   0.00000  Uiso   1.00
C149   C     0.77933   0.90382   0.43531   0.00000  Uiso   1.00
C150   C     0.80947   0.95787   0.40232   0.00000  Uiso   1.00
C151   C     0.83562   0.05855   0.36560   0.00000  Uiso   1.00
C152   C     0.91273   0.77892   0.34427   0.00000  Uiso   1.00
C153   C     0.00504   0.74968   0.45811   0.00000  Uiso   1.00
C154   C     0.13927   0.72317   0.50749   0.00000  Uiso   1.00
C155   C     0.20636   0.69891   0.61202   0.00000  Uiso   1.00
C156   C     0.76988   0.74445   0.28161   0.00000  Uiso   1.00
C157   C     0.70637   0.71356   0.18257   0.00000  Uiso   1.00
C158   C     0.57550   0.68490   0.13850   0.00000  Uiso   1.00
C159   C     0.88137   0.84538   0.36013   0.00000  Uiso   1.00
C160   C     0.91156   0.89936   0.32709   0.00000  Uiso   1.00
C161   C     0.87449   0.95568   0.34909   0.00000  Uiso   1.00
H162   H     0.74269   0.78466   0.48345   0.00000  Uiso   1.00
H163   H     0.95677   0.72934   0.65680   0.00000  Uiso   1.00
H164   H     0.52395   0.71974   0.33193   0.00000  Uiso   1.00
H165   H     0.72910   0.90550   0.47642   0.00000  Uiso   1.00
H166   H     0.22273   0.66702   0.82554   0.00000  Uiso   1.00
H167   H     0.31007   0.64679   0.14052   0.00000  Uiso   1.00
H168   H     0.74266   0.03851   0.44520   0.00000  Uiso   1.00
H169   H     0.96327   0.77721   0.30290   0.00000  Uiso   1.00
H170   H     0.18947   0.72148   0.46635   0.00000  Uiso   1.00
H171   H     0.75663   0.71188   0.14148   0.00000  Uiso   1.00
H172   H     0.96179   0.89764   0.28597   0.00000  Uiso   1.00
H173   H     0.41159   0.66064   0.67097   0.00000  Uiso   1.00
H174   H     0.49892   0.64041   0.98594   0.00000  Uiso   1.00
H175   H     0.93152   0.03213   0.29063   0.00000  Uiso   1.00
O176   O     0.46196   0.62729   0.85902   0.00000  Uiso   1.00
O177   O     0.26457   0.60076   0.96028   0.00000  Uiso   1.00
O178   O     0.83213   0.11468   0.36003   0.00000  Uiso   1.00
N179   N     0.23615   0.67318   0.76674   0.00000  Uiso   1.00
N180   N     0.38287   0.65426   0.12629   0.00000  Uiso   1.00
N181   N     0.78728   0.02048   0.41112   0.00000  Uiso   1.00
N182   N     0.33777   0.66975   0.68357   0.00000  Uiso   1.00
N183   N     0.48450   0.65082   0.04312   0.00000  Uiso   1.00
N184   N     0.88890   0.01705   0.32795   0.00000  Uiso   1.00
