data_job_07056
_audit_creation_date              2018-12-19
_audit_creation_method            'Materials Studio'
_symmetry_space_group_name_H-M    'P1'
_symmetry_Int_Tables_number       1
_symmetry_cell_setting            triclinic
loop_
_symmetry_equiv_pos_as_xyz
  x,y,z
_cell_length_a                    21.4253
_cell_length_b                    22.4637
_cell_length_c                    23.5044
_cell_angle_alpha                 63.8914
_cell_angle_beta                  63.3656
_cell_angle_gamma                 67.5921
loop_
_atom_site_label
_atom_site_type_symbol
_atom_site_fract_x
_atom_site_fract_y
_atom_site_fract_z
_atom_site_U_iso_or_equiv
_atom_site_adp_type
_atom_site_occupancy
C1     C     0.31931   0.95314   0.29319   0.00000  Uiso   1.00
C2     C     0.23998   0.95332   0.33150   0.00000  Uiso   1.00
C3     C     0.19010   0.99932   0.36434   0.00000  Uiso   1.00
C4     C     0.12016   0.99087   0.39649   0.00000  Uiso   1.00
C5     C     0.99993   0.99913   0.45611   0.00000  Uiso   1.00
C6     C     0.36038   0.88266   0.32499   0.00000  Uiso   1.00
C7     C     0.41174   0.86925   0.35234   0.00000  Uiso   1.00
C8     C     0.44316   0.80132   0.37900   0.00000  Uiso   1.00
C9     C     0.50989   0.69989   0.42847   0.00000  Uiso   1.00
C10    C     0.33324   0.95709   0.22218   0.00000  Uiso   1.00
C11    C     0.36179   0.00625   0.16310   0.00000  Uiso   1.00
C12    C     0.37038   0.00098   0.10320   0.00000  Uiso   1.00
C13    C     0.39496   0.01511   0.99305   0.00000  Uiso   1.00
C14    C     0.28380   0.85635   0.29188   0.00000  Uiso   1.00
C15    C     0.22070   0.90075   0.33079   0.00000  Uiso   1.00
C16    C     0.15081   0.89223   0.36289   0.00000  Uiso   1.00
C17    C     0.10084   0.93821   0.39578   0.00000  Uiso   1.00
C18    C     0.34110   0.83009   0.32428   0.00000  Uiso   1.00
C19    C     0.37245   0.76217   0.35090   0.00000  Uiso   1.00
C20    C     0.42384   0.74866   0.37829   0.00000  Uiso   1.00
C21    C     0.31395   0.90452   0.22147   0.00000  Uiso   1.00
C22    C     0.32250   0.89917   0.16165   0.00000  Uiso   1.00
C23    C     0.35106   0.94831   0.10249   0.00000  Uiso   1.00
H24    H     0.33433   0.99406   0.29374   0.00000  Uiso   1.00
H25    H     0.20505   0.03999   0.36488   0.00000  Uiso   1.00
H26    H     0.42666   0.90995   0.35288   0.00000  Uiso   1.00
H27    H     0.37671   0.04693   0.16366   0.00000  Uiso   1.00
H28    H     0.05322   0.06771   0.44346   0.00000  Uiso   1.00
H29    H     0.52051   0.79351   0.41813   0.00000  Uiso   1.00
H30    H     0.41520   0.08236   0.01914   0.00000  Uiso   1.00
H31    H     0.26879   0.81541   0.29133   0.00000  Uiso   1.00
H32    H     0.13591   0.85154   0.36234   0.00000  Uiso   1.00
H33    H     0.35752   0.72150   0.35034   0.00000  Uiso   1.00
H34    H     0.30757   0.85848   0.16112   0.00000  Uiso   1.00
H35    H     0.99710   0.91476   0.44140   0.00000  Uiso   1.00
H36    H     0.46440   0.64055   0.41607   0.00000  Uiso   1.00
H37    H     0.35908   0.92940   0.01708   0.00000  Uiso   1.00
O38    O     0.93893   0.01821   0.48921   0.00000  Uiso   1.00
O39    O     0.55201   0.65847   0.45596   0.00000  Uiso   1.00
O40    O     0.41384   0.03743   0.93249   0.00000  Uiso   1.00
N41    N     0.05824   0.02676   0.43322   0.00000  Uiso   1.00
N42    N     0.49513   0.77040   0.40955   0.00000  Uiso   1.00
N43    N     0.39669   0.04044   0.03652   0.00000  Uiso   1.00
N44    N     0.02805   0.94446   0.43211   0.00000  Uiso   1.00
N45    N     0.46493   0.68810   0.40844   0.00000  Uiso   1.00
N46    N     0.36649   0.95814   0.03541   0.00000  Uiso   1.00
C47    C     0.21145   0.48061   0.90409   0.00000  Uiso   1.00
C48    C     0.25728   0.40814   0.91259   0.00000  Uiso   1.00
C49    C     0.29686   0.37259   0.95571   0.00000  Uiso   1.00
C50    C     0.33526   0.30682   0.95611   0.00000  Uiso   1.00
C51    C     0.40663   0.19872   0.97557   0.00000  Uiso   1.00
C52    C     0.23936   0.52056   0.82941   0.00000  Uiso   1.00
C53    C     0.26385   0.57953   0.80259   0.00000  Uiso   1.00
C54    C     0.28715   0.60839   0.73297   0.00000  Uiso   1.00
C55    C     0.33064   0.67485   0.62329   0.00000  Uiso   1.00
C56    C     0.13623   0.47643   0.91821   0.00000  Uiso   1.00
C57    C     0.07400   0.49832   0.96605   0.00000  Uiso   1.00
C58    C     0.01047   0.49006   0.97118   0.00000  Uiso   1.00
C59    C     0.89383   0.48801   0.99937   0.00000  Uiso   1.00
C60    C     0.20926   0.42704   0.82814   0.00000  Uiso   1.00
C61    C     0.25609   0.37904   0.87133   0.00000  Uiso   1.00
C62    C     0.29443   0.31331   0.87168   0.00000  Uiso   1.00
C63    C     0.33406   0.27766   0.91479   0.00000  Uiso   1.00
C64    C     0.23816   0.49146   0.78815   0.00000  Uiso   1.00
C65    C     0.26142   0.52025   0.71856   0.00000  Uiso   1.00
C66    C     0.28596   0.57924   0.69164   0.00000  Uiso   1.00
C67    C     0.13503   0.44733   0.87696   0.00000  Uiso   1.00
C68    C     0.07158   0.43904   0.88201   0.00000  Uiso   1.00
C69    C     0.00927   0.46090   0.92985   0.00000  Uiso   1.00
H70    H     0.21238   0.50328   0.93620   0.00000  Uiso   1.00
H71    H     0.29778   0.39513   0.98762   0.00000  Uiso   1.00
H72    H     0.26477   0.60204   0.83453   0.00000  Uiso   1.00
H73    H     0.07495   0.52084   0.99796   0.00000  Uiso   1.00
H74    H     0.39195   0.26240   0.02642   0.00000  Uiso   1.00
H75    H     0.32232   0.69870   0.70362   0.00000  Uiso   1.00
H76    H     0.92204   0.52748   0.04824   0.00000  Uiso   1.00
H77    H     0.20833   0.40438   0.79601   0.00000  Uiso   1.00
H78    H     0.29350   0.29080   0.83974   0.00000  Uiso   1.00
H79    H     0.26049   0.49771   0.68665   0.00000  Uiso   1.00
H80    H     0.07067   0.41651   0.85008   0.00000  Uiso   1.00
H81    H     0.38848   0.17773   0.90639   0.00000  Uiso   1.00
H82    H     0.31884   0.61402   0.58359   0.00000  Uiso   1.00
H83    H     0.91858   0.44280   0.92822   0.00000  Uiso   1.00
O84    O     0.44633   0.14714   0.99769   0.00000  Uiso   1.00
O85    O     0.35497   0.71955   0.57419   0.00000  Uiso   1.00
O86    O     0.82982   0.49491   0.02633   0.00000  Uiso   1.00
N87    N     0.37943   0.25806   0.99218   0.00000  Uiso   1.00
N88    N     0.31434   0.66596   0.69038   0.00000  Uiso   1.00
N89    N     0.94012   0.50590   0.01256   0.00000  Uiso   1.00
N90    N     0.37756   0.21249   0.92760   0.00000  Uiso   1.00
N91    N     0.31247   0.62040   0.62580   0.00000  Uiso   1.00
N92    N     0.93825   0.46034   0.94798   0.00000  Uiso   1.00
C93    C     0.80764   0.41275   0.33756   0.00000  Uiso   1.00
C94    C     0.79346   0.46188   0.27248   0.00000  Uiso   1.00
C95    C     0.83299   0.50935   0.22265   0.00000  Uiso   1.00
C96    C     0.81140   0.54957   0.16695   0.00000  Uiso   1.00
C97    C     0.79833   0.62697   0.06677   0.00000  Uiso   1.00
C98    C     0.73813   0.42587   0.39460   0.00000  Uiso   1.00
C99    C     0.73114   0.44306   0.44746   0.00000  Uiso   1.00
C100   C     0.66297   0.45295   0.49456   0.00000  Uiso   1.00
C101   C     0.56402   0.47438   0.58400   0.00000  Uiso   1.00
C102   C     0.81689   0.34160   0.33852   0.00000  Uiso   1.00
C103   C     0.87611   0.28791   0.34425   0.00000  Uiso   1.00
C104   C     0.87423   0.22684   0.34416   0.00000  Uiso   1.00
C105   C     0.89755   0.11743   0.34654   0.00000  Uiso   1.00
C106   C     0.69901   0.39976   0.32724   0.00000  Uiso   1.00
C107   C     0.73445   0.45483   0.26687   0.00000  Uiso   1.00
C108   C     0.71280   0.49499   0.21123   0.00000  Uiso   1.00
C109   C     0.75229   0.54251   0.16133   0.00000  Uiso   1.00
C110   C     0.67913   0.41882   0.38899   0.00000  Uiso   1.00
C111   C     0.61095   0.42869   0.43604   0.00000  Uiso   1.00
C112   C     0.60386   0.44589   0.48895   0.00000  Uiso   1.00
C113   C     0.75788   0.33454   0.33292   0.00000  Uiso   1.00
C114   C     0.75591   0.27355   0.33283   0.00000  Uiso   1.00
C115   C     0.81512   0.21978   0.33855   0.00000  Uiso   1.00
H116   H     0.85358   0.41824   0.34192   0.00000  Uiso   1.00
H117   H     0.87865   0.51480   0.22701   0.00000  Uiso   1.00
H118   H     0.77682   0.44850   0.45178   0.00000  Uiso   1.00
H119   H     0.92176   0.29339   0.34859   0.00000  Uiso   1.00
H120   H     0.88040   0.61876   0.09715   0.00000  Uiso   1.00
H121   H     0.66569   0.47895   0.57111   0.00000  Uiso   1.00
H122   H     0.97133   0.15185   0.35350   0.00000  Uiso   1.00
H123   H     0.65307   0.39427   0.32287   0.00000  Uiso   1.00
H124   H     0.66713   0.48952   0.20691   0.00000  Uiso   1.00
H125   H     0.56530   0.42322   0.43168   0.00000  Uiso   1.00
H126   H     0.71024   0.26810   0.32849   0.00000  Uiso   1.00
H127   H     0.70872   0.59824   0.08084   0.00000  Uiso   1.00
H128   H     0.49402   0.45843   0.55480   0.00000  Uiso   1.00
H129   H     0.79965   0.13133   0.33719   0.00000  Uiso   1.00
O130   O     0.80742   0.67161   0.01307   0.00000  Uiso   1.00
O131   O     0.52573   0.48816   0.63488   0.00000  Uiso   1.00
O132   O     0.92672   0.05902   0.34938   0.00000  Uiso   1.00
N133   N     0.83807   0.60085   0.10922   0.00000  Uiso   1.00
N134   N     0.63733   0.47015   0.55233   0.00000  Uiso   1.00
N135   N     0.92307   0.16433   0.34891   0.00000  Uiso   1.00
N136   N     0.74570   0.58981   0.10044   0.00000  Uiso   1.00
N137   N     0.54496   0.45910   0.54355   0.00000  Uiso   1.00
N138   N     0.83069   0.15329   0.34013   0.00000  Uiso   1.00
C139   C     0.72871   0.86637   0.48686   0.00000  Uiso   1.00
C140   C     0.65606   0.91550   0.48746   0.00000  Uiso   1.00
C141   C     0.61401   0.95214   0.53186   0.00000  Uiso   1.00
C142   C     0.54928   0.99438   0.52413   0.00000  Uiso   1.00
C143   C     0.43980   0.06986   0.53270   0.00000  Uiso   1.00
C144   C     0.78106   0.89188   0.41623   0.00000  Uiso   1.00
C145   C     0.84411   0.90866   0.40074   0.00000  Uiso   1.00
C146   C     0.88461   0.93101   0.33304   0.00000  Uiso   1.00
C147   C     0.96923   0.96978   0.23103   0.00000  Uiso   1.00
C148   C     0.72149   0.79851   0.49336   0.00000  Uiso   1.00
C149   C     0.73447   0.73676   0.54272   0.00000  Uiso   1.00
C150   C     0.72483   0.68049   0.53997   0.00000  Uiso   1.00
C151   C     0.71695   0.57428   0.55772   0.00000  Uiso   1.00
C152   C     0.68852   0.87623   0.39418   0.00000  Uiso   1.00
C153   C     0.63423   0.92085   0.43712   0.00000  Uiso   1.00
C154   C     0.56954   0.96304   0.42932   0.00000  Uiso   1.00
C155   C     0.52741   0.99974   0.47370   0.00000  Uiso   1.00
C156   C     0.75923   0.89723   0.36589   0.00000  Uiso   1.00
C157   C     0.79965   0.91956   0.29820   0.00000  Uiso   1.00
C158   C     0.86274   0.93637   0.28261   0.00000  Uiso   1.00
C159   C     0.69966   0.80386   0.44303   0.00000  Uiso   1.00
C160   C     0.69000   0.74767   0.44019   0.00000  Uiso   1.00
C161   C     0.70297   0.68585   0.48954   0.00000  Uiso   1.00
H162   H     0.74571   0.86221   0.52604   0.00000  Uiso   1.00
H163   H     0.63093   0.94799   0.57081   0.00000  Uiso   1.00
H164   H     0.86100   0.90450   0.43970   0.00000  Uiso   1.00
H165   H     0.75136   0.73264   0.58167   0.00000  Uiso   1.00
H166   H     0.49405   0.04547   0.59822   0.00000  Uiso   1.00
H167   H     0.97918   0.95376   0.32179   0.00000  Uiso   1.00
H168   H     0.74800   0.59135   0.62115   0.00000  Uiso   1.00
H169   H     0.67153   0.88040   0.35498   0.00000  Uiso   1.00
H170   H     0.55267   0.96717   0.39036   0.00000  Uiso   1.00
H171   H     0.78274   0.92369   0.25926   0.00000  Uiso   1.00
H172   H     0.67311   0.75183   0.40123   0.00000  Uiso   1.00
H173   H     0.43053   0.06104   0.45176   0.00000  Uiso   1.00
H174   H     0.91566   0.96933   0.17533   0.00000  Uiso   1.00
H175   H     0.68449   0.60692   0.47469   0.00000  Uiso   1.00
O176   O     0.38545   0.11003   0.55133   0.00000  Uiso   1.00
O177   O     0.02192   0.98970   0.18867   0.00000  Uiso   1.00
O178   O     0.71863   0.51423   0.58143   0.00000  Uiso   1.00
N179   N     0.49541   0.03721   0.55890   0.00000  Uiso   1.00
N180   N     0.94897   0.95148   0.30046   0.00000  Uiso   1.00
N181   N     0.73286   0.61265   0.58032   0.00000  Uiso   1.00
N182   N     0.46123   0.04559   0.48010   0.00000  Uiso   1.00
N183   N     0.91479   0.95986   0.22165   0.00000  Uiso   1.00
N184   N     0.69868   0.62103   0.50152   0.00000  Uiso   1.00
C185   C     0.73034   0.51251   0.79799   0.00000  Uiso   1.00
C186   C     0.77838   0.47388   0.74799   0.00000  Uiso   1.00
C187   C     0.83628   0.49347   0.69130   0.00000  Uiso   1.00
C188   C     0.87344   0.45119   0.65196   0.00000  Uiso   1.00
C189   C     0.95111   0.40027   0.57179   0.00000  Uiso   1.00
C190   C     0.73333   0.46230   0.86682   0.00000  Uiso   1.00
C191   C     0.75334   0.47216   0.91005   0.00000  Uiso   1.00
C192   C     0.75257   0.42012   0.97075   0.00000  Uiso   1.00
C193   C     0.76023   0.35125   0.07508   0.00000  Uiso   1.00
C194   C     0.65401   0.52600   0.80036   0.00000  Uiso   1.00
C195   C     0.60731   0.58942   0.78772   0.00000  Uiso   1.00
C196   C     0.53975   0.59102   0.79248   0.00000  Uiso   1.00
C197   C     0.42426   0.62106   0.79362   0.00000  Uiso   1.00
C198   C     0.69339   0.40258   0.82892   0.00000  Uiso   1.00
C199   C     0.75831   0.41417   0.76479   0.00000  Uiso   1.00
C200   C     0.79539   0.37185   0.72552   0.00000  Uiso   1.00
C201   C     0.85334   0.39137   0.66879   0.00000  Uiso   1.00
C202   C     0.71326   0.40259   0.88362   0.00000  Uiso   1.00
C203   C     0.71245   0.35053   0.94427   0.00000  Uiso   1.00
C204   C     0.73246   0.36030   0.98758   0.00000  Uiso   1.00
C205   C     0.63393   0.46629   0.81716   0.00000  Uiso   1.00
C206   C     0.56643   0.46780   0.82194   0.00000  Uiso   1.00
C207   C     0.51964   0.53121   0.80931   0.00000  Uiso   1.00
H208   H     0.74597   0.55899   0.78491   0.00000  Uiso   1.00
H209   H     0.85180   0.53968   0.67832   0.00000  Uiso   1.00
H210   H     0.76886   0.51837   0.89704   0.00000  Uiso   1.00
H211   H     0.62286   0.63562   0.77472   0.00000  Uiso   1.00
H212   H     0.96029   0.49192   0.56757   0.00000  Uiso   1.00
H213   H     0.78539   0.44700   0.02875   0.00000  Uiso   1.00
H214   H     0.47752   0.69424   0.77083   0.00000  Uiso   1.00
H215   H     0.67776   0.35609   0.84200   0.00000  Uiso   1.00
H216   H     0.77985   0.32564   0.73854   0.00000  Uiso   1.00
H217   H     0.69691   0.30433   0.95726   0.00000  Uiso   1.00
H218   H     0.55091   0.42158   0.83494   0.00000  Uiso   1.00
H219   H     0.90190   0.31820   0.61644   0.00000  Uiso   1.00
H220   H     0.72699   0.27328   0.07764   0.00000  Uiso   1.00
H221   H     0.41913   0.52052   0.81971   0.00000  Uiso   1.00
O222   O     0.99949   0.38868   0.52293   0.00000  Uiso   1.00
O223   O     0.77002   0.32976   0.12799   0.00000  Uiso   1.00
O224   O     0.36610   0.65413   0.78960   0.00000  Uiso   1.00
N225   N     0.93253   0.45522   0.59326   0.00000  Uiso   1.00
N226   N     0.76902   0.41322   0.02444   0.00000  Uiso   1.00
N227   N     0.48118   0.64437   0.78332   0.00000  Uiso   1.00
N228   N     0.90111   0.36175   0.61956   0.00000  Uiso   1.00
N229   N     0.73759   0.31974   0.05074   0.00000  Uiso   1.00
N230   N     0.44976   0.55089   0.80962   0.00000  Uiso   1.00
C231   C     0.41891   0.81127   0.82000   0.00000  Uiso   1.00
C232   C     0.37996   0.75451   0.87082   0.00000  Uiso   1.00
C233   C     0.40647   0.69586   0.91602   0.00000  Uiso   1.00
C234   C     0.36257   0.65014   0.95835   0.00000  Uiso   1.00
C235   C     0.31243   0.56012   0.03770   0.00000  Uiso   1.00
C236   C     0.36914   0.87661   0.83435   0.00000  Uiso   1.00
C237   C     0.38655   0.92062   0.84889   0.00000  Uiso   1.00
C238   C     0.33354   0.97769   0.86051   0.00000  Uiso   1.00
C239   C     0.26660   0.07726   0.88320   0.00000  Uiso   1.00
C240   C     0.42188   0.81851   0.75126   0.00000  Uiso   1.00
C241   C     0.48365   0.81369   0.69592   0.00000  Uiso   1.00
C242   C     0.47504   0.82185   0.63758   0.00000  Uiso   1.00
C243   C     0.49000   0.83120   0.53127   0.00000  Uiso   1.00
C244   C     0.29380   0.83436   0.81478   0.00000  Uiso   1.00
C245   C     0.31201   0.76706   0.86798   0.00000  Uiso   1.00
C246   C     0.26806   0.72141   0.91024   0.00000  Uiso   1.00
C247   C     0.29450   0.66270   0.95550   0.00000  Uiso   1.00
C248   C     0.30119   0.88916   0.83151   0.00000  Uiso   1.00
C249   C     0.24814   0.94617   0.84311   0.00000  Uiso   1.00
C250   C     0.26546   0.99025   0.85766   0.00000  Uiso   1.00
C251   C     0.35393   0.83105   0.74842   0.00000  Uiso   1.00
C252   C     0.34523   0.83923   0.69015   0.00000  Uiso   1.00
C253   C     0.40697   0.83441   0.63474   0.00000  Uiso   1.00
H254   H     0.47181   0.80151   0.82221   0.00000  Uiso   1.00
H255   H     0.45906   0.68618   0.91821   0.00000  Uiso   1.00
H256   H     0.43914   0.91091   0.85107   0.00000  Uiso   1.00
H257   H     0.53622   0.80398   0.69814   0.00000  Uiso   1.00
H258   H     0.41495   0.56386   0.02340   0.00000  Uiso   1.00
H259   H     0.37296   0.03772   0.88183   0.00000  Uiso   1.00
H260   H     0.57767   0.81224   0.55933   0.00000  Uiso   1.00
H261   H     0.24090   0.84413   0.81257   0.00000  Uiso   1.00
H262   H     0.21548   0.73113   0.90804   0.00000  Uiso   1.00
H263   H     0.19556   0.95586   0.84091   0.00000  Uiso   1.00
H264   H     0.29264   0.84893   0.68797   0.00000  Uiso   1.00
H265   H     0.21725   0.60034   0.01515   0.00000  Uiso   1.00
H266   H     0.17526   0.07421   0.87357   0.00000  Uiso   1.00
H267   H     0.37997   0.84873   0.55108   0.00000  Uiso   1.00
O268   O     0.30353   0.50701   0.08227   0.00000  Uiso   1.00
O269   O     0.24845   0.12871   0.89651   0.00000  Uiso   1.00
O270   O     0.51703   0.83288   0.47341   0.00000  Uiso   1.00
N271   N     0.37191   0.58794   0.00835   0.00000  Uiso   1.00
N272   N     0.33265   0.03097   0.87600   0.00000  Uiso   1.00
N273   N     0.52404   0.82019   0.57448   0.00000  Uiso   1.00
N274   N     0.26553   0.60758   0.00391   0.00000  Uiso   1.00
N275   N     0.22627   0.05061   0.87156   0.00000  Uiso   1.00
N276   N     0.41766   0.83982   0.57004   0.00000  Uiso   1.00
C277   C     0.68205   0.14037   0.71721   0.00000  Uiso   1.00
C278   C     0.74701   0.16240   0.65707   0.00000  Uiso   1.00
C279   C     0.79122   0.12956   0.60970   0.00000  Uiso   1.00
C280   C     0.84785   0.15773   0.55847   0.00000  Uiso   1.00
C281   C     0.94689   0.18299   0.46564   0.00000  Uiso   1.00
C282   C     0.61879   0.20143   0.71067   0.00000  Uiso   1.00
C283   C     0.55519   0.20139   0.70838   0.00000  Uiso   1.00
C284   C     0.50389   0.26243   0.70228   0.00000  Uiso   1.00
C285   C     0.40384   0.34826   0.69271   0.00000  Uiso   1.00
C286   C     0.69538   0.13161   0.77925   0.00000  Uiso   1.00
C287   C     0.69617   0.07289   0.83463   0.00000  Uiso   1.00
C288   C     0.70933   0.07515   0.88627   0.00000  Uiso   1.00
C289   C     0.72820   0.05259   0.98318   0.00000  Uiso   1.00
C290   C     0.70400   0.24881   0.71047   0.00000  Uiso   1.00
C291   C     0.75893   0.22130   0.65342   0.00000  Uiso   1.00
C292   C     0.81552   0.24953   0.60225   0.00000  Uiso   1.00
C293   C     0.85981   0.21674   0.55481   0.00000  Uiso   1.00
C294   C     0.63071   0.26033   0.70701   0.00000  Uiso   1.00
C295   C     0.57949   0.32137   0.70092   0.00000  Uiso   1.00
C296   C     0.51584   0.32143   0.69861   0.00000  Uiso   1.00
C297   C     0.70731   0.19051   0.77559   0.00000  Uiso   1.00
C298   C     0.72047   0.19287   0.82717   0.00000  Uiso   1.00
C299   C     0.72128   0.13416   0.88261   0.00000  Uiso   1.00
H300   H     0.67275   0.09452   0.72006   0.00000  Uiso   1.00
H301   H     0.78197   0.08398   0.61255   0.00000  Uiso   1.00
H302   H     0.54598   0.15580   0.71122   0.00000  Uiso   1.00
H303   H     0.68693   0.02732   0.83744   0.00000  Uiso   1.00
H304   H     0.90830   0.09828   0.49173   0.00000  Uiso   1.00
H305   H     0.41069   0.24972   0.69980   0.00000  Uiso   1.00
H306   H     0.70792   0.97879   0.96597   0.00000  Uiso   1.00
H307   H     0.71329   0.29467   0.70762   0.00000  Uiso   1.00
H308   H     0.82473   0.29511   0.59943   0.00000  Uiso   1.00
H309   H     0.58874   0.36694   0.69809   0.00000  Uiso   1.00
H310   H     0.72969   0.23846   0.82432   0.00000  Uiso   1.00
H311   H     0.94300   0.26965   0.48107   0.00000  Uiso   1.00
H312   H     0.44539   0.42109   0.68915   0.00000  Uiso   1.00
H313   H     0.74262   0.15016   0.95532   0.00000  Uiso   1.00
O314   O     0.99821   0.18066   0.41544   0.00000  Uiso   1.00
O315   O     0.34536   0.37934   0.68843   0.00000  Uiso   1.00
O316   O     0.73533   0.02388   0.03764   0.00000  Uiso   1.00
N317   N     0.90118   0.13855   0.50408   0.00000  Uiso   1.00
N318   N     0.43595   0.28014   0.69860   0.00000  Uiso   1.00
N319   N     0.71381   0.02684   0.94746   0.00000  Uiso   1.00
N320   N     0.91986   0.23076   0.49834   0.00000  Uiso   1.00
N321   N     0.45462   0.37235   0.69287   0.00000  Uiso   1.00
N322   N     0.73249   0.11905   0.94173   0.00000  Uiso   1.00
C323   C     0.67897   0.85677   0.08733   0.00000  Uiso   1.00
C324   C     0.63334   0.91779   0.11157   0.00000  Uiso   1.00
C325   C     0.58667   0.97275   0.08228   0.00000  Uiso   1.00
C326   C     0.54979   0.02343   0.11200   0.00000  Uiso   1.00
C327   C     0.47745   0.11880   0.14098   0.00000  Uiso   1.00
C328   C     0.65927   0.79396   0.14729   0.00000  Uiso   1.00
C329   C     0.63442   0.74480   0.14803   0.00000  Uiso   1.00
C330   C     0.61938   0.69124   0.20782   0.00000  Uiso   1.00
C331   C     0.58736   0.59434   0.29225   0.00000  Uiso   1.00
C332   C     0.75630   0.85326   0.07501   0.00000  Uiso   1.00
C333   C     0.81304   0.85394   0.01498   0.00000  Uiso   1.00
C334   C     0.87971   0.85028   0.01392   0.00000  Uiso   1.00
C335   C     0.99834   0.84544   0.98612   0.00000  Uiso   1.00
C336   C     0.69648   0.84904   0.19219   0.00000  Uiso   1.00
C337   C     0.64284   0.91359   0.16852   0.00000  Uiso   1.00
C338   C     0.60603   0.96420   0.19829   0.00000  Uiso   1.00
C339   C     0.55931   0.01923   0.16905   0.00000  Uiso   1.00
C340   C     0.66878   0.78976   0.20424   0.00000  Uiso   1.00
C341   C     0.65378   0.73626   0.26405   0.00000  Uiso   1.00
C342   C     0.62891   0.68704   0.26488   0.00000  Uiso   1.00
C343   C     0.76581   0.84906   0.13196   0.00000  Uiso   1.00
C344   C     0.83240   0.84539   0.13099   0.00000  Uiso   1.00
C345   C     0.88923   0.84607   0.07098   0.00000  Uiso   1.00
H346   H     0.67157   0.86003   0.04300   0.00000  Uiso   1.00
H347   H     0.57932   0.97597   0.03821   0.00000  Uiso   1.00
H348   H     0.62707   0.74806   0.10395   0.00000  Uiso   1.00
H349   H     0.80566   0.85718   0.97092   0.00000  Uiso   1.00
H350   H     0.48121   0.10266   0.05803   0.00000  Uiso   1.00
H351   H     0.58193   0.62208   0.19664   0.00000  Uiso   1.00
H352   H     0.95852   0.85218   0.91612   0.00000  Uiso   1.00
H353   H     0.70388   0.84577   0.23654   0.00000  Uiso   1.00
H354   H     0.61340   0.96094   0.24237   0.00000  Uiso   1.00
H355   H     0.66115   0.73303   0.30811   0.00000  Uiso   1.00
H356   H     0.83974   0.84215   0.17508   0.00000  Uiso   1.00
H357   H     0.50887   0.09045   0.22373   0.00000  Uiso   1.00
H358   H     0.60959   0.60988   0.36235   0.00000  Uiso   1.00
H359   H     0.98618   0.83998   0.08183   0.00000  Uiso   1.00
O360   O     0.43492   0.17256   0.14124   0.00000  Uiso   1.00
O361   O     0.56707   0.54206   0.32309   0.00000  Uiso   1.00
O362   O     0.06115   0.84395   0.95505   0.00000  Uiso   1.00
N363   N     0.50015   0.08399   0.09622   0.00000  Uiso   1.00
N364   N     0.59430   0.63468   0.22582   0.00000  Uiso   1.00
N365   N     0.94639   0.84979   0.96356   0.00000  Uiso   1.00
N366   N     0.51503   0.07742   0.18538   0.00000  Uiso   1.00
N367   N     0.60918   0.62812   0.31498   0.00000  Uiso   1.00
N368   N     0.96127   0.84322   0.05272   0.00000  Uiso   1.00
C369   C     0.98829   0.85723   0.72003   0.00000  Uiso   1.00
C370   C     0.00006   0.81152   0.78689   0.00000  Uiso   1.00
C371   C     0.95296   0.77408   0.84229   0.00000  Uiso   1.00
C372   C     0.97356   0.73540   0.89873   0.00000  Uiso   1.00
C373   C     0.98190   0.66458   0.00241   0.00000  Uiso   1.00
C374   C     0.05285   0.83125   0.66607   0.00000  Uiso   1.00
C375   C     0.05015   0.81041   0.61987   0.00000  Uiso   1.00
C376   C     0.11518   0.78835   0.57460   0.00000  Uiso   1.00
C377   C     0.20549   0.74821   0.49065   0.00000  Uiso   1.00
C378   C     0.99442   0.92746   0.70831   0.00000  Uiso   1.00
C379   C     0.94260   0.98752   0.69760   0.00000  Uiso   1.00
C380   C     0.95845   0.04647   0.68788   0.00000  Uiso   1.00
C381   C     0.95803   0.15571   0.66951   0.00000  Uiso   1.00
C382   C     0.10860   0.85512   0.72176   0.00000  Uiso   1.00
C383   C     0.06540   0.81037   0.78783   0.00000  Uiso   1.00
C384   C     0.08607   0.77175   0.84421   0.00000  Uiso   1.00
C385   C     0.03902   0.73426   0.89968   0.00000  Uiso   1.00
C386   C     0.11820   0.83010   0.66701   0.00000  Uiso   1.00
C387   C     0.18325   0.80808   0.62179   0.00000  Uiso   1.00
C388   C     0.18065   0.78721   0.57554   0.00000  Uiso   1.00
C389   C     0.05977   0.92632   0.70925   0.00000  Uiso   1.00
C390   C     0.07570   0.98518   0.69953   0.00000  Uiso   1.00
C391   C     0.02391   0.04532   0.68882   0.00000  Uiso   1.00
H392   H     0.93742   0.85812   0.71929   0.00000  Uiso   1.00
H393   H     0.90240   0.77497   0.84154   0.00000  Uiso   1.00
H394   H     0.99957   0.81131   0.61915   0.00000  Uiso   1.00
H395   H     0.89204   0.98839   0.69688   0.00000  Uiso   1.00
H396   H     0.89241   0.68227   0.97748   0.00000  Uiso   1.00
H397   H     0.09729   0.75890   0.50854   0.00000  Uiso   1.00
H398   H     0.87053   0.13231   0.67245   0.00000  Uiso   1.00
H399   H     0.15948   0.85423   0.72249   0.00000  Uiso   1.00
H400   H     0.13664   0.77087   0.84492   0.00000  Uiso   1.00
H401   H     0.23381   0.80720   0.62253   0.00000  Uiso   1.00
H402   H     0.12628   0.98428   0.70026   0.00000  Uiso   1.00
H403   H     0.08253   0.67893   0.98023   0.00000  Uiso   1.00
H404   H     0.28741   0.75557   0.51129   0.00000  Uiso   1.00
H405   H     0.06065   0.12898   0.67519   0.00000  Uiso   1.00
O406   O     0.96845   0.62582   0.05933   0.00000  Uiso   1.00
O407   O     0.23724   0.72638   0.44409   0.00000  Uiso   1.00
O408   O     0.93974   0.21627   0.65913   0.00000  Uiso   1.00
N409   N     0.94028   0.69293   0.96133   0.00000  Uiso   1.00
N410   N     0.13183   0.76457   0.52291   0.00000  Uiso   1.00
N411   N     0.91984   0.11368   0.67613   0.00000  Uiso   1.00
N412   N     0.04258   0.69114   0.96281   0.00000  Uiso   1.00
N413   N     0.23413   0.76278   0.52439   0.00000  Uiso   1.00
N414   N     0.02214   0.11189   0.67761   0.00000  Uiso   1.00
C415   C     0.10226   0.30804   0.67307   0.00000  Uiso   1.00
C416   C     0.17264   0.26840   0.68663   0.00000  Uiso   1.00
C417   C     0.22688   0.22398   0.65397   0.00000  Uiso   1.00
C418   C     0.28704   0.19268   0.67366   0.00000  Uiso   1.00
C419   C     0.39544   0.12918   0.68706   0.00000  Uiso   1.00
C420   C     0.04275   0.28887   0.74040   0.00000  Uiso   1.00
C421   C     0.98778   0.26167   0.75294   0.00000  Uiso   1.00
C422   C     0.93860   0.24761   0.81790   0.00000  Uiso   1.00
C423   C     0.84532   0.21593   0.91476   0.00000  Uiso   1.00
C424   C     0.09852   0.38287   0.65595   0.00000  Uiso   1.00
C425   C     0.09042   0.43472   0.59748   0.00000  Uiso   1.00
C426   C     0.08818   0.49981   0.59133   0.00000  Uiso   1.00
C427   C     0.08149   0.61409   0.55706   0.00000  Uiso   1.00
C428   C     0.11266   0.33144   0.76612   0.00000  Uiso   1.00
C429   C     0.17828   0.28111   0.73718   0.00000  Uiso   1.00
C430   C     0.23838   0.24988   0.75692   0.00000  Uiso   1.00
C431   C     0.29270   0.20542   0.72429   0.00000  Uiso   1.00
C432   C     0.04839   0.30158   0.79095   0.00000  Uiso   1.00
C433   C     0.99928   0.28757   0.85589   0.00000  Uiso   1.00
C434   C     0.94426   0.26035   0.86853   0.00000  Uiso   1.00
C435   C     0.10417   0.39559   0.70649   0.00000  Uiso   1.00
C436   C     0.10193   0.46061   0.70043   0.00000  Uiso   1.00
C437   C     0.09383   0.51255   0.64196   0.00000  Uiso   1.00
H438   H     0.09786   0.29814   0.63372   0.00000  Uiso   1.00
H439   H     0.22249   0.21415   0.61486   0.00000  Uiso   1.00
H440   H     0.98343   0.25184   0.71382   0.00000  Uiso   1.00
H441   H     0.08606   0.42486   0.55838   0.00000  Uiso   1.00
H442   H     0.36313   0.12662   0.61626   0.00000  Uiso   1.00
H443   H     0.85904   0.20612   0.82491   0.00000  Uiso   1.00
H444   H     0.07546   0.57097   0.49713   0.00000  Uiso   1.00
H445   H     0.11705   0.34134   0.80547   0.00000  Uiso   1.00
H446   H     0.24273   0.25973   0.79604   0.00000  Uiso   1.00
H447   H     0.00366   0.29741   0.89499   0.00000  Uiso   1.00
H448   H     0.10630   0.47043   0.73955   0.00000  Uiso   1.00
H449   H     0.37956   0.16361   0.76331   0.00000  Uiso   1.00
H450   H     0.87547   0.24311   0.97195   0.00000  Uiso   1.00
H451   H     0.09188   0.60796   0.64418   0.00000  Uiso   1.00
O452   O     0.45367   0.09063   0.68049   0.00000  Uiso   1.00
O453   O     0.79231   0.19494   0.95422   0.00000  Uiso   1.00
O454   O     0.07625   0.67361   0.52419   0.00000  Uiso   1.00
N455   N     0.34976   0.14654   0.65215   0.00000  Uiso   1.00
N456   N     0.87847   0.22085   0.84723   0.00000  Uiso   1.00
N457   N     0.08078   0.56196   0.54079   0.00000  Uiso   1.00
N458   N     0.35860   0.16644   0.73128   0.00000  Uiso   1.00
N459   N     0.88731   0.24075   0.92635   0.00000  Uiso   1.00
N460   N     0.08962   0.58186   0.61992   0.00000  Uiso   1.00
C461   C     0.18509   0.69317   0.17900   0.00000  Uiso   1.00
C462   C     0.13320   0.68421   0.25102   0.00000  Uiso   1.00
C463   C     0.08841   0.63901   0.28740   0.00000  Uiso   1.00
C464   C     0.04494   0.63853   0.35256   0.00000  Uiso   1.00
C465   C     0.96415   0.61806   0.46016   0.00000  Uiso   1.00
C466   C     0.16489   0.76832   0.13936   0.00000  Uiso   1.00
C467   C     0.14676   0.79384   0.08184   0.00000  Uiso   1.00
C468   C     0.12998   0.86417   0.05300   0.00000  Uiso   1.00
C469   C     0.09844   0.97430   0.98721   0.00000  Uiso   1.00
C470   C     0.25883   0.68149   0.18160   0.00000  Uiso   1.00
C471   C     0.31969   0.63402   0.15958   0.00000  Uiso   1.00
C472   C     0.38200   0.63126   0.16629   0.00000  Uiso   1.00
C473   C     0.49631   0.60656   0.16608   0.00000  Uiso   1.00
C474   C     0.18752   0.77270   0.23004   0.00000  Uiso   1.00
C475   C     0.13452   0.72741   0.27874   0.00000  Uiso   1.00
C476   C     0.09111   0.72700   0.34387   0.00000  Uiso   1.00
C477   C     0.04627   0.68180   0.38034   0.00000  Uiso   1.00
C478   C     0.16621   0.81152   0.16708   0.00000  Uiso   1.00
C479   C     0.14946   0.88183   0.13831   0.00000  Uiso   1.00
C480   C     0.13130   0.90745   0.08077   0.00000  Uiso   1.00
C481   C     0.26015   0.72469   0.20932   0.00000  Uiso   1.00
C482   C     0.32238   0.72201   0.21606   0.00000  Uiso   1.00
C483   C     0.38332   0.67453   0.19406   0.00000  Uiso   1.00
H484   H     0.18406   0.65955   0.15741   0.00000  Uiso   1.00
H485   H     0.08740   0.60559   0.26592   0.00000  Uiso   1.00
H486   H     0.14575   0.76040   0.06039   0.00000  Uiso   1.00
H487   H     0.31865   0.60060   0.13813   0.00000  Uiso   1.00
H488   H     0.98081   0.56484   0.39844   0.00000  Uiso   1.00
H489   H     0.10386   0.89126   0.96506   0.00000  Uiso   1.00
H490   H     0.46845   0.55429   0.12897   0.00000  Uiso   1.00
H491   H     0.18855   0.80634   0.25163   0.00000  Uiso   1.00
H492   H     0.09214   0.76043   0.36531   0.00000  Uiso   1.00
H493   H     0.15049   0.91524   0.15978   0.00000  Uiso   1.00
H494   H     0.32339   0.75544   0.23752   0.00000  Uiso   1.00
H495   H     0.98465   0.69052   0.47911   0.00000  Uiso   1.00
H496   H     0.10771   0.01694   0.04573   0.00000  Uiso   1.00
H497   H     0.47230   0.67997   0.20964   0.00000  Uiso   1.00
O498   O     0.91921   0.59485   0.51185   0.00000  Uiso   1.00
O499   O     0.08067   0.02310   0.94327   0.00000  Uiso   1.00
O500   O     0.55900   0.58100   0.15832   0.00000  Uiso   1.00
N501   N     0.99495   0.60071   0.40183   0.00000  Uiso   1.00
N502   N     0.10999   0.90589   0.99665   0.00000  Uiso   1.00
N503   N     0.45086   0.59087   0.14988   0.00000  Uiso   1.00
N504   N     0.99702   0.66833   0.44524   0.00000  Uiso   1.00
N505   N     0.11206   0.97352   0.04006   0.00000  Uiso   1.00
N506   N     0.45293   0.65849   0.19329   0.00000  Uiso   1.00
C507   C     0.53447   0.26175   0.14910   0.00000  Uiso   1.00
C508   C     0.54691   0.33340   0.12018   0.00000  Uiso   1.00
C509   C     0.53336   0.38388   0.06318   0.00000  Uiso   1.00
C510   C     0.54835   0.44603   0.04494   0.00000  Uiso   1.00
C511   C     0.56351   0.55558   0.99430   0.00000  Uiso   1.00
C512   C     0.60642   0.21316   0.15255   0.00000  Uiso   1.00
C513   C     0.64289   0.16254   0.12277   0.00000  Uiso   1.00
C514   C     0.70797   0.12347   0.13179   0.00000  Uiso   1.00
C515   C     0.81549   0.04631   0.13145   0.00000  Uiso   1.00
C516   C     0.48485   0.25280   0.22186   0.00000  Uiso   1.00
C517   C     0.41911   0.23549   0.25037   0.00000  Uiso   1.00
C518   C     0.38185   0.22977   0.31775   0.00000  Uiso   1.00
C519   C     0.30061   0.21415   0.42503   0.00000  Uiso   1.00
C520   C     0.58520   0.28235   0.21808   0.00000  Uiso   1.00
C521   C     0.57447   0.34459   0.15764   0.00000  Uiso   1.00
C522   C     0.58948   0.40668   0.13949   0.00000  Uiso   1.00
C523   C     0.57594   0.45724   0.08248   0.00000  Uiso   1.00
C524   C     0.63397   0.22435   0.19001   0.00000  Uiso   1.00
C525   C     0.69901   0.18534   0.19908   0.00000  Uiso   1.00
C526   C     0.73557   0.13468   0.16932   0.00000  Uiso   1.00
C527   C     0.51240   0.26399   0.25933   0.00000  Uiso   1.00
C528   C     0.47523   0.25829   0.32668   0.00000  Uiso   1.00
C529   C     0.40945   0.24098   0.35529   0.00000  Uiso   1.00
H530   H     0.51303   0.25303   0.11994   0.00000  Uiso   1.00
H531   H     0.51204   0.37520   0.03419   0.00000  Uiso   1.00
H532   H     0.62155   0.15389   0.09378   0.00000  Uiso   1.00
H533   H     0.39781   0.22683   0.22136   0.00000  Uiso   1.00
H534   H     0.52312   0.51557   0.95564   0.00000  Uiso   1.00
H535   H     0.75402   0.04892   0.08130   0.00000  Uiso   1.00
H536   H     0.28222   0.20272   0.35033   0.00000  Uiso   1.00
H537   H     0.60665   0.29106   0.24725   0.00000  Uiso   1.00
H538   H     0.61080   0.41532   0.16850   0.00000  Uiso   1.00
H539   H     0.72031   0.19401   0.22808   0.00000  Uiso   1.00
H540   H     0.49657   0.26695   0.35566   0.00000  Uiso   1.00
H541   H     0.60328   0.54814   0.06464   0.00000  Uiso   1.00
H542   H     0.83418   0.08147   0.19031   0.00000  Uiso   1.00
H543   H     0.36238   0.23529   0.45933   0.00000  Uiso   1.00
O544   O     0.56427   0.61290   0.95602   0.00000  Uiso   1.00
O545   O     0.86719   0.00066   0.12090   0.00000  Uiso   1.00
O546   O     0.24819   0.20246   0.47385   0.00000  Uiso   1.00
N547   N     0.54141   0.50619   0.99211   0.00000  Uiso   1.00
N548   N     0.75729   0.06990   0.10959   0.00000  Uiso   1.00
N549   N     0.31620   0.21368   0.36111   0.00000  Uiso   1.00
N550   N     0.58454   0.52371   0.05076   0.00000  Uiso   1.00
N551   N     0.80042   0.08742   0.16824   0.00000  Uiso   1.00
N552   N     0.35933   0.23120   0.41976   0.00000  Uiso   1.00
