data_job_02591
_audit_creation_date              2018-12-19
_audit_creation_method            'Materials Studio'
_symmetry_space_group_name_H-M    'P1'
_symmetry_Int_Tables_number       1
_symmetry_cell_setting            triclinic
loop_
_symmetry_equiv_pos_as_xyz
  x,y,z
_cell_length_a                    11.5025
_cell_length_b                    18.8493
_cell_length_c                    14.4910
_cell_angle_alpha                 90.0000
_cell_angle_beta                  125.2940
_cell_angle_gamma                 90.0000
loop_
_atom_site_label
_atom_site_type_symbol
_atom_site_fract_x
_atom_site_fract_y
_atom_site_fract_z
_atom_site_U_iso_or_equiv
_atom_site_adp_type
_atom_site_occupancy
C1     C     0.43983   0.22694   0.96710   0.00000  Uiso   1.00
C2     C     0.59272   0.25362   0.04480   0.00000  Uiso   1.00
C3     C     0.68568   0.26415   0.01425   0.00000  Uiso   1.00
C4     C     0.82107   0.28883   0.09764   0.00000  Uiso   1.00
C5     C     0.05229   0.32816   0.20159   0.00000  Uiso   1.00
C6     C     0.43109   0.16132   0.02438   0.00000  Uiso   1.00
C7     C     0.38813   0.09424   0.97665   0.00000  Uiso   1.00
C8     C     0.38744   0.04123   0.04286   0.00000  Uiso   1.00
C9     C     0.36762   0.93727   0.11506   0.00000  Uiso   1.00
C10    C     0.34718   0.28307   0.97085   0.00000  Uiso   1.00
C11    C     0.23365   0.31836   0.87810   0.00000  Uiso   1.00
C12    C     0.16230   0.36785   0.89924   0.00000  Uiso   1.00
C13    C     0.01220   0.45293   0.88832   0.00000  Uiso   1.00
C14    C     0.51497   0.25205   0.16955   0.00000  Uiso   1.00
C15    C     0.63353   0.26726   0.15476   0.00000  Uiso   1.00
C16    C     0.76882   0.29194   0.23823   0.00000  Uiso   1.00
C17    C     0.86197   0.30251   0.20780   0.00000  Uiso   1.00
C18    C     0.47190   0.17496   0.13434   0.00000  Uiso   1.00
C19    C     0.47127   0.12204   0.20063   0.00000  Uiso   1.00
C20    C     0.42833   0.05490   0.15302   0.00000  Uiso   1.00
C21    C     0.38800   0.29672   0.08081   0.00000  Uiso   1.00
C22    C     0.31680   0.34616   0.10209   0.00000  Uiso   1.00
C23    C     0.20319   0.38151   0.00940   0.00000  Uiso   1.00
H24    H     0.40805   0.21631   0.88149   0.00000  Uiso   1.00
H25    H     0.65405   0.25358   0.92914   0.00000  Uiso   1.00
H26    H     0.35653   0.08370   0.89155   0.00000  Uiso   1.00
H27    H     0.20209   0.30779   0.79302   0.00000  Uiso   1.00
H28    H     0.94482   0.30089   0.03048   0.00000  Uiso   1.00
H29    H     0.31743   0.94271   0.95119   0.00000  Uiso   1.00
H30    H     0.99175   0.41523   0.74342   0.00000  Uiso   1.00
H31    H     0.54675   0.26268   0.25516   0.00000  Uiso   1.00
H32    H     0.80038   0.30249   0.32332   0.00000  Uiso   1.00
H33    H     0.50286   0.13261   0.28572   0.00000  Uiso   1.00
H34    H     0.34841   0.35670   0.18720   0.00000  Uiso   1.00
H35    H     0.06358   0.34059   0.35041   0.00000  Uiso   1.00
H36    H     0.43619   0.98240   0.27112   0.00000  Uiso   1.00
H37    H     0.11052   0.45493   0.06336   0.00000  Uiso   1.00
O38    O     0.16855   0.34607   0.22855   0.00000  Uiso   1.00
O39    O     0.34542   0.87615   0.12452   0.00000  Uiso   1.00
O40    O     0.91815   0.49610   0.85193   0.00000  Uiso   1.00
N41    N     0.93795   0.30478   0.09641   0.00000  Uiso   1.00
N42    N     0.35141   0.96990   0.02229   0.00000  Uiso   1.00
N43    N     0.04690   0.41166   0.82804   0.00000  Uiso   1.00
N44    N     0.00186   0.32615   0.26856   0.00000  Uiso   1.00
N45    N     0.41531   0.99126   0.19444   0.00000  Uiso   1.00
N46    N     0.11080   0.43302   0.00020   0.00000  Uiso   1.00
C47    C     0.56017   0.72694   0.53290   0.00000  Uiso   1.00
C48    C     0.40728   0.75362   0.45520   0.00000  Uiso   1.00
C49    C     0.31432   0.76415   0.48575   0.00000  Uiso   1.00
C50    C     0.17893   0.78883   0.40236   0.00000  Uiso   1.00
C51    C     0.94771   0.82816   0.29841   0.00000  Uiso   1.00
C52    C     0.56891   0.66132   0.47562   0.00000  Uiso   1.00
C53    C     0.61187   0.59424   0.52335   0.00000  Uiso   1.00
C54    C     0.61256   0.54123   0.45714   0.00000  Uiso   1.00
C55    C     0.63238   0.43727   0.38494   0.00000  Uiso   1.00
C56    C     0.65282   0.78307   0.52915   0.00000  Uiso   1.00
C57    C     0.76635   0.81836   0.62190   0.00000  Uiso   1.00
C58    C     0.83770   0.86785   0.60076   0.00000  Uiso   1.00
C59    C     0.98780   0.95293   0.61168   0.00000  Uiso   1.00
C60    C     0.48503   0.75205   0.33045   0.00000  Uiso   1.00
C61    C     0.36647   0.76726   0.34524   0.00000  Uiso   1.00
C62    C     0.23118   0.79194   0.26177   0.00000  Uiso   1.00
C63    C     0.13803   0.80251   0.29220   0.00000  Uiso   1.00
C64    C     0.52810   0.67496   0.36566   0.00000  Uiso   1.00
C65    C     0.52873   0.62204   0.29937   0.00000  Uiso   1.00
C66    C     0.57167   0.55490   0.34698   0.00000  Uiso   1.00
C67    C     0.61200   0.79672   0.41919   0.00000  Uiso   1.00
C68    C     0.68320   0.84616   0.39791   0.00000  Uiso   1.00
C69    C     0.79681   0.88151   0.49060   0.00000  Uiso   1.00
H70    H     0.59195   0.71631   0.61851   0.00000  Uiso   1.00
H71    H     0.34595   0.75358   0.57086   0.00000  Uiso   1.00
H72    H     0.64347   0.58370   0.60845   0.00000  Uiso   1.00
H73    H     0.79791   0.80779   0.70698   0.00000  Uiso   1.00
H74    H     0.05518   0.80089   0.46952   0.00000  Uiso   1.00
H75    H     0.68257   0.44271   0.54881   0.00000  Uiso   1.00
H76    H     0.00825   0.91523   0.75658   0.00000  Uiso   1.00
H77    H     0.45325   0.76268   0.24484   0.00000  Uiso   1.00
H78    H     0.19962   0.80249   0.17668   0.00000  Uiso   1.00
H79    H     0.49714   0.63261   0.21428   0.00000  Uiso   1.00
H80    H     0.65159   0.85670   0.31280   0.00000  Uiso   1.00
H81    H     0.93642   0.84059   0.14959   0.00000  Uiso   1.00
H82    H     0.56381   0.48240   0.22888   0.00000  Uiso   1.00
H83    H     0.88948   0.95493   0.43664   0.00000  Uiso   1.00
O84    O     0.83145   0.84607   0.27145   0.00000  Uiso   1.00
O85    O     0.65458   0.37615   0.37548   0.00000  Uiso   1.00
O86    O     0.08185   0.99610   0.64807   0.00000  Uiso   1.00
N87    N     0.06205   0.80478   0.40359   0.00000  Uiso   1.00
N88    N     0.64859   0.46990   0.47771   0.00000  Uiso   1.00
N89    N     0.95310   0.91166   0.67196   0.00000  Uiso   1.00
N90    N     0.99814   0.82615   0.23144   0.00000  Uiso   1.00
N91    N     0.58469   0.49126   0.30556   0.00000  Uiso   1.00
N92    N     0.88920   0.93302   0.49980   0.00000  Uiso   1.00
C93    C     0.56017   0.77306   0.03290   0.00000  Uiso   1.00
C94    C     0.40728   0.74638   0.95520   0.00000  Uiso   1.00
C95    C     0.31432   0.73585   0.98575   0.00000  Uiso   1.00
C96    C     0.17893   0.71117   0.90236   0.00000  Uiso   1.00
C97    C     0.94771   0.67184   0.79841   0.00000  Uiso   1.00
C98    C     0.56891   0.83868   0.97562   0.00000  Uiso   1.00
C99    C     0.61187   0.90576   0.02335   0.00000  Uiso   1.00
C100   C     0.61256   0.95877   0.95714   0.00000  Uiso   1.00
C101   C     0.63238   0.06273   0.88494   0.00000  Uiso   1.00
C102   C     0.65282   0.71693   0.02915   0.00000  Uiso   1.00
C103   C     0.76635   0.68164   0.12190   0.00000  Uiso   1.00
C104   C     0.83770   0.63215   0.10076   0.00000  Uiso   1.00
C105   C     0.98780   0.54707   0.11168   0.00000  Uiso   1.00
C106   C     0.48503   0.74795   0.83045   0.00000  Uiso   1.00
C107   C     0.36647   0.73274   0.84524   0.00000  Uiso   1.00
C108   C     0.23118   0.70806   0.76177   0.00000  Uiso   1.00
C109   C     0.13803   0.69749   0.79220   0.00000  Uiso   1.00
C110   C     0.52810   0.82504   0.86566   0.00000  Uiso   1.00
C111   C     0.52873   0.87796   0.79937   0.00000  Uiso   1.00
C112   C     0.57167   0.94510   0.84698   0.00000  Uiso   1.00
C113   C     0.61200   0.70328   0.91919   0.00000  Uiso   1.00
C114   C     0.68320   0.65384   0.89791   0.00000  Uiso   1.00
C115   C     0.79681   0.61849   0.99060   0.00000  Uiso   1.00
H116   H     0.59195   0.78369   0.11851   0.00000  Uiso   1.00
H117   H     0.34595   0.74642   0.07086   0.00000  Uiso   1.00
H118   H     0.64347   0.91630   0.10845   0.00000  Uiso   1.00
H119   H     0.79791   0.69221   0.20698   0.00000  Uiso   1.00
H120   H     0.05518   0.69911   0.96952   0.00000  Uiso   1.00
H121   H     0.68257   0.05729   0.04881   0.00000  Uiso   1.00
H122   H     0.00825   0.58477   0.25658   0.00000  Uiso   1.00
H123   H     0.45325   0.73732   0.74484   0.00000  Uiso   1.00
H124   H     0.19962   0.69751   0.67668   0.00000  Uiso   1.00
H125   H     0.49714   0.86739   0.71428   0.00000  Uiso   1.00
H126   H     0.65159   0.64330   0.81280   0.00000  Uiso   1.00
H127   H     0.93642   0.65941   0.64959   0.00000  Uiso   1.00
H128   H     0.56381   0.01760   0.72888   0.00000  Uiso   1.00
H129   H     0.88948   0.54507   0.93664   0.00000  Uiso   1.00
O130   O     0.83145   0.65393   0.77145   0.00000  Uiso   1.00
O131   O     0.65458   0.12385   0.87548   0.00000  Uiso   1.00
O132   O     0.08185   0.50390   0.14807   0.00000  Uiso   1.00
N133   N     0.06205   0.69522   0.90359   0.00000  Uiso   1.00
N134   N     0.64859   0.03010   0.97771   0.00000  Uiso   1.00
N135   N     0.95310   0.58834   0.17196   0.00000  Uiso   1.00
N136   N     0.99814   0.67385   0.73144   0.00000  Uiso   1.00
N137   N     0.58469   0.00874   0.80556   0.00000  Uiso   1.00
N138   N     0.88920   0.56698   0.99980   0.00000  Uiso   1.00
C139   C     0.43983   0.27306   0.46710   0.00000  Uiso   1.00
C140   C     0.59272   0.24638   0.54480   0.00000  Uiso   1.00
C141   C     0.68568   0.23585   0.51425   0.00000  Uiso   1.00
C142   C     0.82107   0.21117   0.59764   0.00000  Uiso   1.00
C143   C     0.05229   0.17184   0.70159   0.00000  Uiso   1.00
C144   C     0.43109   0.33868   0.52438   0.00000  Uiso   1.00
C145   C     0.38813   0.40576   0.47665   0.00000  Uiso   1.00
C146   C     0.38744   0.45877   0.54286   0.00000  Uiso   1.00
C147   C     0.36762   0.56273   0.61506   0.00000  Uiso   1.00
C148   C     0.34718   0.21693   0.47085   0.00000  Uiso   1.00
C149   C     0.23365   0.18164   0.37810   0.00000  Uiso   1.00
C150   C     0.16230   0.13215   0.39924   0.00000  Uiso   1.00
C151   C     0.01220   0.04707   0.38832   0.00000  Uiso   1.00
C152   C     0.51497   0.24795   0.66955   0.00000  Uiso   1.00
C153   C     0.63353   0.23274   0.65476   0.00000  Uiso   1.00
C154   C     0.76882   0.20806   0.73823   0.00000  Uiso   1.00
C155   C     0.86197   0.19749   0.70780   0.00000  Uiso   1.00
C156   C     0.47190   0.32504   0.63434   0.00000  Uiso   1.00
C157   C     0.47127   0.37796   0.70063   0.00000  Uiso   1.00
C158   C     0.42833   0.44510   0.65302   0.00000  Uiso   1.00
C159   C     0.38800   0.20328   0.58081   0.00000  Uiso   1.00
C160   C     0.31680   0.15384   0.60209   0.00000  Uiso   1.00
C161   C     0.20319   0.11849   0.50940   0.00000  Uiso   1.00
H162   H     0.40805   0.28369   0.38149   0.00000  Uiso   1.00
H163   H     0.65405   0.24642   0.42914   0.00000  Uiso   1.00
H164   H     0.35653   0.41630   0.39155   0.00000  Uiso   1.00
H165   H     0.20209   0.19221   0.29302   0.00000  Uiso   1.00
H166   H     0.94482   0.19911   0.53048   0.00000  Uiso   1.00
H167   H     0.31743   0.55729   0.45119   0.00000  Uiso   1.00
H168   H     0.99175   0.08477   0.24342   0.00000  Uiso   1.00
H169   H     0.54675   0.23732   0.75516   0.00000  Uiso   1.00
H170   H     0.80038   0.19751   0.82332   0.00000  Uiso   1.00
H171   H     0.50286   0.36739   0.78572   0.00000  Uiso   1.00
H172   H     0.34841   0.14330   0.68720   0.00000  Uiso   1.00
H173   H     0.06358   0.15941   0.85041   0.00000  Uiso   1.00
H174   H     0.43619   0.51760   0.77112   0.00000  Uiso   1.00
H175   H     0.11052   0.04507   0.56336   0.00000  Uiso   1.00
O176   O     0.16855   0.15393   0.72855   0.00000  Uiso   1.00
O177   O     0.34542   0.62385   0.62452   0.00000  Uiso   1.00
O178   O     0.91815   0.00390   0.35193   0.00000  Uiso   1.00
N179   N     0.93795   0.19522   0.59641   0.00000  Uiso   1.00
N180   N     0.35141   0.53010   0.52229   0.00000  Uiso   1.00
N181   N     0.04690   0.08834   0.32804   0.00000  Uiso   1.00
N182   N     0.00186   0.17385   0.76856   0.00000  Uiso   1.00
N183   N     0.41531   0.50874   0.69444   0.00000  Uiso   1.00
N184   N     0.11080   0.06698   0.50020   0.00000  Uiso   1.00
