data_job_04054
_audit_creation_date              2018-12-19
_audit_creation_method            'Materials Studio'
_symmetry_space_group_name_H-M    'P1'
_symmetry_Int_Tables_number       1
_symmetry_cell_setting            triclinic
loop_
_symmetry_equiv_pos_as_xyz
  x,y,z
_cell_length_a                    21.1109
_cell_length_b                    13.8685
_cell_length_c                    30.9993
_cell_angle_alpha                 90.0000
_cell_angle_beta                  90.0000
_cell_angle_gamma                 90.0000
loop_
_atom_site_label
_atom_site_type_symbol
_atom_site_fract_x
_atom_site_fract_y
_atom_site_fract_z
_atom_site_U_iso_or_equiv
_atom_site_adp_type
_atom_site_occupancy
C1     C     0.23037   0.71615   0.82389   0.00000  Uiso   1.00
C2     C     0.19716   0.77358   0.85922   0.00000  Uiso   1.00
C3     C     0.16923   0.86347   0.85420   0.00000  Uiso   1.00
C4     C     0.14128   0.90403   0.89045   0.00000  Uiso   1.00
C5     C     0.08973   0.00049   0.93926   0.00000  Uiso   1.00
C6     C     0.29700   0.69596   0.84060   0.00000  Uiso   1.00
C7     C     0.35302   0.72057   0.81991   0.00000  Uiso   1.00
C8     C     0.40913   0.69577   0.84049   0.00000  Uiso   1.00
C9     C     0.51259   0.67165   0.86036   0.00000  Uiso   1.00
C10    C     0.19697   0.61874   0.82210   0.00000  Uiso   1.00
C11    C     0.16890   0.57840   0.78586   0.00000  Uiso   1.00
C12    C     0.14080   0.48858   0.79086   0.00000  Uiso   1.00
C13    C     0.08895   0.34456   0.78202   0.00000  Uiso   1.00
C14    C     0.23040   0.62834   0.89720   0.00000  Uiso   1.00
C15    C     0.19717   0.72589   0.89904   0.00000  Uiso   1.00
C16    C     0.16925   0.76632   0.93531   0.00000  Uiso   1.00
C17    C     0.14129   0.85625   0.93034   0.00000  Uiso   1.00
C18    C     0.29702   0.64827   0.88042   0.00000  Uiso   1.00
C19    C     0.35305   0.62342   0.90102   0.00000  Uiso   1.00
C20    C     0.40914   0.64799   0.88038   0.00000  Uiso   1.00
C21    C     0.19699   0.57104   0.86192   0.00000  Uiso   1.00
C22    C     0.16893   0.48126   0.86697   0.00000  Uiso   1.00
C23    C     0.14081   0.44080   0.83075   0.00000  Uiso   1.00
H24    H     0.23036   0.75328   0.79289   0.00000  Uiso   1.00
H25    H     0.16923   0.90036   0.82338   0.00000  Uiso   1.00
H26    H     0.35300   0.75747   0.78910   0.00000  Uiso   1.00
H27    H     0.16890   0.61533   0.75505   0.00000  Uiso   1.00
H28    H     0.10148   0.04241   0.87475   0.00000  Uiso   1.00
H29    H     0.48896   0.74109   0.80246   0.00000  Uiso   1.00
H30    H     0.10076   0.44136   0.73066   0.00000  Uiso   1.00
H31    H     0.23041   0.59121   0.92821   0.00000  Uiso   1.00
H32    H     0.16927   0.72939   0.96612   0.00000  Uiso   1.00
H33    H     0.35304   0.58651   0.93184   0.00000  Uiso   1.00
H34    H     0.16895   0.44437   0.89779   0.00000  Uiso   1.00
H35    H     0.10152   0.90365   0.99060   0.00000  Uiso   1.00
H36    H     0.48900   0.60233   0.91831   0.00000  Uiso   1.00
H37    H     0.10080   0.30260   0.84652   0.00000  Uiso   1.00
O38    O     0.06130   0.06687   0.95518   0.00000  Uiso   1.00
O39    O     0.56966   0.67154   0.86033   0.00000  Uiso   1.00
O40    O     0.06035   0.27831   0.76614   0.00000  Uiso   1.00
N41    N     0.10987   0.99078   0.89681   0.00000  Uiso   1.00
N42    N     0.47214   0.70908   0.82922   0.00000  Uiso   1.00
N43    N     0.10922   0.42884   0.76210   0.00000  Uiso   1.00
N44    N     0.10989   0.91611   0.95915   0.00000  Uiso   1.00
N45    N     0.47216   0.63441   0.89156   0.00000  Uiso   1.00
N46    N     0.10924   0.35418   0.82444   0.00000  Uiso   1.00
C47    C     0.73037   0.21615   0.82389   0.00000  Uiso   1.00
C48    C     0.69716   0.27358   0.85922   0.00000  Uiso   1.00
C49    C     0.66923   0.36347   0.85420   0.00000  Uiso   1.00
C50    C     0.64128   0.40403   0.89045   0.00000  Uiso   1.00
C51    C     0.58973   0.50049   0.93926   0.00000  Uiso   1.00
C52    C     0.79700   0.19596   0.84060   0.00000  Uiso   1.00
C53    C     0.85302   0.22057   0.81991   0.00000  Uiso   1.00
C54    C     0.90913   0.19577   0.84049   0.00000  Uiso   1.00
C55    C     0.01259   0.17165   0.86036   0.00000  Uiso   1.00
C56    C     0.69697   0.11874   0.82210   0.00000  Uiso   1.00
C57    C     0.66890   0.07840   0.78586   0.00000  Uiso   1.00
C58    C     0.64080   0.98858   0.79086   0.00000  Uiso   1.00
C59    C     0.58895   0.84456   0.78202   0.00000  Uiso   1.00
C60    C     0.73040   0.12834   0.89720   0.00000  Uiso   1.00
C61    C     0.69717   0.22589   0.89904   0.00000  Uiso   1.00
C62    C     0.66925   0.26632   0.93531   0.00000  Uiso   1.00
C63    C     0.64129   0.35625   0.93034   0.00000  Uiso   1.00
C64    C     0.79702   0.14827   0.88042   0.00000  Uiso   1.00
C65    C     0.85305   0.12342   0.90102   0.00000  Uiso   1.00
C66    C     0.90914   0.14799   0.88038   0.00000  Uiso   1.00
C67    C     0.69699   0.07104   0.86192   0.00000  Uiso   1.00
C68    C     0.66893   0.98126   0.86697   0.00000  Uiso   1.00
C69    C     0.64081   0.94080   0.83075   0.00000  Uiso   1.00
H70    H     0.73036   0.25328   0.79289   0.00000  Uiso   1.00
H71    H     0.66923   0.40036   0.82338   0.00000  Uiso   1.00
H72    H     0.85300   0.25747   0.78910   0.00000  Uiso   1.00
H73    H     0.66890   0.11533   0.75505   0.00000  Uiso   1.00
H74    H     0.60148   0.54241   0.87475   0.00000  Uiso   1.00
H75    H     0.98896   0.24109   0.80246   0.00000  Uiso   1.00
H76    H     0.60076   0.94136   0.73066   0.00000  Uiso   1.00
H77    H     0.73041   0.09121   0.92821   0.00000  Uiso   1.00
H78    H     0.66927   0.22939   0.96612   0.00000  Uiso   1.00
H79    H     0.85304   0.08651   0.93184   0.00000  Uiso   1.00
H80    H     0.66895   0.94437   0.89779   0.00000  Uiso   1.00
H81    H     0.60152   0.40365   0.99060   0.00000  Uiso   1.00
H82    H     0.98900   0.10233   0.91831   0.00000  Uiso   1.00
H83    H     0.60080   0.80260   0.84652   0.00000  Uiso   1.00
O84    O     0.56130   0.56687   0.95518   0.00000  Uiso   1.00
O85    O     0.06966   0.17154   0.86033   0.00000  Uiso   1.00
O86    O     0.56035   0.77831   0.76614   0.00000  Uiso   1.00
N87    N     0.60987   0.49078   0.89681   0.00000  Uiso   1.00
N88    N     0.97214   0.20908   0.82922   0.00000  Uiso   1.00
N89    N     0.60922   0.92884   0.76210   0.00000  Uiso   1.00
N90    N     0.60989   0.41611   0.95915   0.00000  Uiso   1.00
N91    N     0.97216   0.13441   0.89156   0.00000  Uiso   1.00
N92    N     0.60924   0.85418   0.82444   0.00000  Uiso   1.00
C93    C     0.76963   0.28385   0.32389   0.00000  Uiso   1.00
C94    C     0.80284   0.22642   0.35922   0.00000  Uiso   1.00
C95    C     0.83077   0.13653   0.35420   0.00000  Uiso   1.00
C96    C     0.85872   0.09597   0.39045   0.00000  Uiso   1.00
C97    C     0.91027   0.99951   0.43926   0.00000  Uiso   1.00
C98    C     0.70300   0.30404   0.34060   0.00000  Uiso   1.00
C99    C     0.64698   0.27943   0.31991   0.00000  Uiso   1.00
C100   C     0.59087   0.30423   0.34049   0.00000  Uiso   1.00
C101   C     0.48741   0.32835   0.36036   0.00000  Uiso   1.00
C102   C     0.80303   0.38126   0.32210   0.00000  Uiso   1.00
C103   C     0.83110   0.42160   0.28586   0.00000  Uiso   1.00
C104   C     0.85920   0.51142   0.29086   0.00000  Uiso   1.00
C105   C     0.91105   0.65544   0.28202   0.00000  Uiso   1.00
C106   C     0.76960   0.37166   0.39720   0.00000  Uiso   1.00
C107   C     0.80283   0.27411   0.39904   0.00000  Uiso   1.00
C108   C     0.83075   0.23368   0.43531   0.00000  Uiso   1.00
C109   C     0.85871   0.14375   0.43034   0.00000  Uiso   1.00
C110   C     0.70298   0.35173   0.38042   0.00000  Uiso   1.00
C111   C     0.64695   0.37658   0.40102   0.00000  Uiso   1.00
C112   C     0.59086   0.35201   0.38038   0.00000  Uiso   1.00
C113   C     0.80301   0.42896   0.36192   0.00000  Uiso   1.00
C114   C     0.83107   0.51874   0.36697   0.00000  Uiso   1.00
C115   C     0.85919   0.55920   0.33075   0.00000  Uiso   1.00
H116   H     0.76964   0.24672   0.29289   0.00000  Uiso   1.00
H117   H     0.83077   0.09964   0.32338   0.00000  Uiso   1.00
H118   H     0.64700   0.24253   0.28910   0.00000  Uiso   1.00
H119   H     0.83110   0.38467   0.25505   0.00000  Uiso   1.00
H120   H     0.89852   0.95759   0.37475   0.00000  Uiso   1.00
H121   H     0.51104   0.25891   0.30246   0.00000  Uiso   1.00
H122   H     0.89924   0.55864   0.23066   0.00000  Uiso   1.00
H123   H     0.76959   0.40879   0.42821   0.00000  Uiso   1.00
H124   H     0.83073   0.27061   0.46612   0.00000  Uiso   1.00
H125   H     0.64696   0.41349   0.43184   0.00000  Uiso   1.00
H126   H     0.83105   0.55563   0.39779   0.00000  Uiso   1.00
H127   H     0.89848   0.09635   0.49060   0.00000  Uiso   1.00
H128   H     0.51100   0.39767   0.41831   0.00000  Uiso   1.00
H129   H     0.89920   0.69740   0.34652   0.00000  Uiso   1.00
O130   O     0.93870   0.93313   0.45518   0.00000  Uiso   1.00
O131   O     0.43034   0.32846   0.36033   0.00000  Uiso   1.00
O132   O     0.93965   0.72169   0.26614   0.00000  Uiso   1.00
N133   N     0.89013   0.00922   0.39681   0.00000  Uiso   1.00
N134   N     0.52786   0.29092   0.32922   0.00000  Uiso   1.00
N135   N     0.89078   0.57116   0.26210   0.00000  Uiso   1.00
N136   N     0.89011   0.08389   0.45915   0.00000  Uiso   1.00
N137   N     0.52784   0.36559   0.39156   0.00000  Uiso   1.00
N138   N     0.89076   0.64582   0.32444   0.00000  Uiso   1.00
C139   C     0.26963   0.78385   0.32389   0.00000  Uiso   1.00
C140   C     0.30284   0.72642   0.35922   0.00000  Uiso   1.00
C141   C     0.33077   0.63653   0.35420   0.00000  Uiso   1.00
C142   C     0.35872   0.59597   0.39045   0.00000  Uiso   1.00
C143   C     0.41027   0.49951   0.43926   0.00000  Uiso   1.00
C144   C     0.20300   0.80404   0.34060   0.00000  Uiso   1.00
C145   C     0.14698   0.77943   0.31991   0.00000  Uiso   1.00
C146   C     0.09087   0.80423   0.34049   0.00000  Uiso   1.00
C147   C     0.98741   0.82835   0.36036   0.00000  Uiso   1.00
C148   C     0.30303   0.88126   0.32210   0.00000  Uiso   1.00
C149   C     0.33110   0.92160   0.28586   0.00000  Uiso   1.00
C150   C     0.35920   0.01142   0.29086   0.00000  Uiso   1.00
C151   C     0.41105   0.15544   0.28202   0.00000  Uiso   1.00
C152   C     0.26960   0.87166   0.39720   0.00000  Uiso   1.00
C153   C     0.30283   0.77411   0.39904   0.00000  Uiso   1.00
C154   C     0.33075   0.73368   0.43531   0.00000  Uiso   1.00
C155   C     0.35871   0.64375   0.43034   0.00000  Uiso   1.00
C156   C     0.20298   0.85173   0.38042   0.00000  Uiso   1.00
C157   C     0.14695   0.87658   0.40102   0.00000  Uiso   1.00
C158   C     0.09086   0.85201   0.38038   0.00000  Uiso   1.00
C159   C     0.30301   0.92896   0.36192   0.00000  Uiso   1.00
C160   C     0.33107   0.01874   0.36697   0.00000  Uiso   1.00
C161   C     0.35919   0.05920   0.33075   0.00000  Uiso   1.00
H162   H     0.26964   0.74672   0.29289   0.00000  Uiso   1.00
H163   H     0.33077   0.59964   0.32338   0.00000  Uiso   1.00
H164   H     0.14700   0.74253   0.28910   0.00000  Uiso   1.00
H165   H     0.33110   0.88467   0.25505   0.00000  Uiso   1.00
H166   H     0.39852   0.45759   0.37475   0.00000  Uiso   1.00
H167   H     0.01104   0.75891   0.30246   0.00000  Uiso   1.00
H168   H     0.39924   0.05864   0.23066   0.00000  Uiso   1.00
H169   H     0.26959   0.90879   0.42821   0.00000  Uiso   1.00
H170   H     0.33073   0.77061   0.46612   0.00000  Uiso   1.00
H171   H     0.14696   0.91349   0.43184   0.00000  Uiso   1.00
H172   H     0.33105   0.05563   0.39779   0.00000  Uiso   1.00
H173   H     0.39848   0.59635   0.49060   0.00000  Uiso   1.00
H174   H     0.01100   0.89767   0.41831   0.00000  Uiso   1.00
H175   H     0.39920   0.19740   0.34652   0.00000  Uiso   1.00
O176   O     0.43870   0.43313   0.45518   0.00000  Uiso   1.00
O177   O     0.93034   0.82846   0.36033   0.00000  Uiso   1.00
O178   O     0.43965   0.22169   0.26614   0.00000  Uiso   1.00
N179   N     0.39013   0.50922   0.39681   0.00000  Uiso   1.00
N180   N     0.02786   0.79092   0.32922   0.00000  Uiso   1.00
N181   N     0.39078   0.07116   0.26210   0.00000  Uiso   1.00
N182   N     0.39011   0.58389   0.45915   0.00000  Uiso   1.00
N183   N     0.02784   0.86559   0.39156   0.00000  Uiso   1.00
N184   N     0.39076   0.14582   0.32444   0.00000  Uiso   1.00
C185   C     0.76963   0.71615   0.67611   0.00000  Uiso   1.00
C186   C     0.80284   0.77358   0.64078   0.00000  Uiso   1.00
C187   C     0.83077   0.86347   0.64580   0.00000  Uiso   1.00
C188   C     0.85872   0.90403   0.60955   0.00000  Uiso   1.00
C189   C     0.91027   0.00049   0.56074   0.00000  Uiso   1.00
C190   C     0.70300   0.69596   0.65940   0.00000  Uiso   1.00
C191   C     0.64698   0.72057   0.68009   0.00000  Uiso   1.00
C192   C     0.59087   0.69577   0.65951   0.00000  Uiso   1.00
C193   C     0.48741   0.67165   0.63964   0.00000  Uiso   1.00
C194   C     0.80303   0.61874   0.67790   0.00000  Uiso   1.00
C195   C     0.83110   0.57840   0.71414   0.00000  Uiso   1.00
C196   C     0.85920   0.48858   0.70914   0.00000  Uiso   1.00
C197   C     0.91105   0.34456   0.71798   0.00000  Uiso   1.00
C198   C     0.76960   0.62834   0.60280   0.00000  Uiso   1.00
C199   C     0.80283   0.72589   0.60096   0.00000  Uiso   1.00
C200   C     0.83075   0.76632   0.56469   0.00000  Uiso   1.00
C201   C     0.85871   0.85625   0.56966   0.00000  Uiso   1.00
C202   C     0.70298   0.64827   0.61958   0.00000  Uiso   1.00
C203   C     0.64695   0.62342   0.59898   0.00000  Uiso   1.00
C204   C     0.59086   0.64799   0.61962   0.00000  Uiso   1.00
C205   C     0.80301   0.57104   0.63808   0.00000  Uiso   1.00
C206   C     0.83107   0.48126   0.63303   0.00000  Uiso   1.00
C207   C     0.85919   0.44080   0.66925   0.00000  Uiso   1.00
H208   H     0.76964   0.75328   0.70711   0.00000  Uiso   1.00
H209   H     0.83077   0.90036   0.67662   0.00000  Uiso   1.00
H210   H     0.64700   0.75747   0.71090   0.00000  Uiso   1.00
H211   H     0.83110   0.61533   0.74495   0.00000  Uiso   1.00
H212   H     0.89852   0.04241   0.62525   0.00000  Uiso   1.00
H213   H     0.51104   0.74109   0.69754   0.00000  Uiso   1.00
H214   H     0.89924   0.44136   0.76934   0.00000  Uiso   1.00
H215   H     0.76959   0.59121   0.57179   0.00000  Uiso   1.00
H216   H     0.83073   0.72939   0.53388   0.00000  Uiso   1.00
H217   H     0.64696   0.58651   0.56816   0.00000  Uiso   1.00
H218   H     0.83105   0.44437   0.60221   0.00000  Uiso   1.00
H219   H     0.89848   0.90365   0.50940   0.00000  Uiso   1.00
H220   H     0.51100   0.60233   0.58169   0.00000  Uiso   1.00
H221   H     0.89920   0.30260   0.65348   0.00000  Uiso   1.00
O222   O     0.93870   0.06687   0.54482   0.00000  Uiso   1.00
O223   O     0.43034   0.67154   0.63967   0.00000  Uiso   1.00
O224   O     0.93965   0.27831   0.73386   0.00000  Uiso   1.00
N225   N     0.89013   0.99078   0.60319   0.00000  Uiso   1.00
N226   N     0.52786   0.70908   0.67078   0.00000  Uiso   1.00
N227   N     0.89078   0.42884   0.73790   0.00000  Uiso   1.00
N228   N     0.89011   0.91611   0.54085   0.00000  Uiso   1.00
N229   N     0.52784   0.63441   0.60844   0.00000  Uiso   1.00
N230   N     0.89076   0.35418   0.67556   0.00000  Uiso   1.00
C231   C     0.26963   0.21615   0.67611   0.00000  Uiso   1.00
C232   C     0.30284   0.27358   0.64078   0.00000  Uiso   1.00
C233   C     0.33077   0.36347   0.64580   0.00000  Uiso   1.00
C234   C     0.35872   0.40403   0.60955   0.00000  Uiso   1.00
C235   C     0.41027   0.50049   0.56074   0.00000  Uiso   1.00
C236   C     0.20300   0.19596   0.65940   0.00000  Uiso   1.00
C237   C     0.14698   0.22057   0.68009   0.00000  Uiso   1.00
C238   C     0.09087   0.19577   0.65951   0.00000  Uiso   1.00
C239   C     0.98741   0.17165   0.63964   0.00000  Uiso   1.00
C240   C     0.30303   0.11874   0.67790   0.00000  Uiso   1.00
C241   C     0.33110   0.07840   0.71414   0.00000  Uiso   1.00
C242   C     0.35920   0.98858   0.70914   0.00000  Uiso   1.00
C243   C     0.41105   0.84456   0.71798   0.00000  Uiso   1.00
C244   C     0.26960   0.12834   0.60280   0.00000  Uiso   1.00
C245   C     0.30283   0.22589   0.60096   0.00000  Uiso   1.00
C246   C     0.33075   0.26632   0.56469   0.00000  Uiso   1.00
C247   C     0.35871   0.35625   0.56966   0.00000  Uiso   1.00
C248   C     0.20298   0.14827   0.61958   0.00000  Uiso   1.00
C249   C     0.14695   0.12342   0.59898   0.00000  Uiso   1.00
C250   C     0.09086   0.14799   0.61962   0.00000  Uiso   1.00
C251   C     0.30301   0.07104   0.63808   0.00000  Uiso   1.00
C252   C     0.33107   0.98126   0.63303   0.00000  Uiso   1.00
C253   C     0.35919   0.94080   0.66925   0.00000  Uiso   1.00
H254   H     0.26964   0.25328   0.70711   0.00000  Uiso   1.00
H255   H     0.33077   0.40036   0.67662   0.00000  Uiso   1.00
H256   H     0.14700   0.25747   0.71090   0.00000  Uiso   1.00
H257   H     0.33110   0.11533   0.74495   0.00000  Uiso   1.00
H258   H     0.39852   0.54241   0.62525   0.00000  Uiso   1.00
H259   H     0.01104   0.24109   0.69754   0.00000  Uiso   1.00
H260   H     0.39924   0.94136   0.76934   0.00000  Uiso   1.00
H261   H     0.26959   0.09121   0.57179   0.00000  Uiso   1.00
H262   H     0.33073   0.22939   0.53388   0.00000  Uiso   1.00
H263   H     0.14696   0.08651   0.56816   0.00000  Uiso   1.00
H264   H     0.33105   0.94437   0.60221   0.00000  Uiso   1.00
H265   H     0.39848   0.40365   0.50940   0.00000  Uiso   1.00
H266   H     0.01100   0.10233   0.58169   0.00000  Uiso   1.00
H267   H     0.39920   0.80260   0.65348   0.00000  Uiso   1.00
O268   O     0.43870   0.56687   0.54482   0.00000  Uiso   1.00
O269   O     0.93034   0.17154   0.63967   0.00000  Uiso   1.00
O270   O     0.43965   0.77831   0.73386   0.00000  Uiso   1.00
N271   N     0.39013   0.49078   0.60319   0.00000  Uiso   1.00
N272   N     0.02786   0.20908   0.67078   0.00000  Uiso   1.00
N273   N     0.39078   0.92884   0.73790   0.00000  Uiso   1.00
N274   N     0.39011   0.41611   0.54085   0.00000  Uiso   1.00
N275   N     0.02784   0.13441   0.60844   0.00000  Uiso   1.00
N276   N     0.39076   0.85418   0.67556   0.00000  Uiso   1.00
C277   C     0.23037   0.28385   0.17611   0.00000  Uiso   1.00
C278   C     0.19716   0.22642   0.14078   0.00000  Uiso   1.00
C279   C     0.16923   0.13653   0.14580   0.00000  Uiso   1.00
C280   C     0.14128   0.09597   0.10955   0.00000  Uiso   1.00
C281   C     0.08973   0.99951   0.06074   0.00000  Uiso   1.00
C282   C     0.29700   0.30404   0.15940   0.00000  Uiso   1.00
C283   C     0.35302   0.27943   0.18009   0.00000  Uiso   1.00
C284   C     0.40913   0.30423   0.15951   0.00000  Uiso   1.00
C285   C     0.51259   0.32835   0.13964   0.00000  Uiso   1.00
C286   C     0.19697   0.38126   0.17790   0.00000  Uiso   1.00
C287   C     0.16890   0.42160   0.21414   0.00000  Uiso   1.00
C288   C     0.14080   0.51142   0.20914   0.00000  Uiso   1.00
C289   C     0.08895   0.65544   0.21798   0.00000  Uiso   1.00
C290   C     0.23040   0.37166   0.10280   0.00000  Uiso   1.00
C291   C     0.19717   0.27411   0.10096   0.00000  Uiso   1.00
C292   C     0.16925   0.23368   0.06469   0.00000  Uiso   1.00
C293   C     0.14129   0.14375   0.06966   0.00000  Uiso   1.00
C294   C     0.29702   0.35173   0.11958   0.00000  Uiso   1.00
C295   C     0.35305   0.37658   0.09898   0.00000  Uiso   1.00
C296   C     0.40914   0.35201   0.11962   0.00000  Uiso   1.00
C297   C     0.19699   0.42896   0.13808   0.00000  Uiso   1.00
C298   C     0.16893   0.51874   0.13303   0.00000  Uiso   1.00
C299   C     0.14081   0.55920   0.16925   0.00000  Uiso   1.00
H300   H     0.23036   0.24672   0.20711   0.00000  Uiso   1.00
H301   H     0.16923   0.09964   0.17662   0.00000  Uiso   1.00
H302   H     0.35300   0.24253   0.21090   0.00000  Uiso   1.00
H303   H     0.16890   0.38467   0.24495   0.00000  Uiso   1.00
H304   H     0.10148   0.95759   0.12525   0.00000  Uiso   1.00
H305   H     0.48896   0.25891   0.19754   0.00000  Uiso   1.00
H306   H     0.10076   0.55864   0.26934   0.00000  Uiso   1.00
H307   H     0.23041   0.40879   0.07179   0.00000  Uiso   1.00
H308   H     0.16927   0.27061   0.03388   0.00000  Uiso   1.00
H309   H     0.35304   0.41349   0.06816   0.00000  Uiso   1.00
H310   H     0.16895   0.55563   0.10221   0.00000  Uiso   1.00
H311   H     0.10152   0.09635   0.00940   0.00000  Uiso   1.00
H312   H     0.48900   0.39767   0.08169   0.00000  Uiso   1.00
H313   H     0.10080   0.69740   0.15348   0.00000  Uiso   1.00
O314   O     0.06130   0.93313   0.04482   0.00000  Uiso   1.00
O315   O     0.56966   0.32846   0.13967   0.00000  Uiso   1.00
O316   O     0.06035   0.72169   0.23386   0.00000  Uiso   1.00
N317   N     0.10987   0.00922   0.10319   0.00000  Uiso   1.00
N318   N     0.47214   0.29092   0.17078   0.00000  Uiso   1.00
N319   N     0.10922   0.57116   0.23790   0.00000  Uiso   1.00
N320   N     0.10989   0.08389   0.04085   0.00000  Uiso   1.00
N321   N     0.47216   0.36559   0.10844   0.00000  Uiso   1.00
N322   N     0.10924   0.64582   0.17556   0.00000  Uiso   1.00
C323   C     0.73037   0.78385   0.17611   0.00000  Uiso   1.00
C324   C     0.69716   0.72642   0.14078   0.00000  Uiso   1.00
C325   C     0.66923   0.63653   0.14580   0.00000  Uiso   1.00
C326   C     0.64128   0.59597   0.10955   0.00000  Uiso   1.00
C327   C     0.58973   0.49951   0.06074   0.00000  Uiso   1.00
C328   C     0.79700   0.80404   0.15940   0.00000  Uiso   1.00
C329   C     0.85302   0.77943   0.18009   0.00000  Uiso   1.00
C330   C     0.90913   0.80423   0.15951   0.00000  Uiso   1.00
C331   C     0.01259   0.82835   0.13964   0.00000  Uiso   1.00
C332   C     0.69697   0.88126   0.17790   0.00000  Uiso   1.00
C333   C     0.66890   0.92160   0.21414   0.00000  Uiso   1.00
C334   C     0.64080   0.01142   0.20914   0.00000  Uiso   1.00
C335   C     0.58895   0.15544   0.21798   0.00000  Uiso   1.00
C336   C     0.73040   0.87166   0.10280   0.00000  Uiso   1.00
C337   C     0.69717   0.77411   0.10096   0.00000  Uiso   1.00
C338   C     0.66925   0.73368   0.06469   0.00000  Uiso   1.00
C339   C     0.64129   0.64375   0.06966   0.00000  Uiso   1.00
C340   C     0.79702   0.85173   0.11958   0.00000  Uiso   1.00
C341   C     0.85305   0.87658   0.09898   0.00000  Uiso   1.00
C342   C     0.90914   0.85201   0.11962   0.00000  Uiso   1.00
C343   C     0.69699   0.92896   0.13808   0.00000  Uiso   1.00
C344   C     0.66893   0.01874   0.13303   0.00000  Uiso   1.00
C345   C     0.64081   0.05920   0.16925   0.00000  Uiso   1.00
H346   H     0.73036   0.74672   0.20711   0.00000  Uiso   1.00
H347   H     0.66923   0.59964   0.17662   0.00000  Uiso   1.00
H348   H     0.85300   0.74253   0.21090   0.00000  Uiso   1.00
H349   H     0.66890   0.88467   0.24495   0.00000  Uiso   1.00
H350   H     0.60148   0.45759   0.12525   0.00000  Uiso   1.00
H351   H     0.98896   0.75891   0.19754   0.00000  Uiso   1.00
H352   H     0.60076   0.05864   0.26934   0.00000  Uiso   1.00
H353   H     0.73041   0.90879   0.07179   0.00000  Uiso   1.00
H354   H     0.66927   0.77061   0.03388   0.00000  Uiso   1.00
H355   H     0.85304   0.91349   0.06816   0.00000  Uiso   1.00
H356   H     0.66895   0.05563   0.10221   0.00000  Uiso   1.00
H357   H     0.60152   0.59635   0.00940   0.00000  Uiso   1.00
H358   H     0.98900   0.89767   0.08169   0.00000  Uiso   1.00
H359   H     0.60080   0.19740   0.15348   0.00000  Uiso   1.00
O360   O     0.56130   0.43313   0.04482   0.00000  Uiso   1.00
O361   O     0.06966   0.82846   0.13967   0.00000  Uiso   1.00
O362   O     0.56035   0.22169   0.23386   0.00000  Uiso   1.00
N363   N     0.60987   0.50922   0.10319   0.00000  Uiso   1.00
N364   N     0.97214   0.79092   0.17078   0.00000  Uiso   1.00
N365   N     0.60922   0.07116   0.23790   0.00000  Uiso   1.00
N366   N     0.60989   0.58389   0.04085   0.00000  Uiso   1.00
N367   N     0.97216   0.86559   0.10844   0.00000  Uiso   1.00
N368   N     0.60924   0.14582   0.17556   0.00000  Uiso   1.00
