data_job_06475
_audit_creation_date              2018-12-19
_audit_creation_method            'Materials Studio'
_symmetry_space_group_name_H-M    'P1'
_symmetry_Int_Tables_number       1
_symmetry_cell_setting            triclinic
loop_
_symmetry_equiv_pos_as_xyz
  x,y,z
_cell_length_a                    19.2168
_cell_length_b                    21.3601
_cell_length_c                    22.5268
_cell_angle_alpha                 84.9333
_cell_angle_beta                  71.8301
_cell_angle_gamma                 110.5790
loop_
_atom_site_label
_atom_site_type_symbol
_atom_site_fract_x
_atom_site_fract_y
_atom_site_fract_z
_atom_site_U_iso_or_equiv
_atom_site_adp_type
_atom_site_occupancy
C1     C     0.09213   0.26582   0.48777   0.00000  Uiso   1.00
C2     C     0.04913   0.30467   0.46437   0.00000  Uiso   1.00
C3     C     0.07352   0.37538   0.45093   0.00000  Uiso   1.00
C4     C     0.02596   0.40095   0.43008   0.00000  Uiso   1.00
C5     C     0.96973   0.46790   0.39486   0.00000  Uiso   1.00
C6     C     0.03096   0.21576   0.55026   0.00000  Uiso   1.00
C7     C     0.04008   0.21172   0.60903   0.00000  Uiso   1.00
C8     C     0.97723   0.16243   0.66048   0.00000  Uiso   1.00
C9     C     0.89282   0.09132   0.75860   0.00000  Uiso   1.00
C10    C     0.10868   0.22198   0.43968   0.00000  Uiso   1.00
C11    C     0.18316   0.22316   0.40549   0.00000  Uiso   1.00
C12    C     0.18574   0.17910   0.36384   0.00000  Uiso   1.00
C13    C     0.22201   0.11765   0.29027   0.00000  Uiso   1.00
C14    C     0.96428   0.18548   0.47464   0.00000  Uiso   1.00
C15    C     0.97968   0.26102   0.45724   0.00000  Uiso   1.00
C16    C     0.93207   0.28649   0.43640   0.00000  Uiso   1.00
C17    C     0.95640   0.35723   0.42292   0.00000  Uiso   1.00
C18    C     0.96152   0.17212   0.54313   0.00000  Uiso   1.00
C19    C     0.89864   0.12283   0.59450   0.00000  Uiso   1.00
C20    C     0.90766   0.11871   0.65333   0.00000  Uiso   1.00
C21    C     0.03924   0.17834   0.43255   0.00000  Uiso   1.00
C22    C     0.04171   0.13427   0.39095   0.00000  Uiso   1.00
C23    C     0.11617   0.13538   0.35670   0.00000  Uiso   1.00
H24    H     0.14619   0.29980   0.49333   0.00000  Uiso   1.00
H25    H     0.12726   0.40914   0.45646   0.00000  Uiso   1.00
H26    H     0.09383   0.24549   0.61454   0.00000  Uiso   1.00
H27    H     0.23688   0.25694   0.41102   0.00000  Uiso   1.00
H28    H     0.07564   0.51111   0.41247   0.00000  Uiso   1.00
H29    H     0.00516   0.16605   0.74577   0.00000  Uiso   1.00
H30    H     0.30681   0.19018   0.31662   0.00000  Uiso   1.00
H31    H     0.91022   0.15150   0.46908   0.00000  Uiso   1.00
H32    H     0.87834   0.25270   0.43088   0.00000  Uiso   1.00
H33    H     0.84491   0.08906   0.58896   0.00000  Uiso   1.00
H34    H     0.98796   0.10051   0.38544   0.00000  Uiso   1.00
H35    H     0.87360   0.38415   0.39171   0.00000  Uiso   1.00
H36    H     0.80313   0.03908   0.72501   0.00000  Uiso   1.00
H37    H     0.10478   0.06321   0.29586   0.00000  Uiso   1.00
O38    O     0.95789   0.51688   0.37742   0.00000  Uiso   1.00
O39    O     0.86544   0.06416   0.81469   0.00000  Uiso   1.00
O40    O     0.26120   0.09582   0.25166   0.00000  Uiso   1.00
N41    N     0.03247   0.46734   0.41281   0.00000  Uiso   1.00
N42    N     0.96658   0.14474   0.72443   0.00000  Uiso   1.00
N43    N     0.24859   0.16728   0.32323   0.00000  Uiso   1.00
N44    N     0.92376   0.39902   0.40164   0.00000  Uiso   1.00
N45    N     0.85786   0.07642   0.71326   0.00000  Uiso   1.00
N46    N     0.13988   0.09896   0.31205   0.00000  Uiso   1.00
C47    C     0.28637   0.77006   0.25484   0.00000  Uiso   1.00
C48    C     0.35516   0.78074   0.19295   0.00000  Uiso   1.00
C49    C     0.40688   0.74760   0.18468   0.00000  Uiso   1.00
C50    C     0.46594   0.76449   0.12438   0.00000  Uiso   1.00
C51    C     0.57170   0.77373   0.03593   0.00000  Uiso   1.00
C52    C     0.30129   0.84069   0.27011   0.00000  Uiso   1.00
C53    C     0.30770   0.85795   0.32671   0.00000  Uiso   1.00
C54    C     0.32141   0.92531   0.33136   0.00000  Uiso   1.00
C55    C     0.34348   0.02762   0.36272   0.00000  Uiso   1.00
C56    C     0.21153   0.74971   0.23815   0.00000  Uiso   1.00
C57    C     0.14247   0.69048   0.26789   0.00000  Uiso   1.00
C58    C     0.08060   0.68125   0.24564   0.00000  Uiso   1.00
C59    C     0.96331   0.64230   0.22737   0.00000  Uiso   1.00
C60    C     0.29930   0.85898   0.16246   0.00000  Uiso   1.00
C61    C     0.36218   0.82904   0.14278   0.00000  Uiso   1.00
C62    C     0.42118   0.84598   0.08247   0.00000  Uiso   1.00
C63    C     0.47297   0.81287   0.07411   0.00000  Uiso   1.00
C64    C     0.30831   0.88899   0.21993   0.00000  Uiso   1.00
C65    C     0.32200   0.95633   0.22450   0.00000  Uiso   1.00
C66    C     0.32844   0.97370   0.28110   0.00000  Uiso   1.00
C67    C     0.21855   0.79801   0.18797   0.00000  Uiso   1.00
C68    C     0.15677   0.78886   0.16568   0.00000  Uiso   1.00
C69    C     0.08763   0.72964   0.19537   0.00000  Uiso   1.00
H70    H     0.28091   0.73247   0.29390   0.00000  Uiso   1.00
H71    H     0.40143   0.71023   0.22353   0.00000  Uiso   1.00
H72    H     0.30226   0.82057   0.36553   0.00000  Uiso   1.00
H73    H     0.13706   0.65312   0.30671   0.00000  Uiso   1.00
H74    H     0.53816   0.70689   0.12338   0.00000  Uiso   1.00
H75    H     0.32903   0.93954   0.42282   0.00000  Uiso   1.00
H76    H     0.98067   0.58645   0.29879   0.00000  Uiso   1.00
H77    H     0.30476   0.89659   0.12339   0.00000  Uiso   1.00
H78    H     0.42659   0.88336   0.04365   0.00000  Uiso   1.00
H79    H     0.32743   0.99369   0.18567   0.00000  Uiso   1.00
H80    H     0.16223   0.82625   0.12685   0.00000  Uiso   1.00
H81    H     0.55859   0.84741   0.97739   0.00000  Uiso   1.00
H82    H     0.34946   0.08006   0.27683   0.00000  Uiso   1.00
H83    H     0.00110   0.72697   0.15280   0.00000  Uiso   1.00
O84    O     0.62811   0.76550   0.00101   0.00000  Uiso   1.00
O85    O     0.35372   0.07072   0.39387   0.00000  Uiso   1.00
O86    O     0.89668   0.60747   0.23114   0.00000  Uiso   1.00
N87    N     0.52624   0.74177   0.09996   0.00000  Uiso   1.00
N88    N     0.33073   0.95928   0.37991   0.00000  Uiso   1.00
N89    N     0.00503   0.62918   0.26397   0.00000  Uiso   1.00
N90    N     0.53723   0.81738   0.02140   0.00000  Uiso   1.00
N91    N     0.34172   0.03489   0.30136   0.00000  Uiso   1.00
N92    N     0.01602   0.70479   0.18541   0.00000  Uiso   1.00
C93    C     0.63989   0.67519   0.45439   0.00000  Uiso   1.00
C94    C     0.62736   0.67227   0.39093   0.00000  Uiso   1.00
C95    C     0.55412   0.65090   0.38350   0.00000  Uiso   1.00
C96    C     0.55532   0.65197   0.32147   0.00000  Uiso   1.00
C97    C     0.52492   0.64410   0.23094   0.00000  Uiso   1.00
C98    C     0.68714   0.63168   0.45837   0.00000  Uiso   1.00
C99    C     0.66418   0.57619   0.50764   0.00000  Uiso   1.00
C100   C     0.71571   0.54310   0.50238   0.00000  Uiso   1.00
C101   C     0.77815   0.47225   0.51658   0.00000  Uiso   1.00
C102   C     0.69588   0.74898   0.44744   0.00000  Uiso   1.00
C103   C     0.68028   0.79210   0.48753   0.00000  Uiso   1.00
C104   C     0.73918   0.85776   0.47307   0.00000  Uiso   1.00
C105   C     0.81520   0.96903   0.47030   0.00000  Uiso   1.00
C106   C     0.77225   0.71512   0.35745   0.00000  Uiso   1.00
C107   C     0.69925   0.69396   0.33828   0.00000  Uiso   1.00
C108   C     0.70056   0.69507   0.27624   0.00000  Uiso   1.00
C109   C     0.62734   0.67370   0.26872   0.00000  Uiso   1.00
C110   C     0.75903   0.65337   0.40572   0.00000  Uiso   1.00
C111   C     0.81061   0.62036   0.40039   0.00000  Uiso   1.00
C112   C     0.78773   0.56482   0.44963   0.00000  Uiso   1.00
C113   C     0.76778   0.77066   0.39478   0.00000  Uiso   1.00
C114   C     0.82672   0.83627   0.38027   0.00000  Uiso   1.00
C115   C     0.81121   0.87948   0.42032   0.00000  Uiso   1.00
H116   H     0.58392   0.65831   0.49539   0.00000  Uiso   1.00
H117   H     0.49850   0.63411   0.42426   0.00000  Uiso   1.00
H118   H     0.60854   0.55942   0.54839   0.00000  Uiso   1.00
H119   H     0.62464   0.77530   0.52827   0.00000  Uiso   1.00
H120   H     0.43549   0.61683   0.32218   0.00000  Uiso   1.00
H121   H     0.66753   0.45935   0.58392   0.00000  Uiso   1.00
H122   H     0.70149   0.91457   0.54151   0.00000  Uiso   1.00
H123   H     0.82822   0.73200   0.31646   0.00000  Uiso   1.00
H124   H     0.75620   0.71185   0.23550   0.00000  Uiso   1.00
H125   H     0.86624   0.63716   0.35963   0.00000  Uiso   1.00
H126   H     0.88234   0.85303   0.33952   0.00000  Uiso   1.00
H127   H     0.64465   0.67992   0.16898   0.00000  Uiso   1.00
H128   H     0.87670   0.52244   0.43072   0.00000  Uiso   1.00
H129   H     0.91065   0.97766   0.38831   0.00000  Uiso   1.00
O130   O     0.48829   0.63376   0.19556   0.00000  Uiso   1.00
O131   O     0.79272   0.42717   0.53896   0.00000  Uiso   1.00
O132   O     0.83726   0.02441   0.48331   0.00000  Uiso   1.00
N133   N     0.49460   0.63445   0.29723   0.00000  Uiso   1.00
N134   N     0.71154   0.48722   0.54194   0.00000  Uiso   1.00
N135   N     0.74329   0.91280   0.50230   0.00000  Uiso   1.00
N136   N     0.60715   0.66840   0.21480   0.00000  Uiso   1.00
N137   N     0.82409   0.52117   0.45950   0.00000  Uiso   1.00
N138   N     0.85584   0.94675   0.41986   0.00000  Uiso   1.00
C139   C     0.46645   0.12889   0.72484   0.00000  Uiso   1.00
C140   C     0.51371   0.16730   0.65508   0.00000  Uiso   1.00
C141   C     0.58552   0.22458   0.63268   0.00000  Uiso   1.00
C142   C     0.61930   0.25222   0.56716   0.00000  Uiso   1.00
C143   C     0.69830   0.31619   0.46517   0.00000  Uiso   1.00
C144   C     0.45606   0.05456   0.72634   0.00000  Uiso   1.00
C145   C     0.47939   0.01706   0.76386   0.00000  Uiso   1.00
C146   C     0.46463   0.94979   0.75833   0.00000  Uiso   1.00
C147   C     0.45407   0.83872   0.76700   0.00000  Uiso   1.00
C148   C     0.38318   0.12864   0.74064   0.00000  Uiso   1.00
C149   C     0.34523   0.15341   0.79020   0.00000  Uiso   1.00
C150   C     0.26910   0.14850   0.79671   0.00000  Uiso   1.00
C151   C     0.14540   0.15245   0.82759   0.00000  Uiso   1.00
C152   C     0.39874   0.07610   0.64830   0.00000  Uiso   1.00
C153   C     0.47693   0.13862   0.61351   0.00000  Uiso   1.00
C154   C     0.51062   0.16618   0.54801   0.00000  Uiso   1.00
C155   C     0.58246   0.22350   0.52552   0.00000  Uiso   1.00
C156   C     0.41929   0.02588   0.68477   0.00000  Uiso   1.00
C157   C     0.40448   0.95865   0.67918   0.00000  Uiso   1.00
C158   C     0.42779   0.92106   0.71668   0.00000  Uiso   1.00
C159   C     0.34641   0.09997   0.69907   0.00000  Uiso   1.00
C160   C     0.27033   0.09500   0.70551   0.00000  Uiso   1.00
C161   C     0.23227   0.11977   0.75507   0.00000  Uiso   1.00
H162   H     0.49508   0.15121   0.75720   0.00000  Uiso   1.00
H163   H     0.61396   0.24676   0.66487   0.00000  Uiso   1.00
H164   H     0.50783   0.03926   0.79603   0.00000  Uiso   1.00
H165   H     0.37370   0.17560   0.82236   0.00000  Uiso   1.00
H166   H     0.72957   0.34002   0.54417   0.00000  Uiso   1.00
H167   H     0.50577   0.90251   0.82074   0.00000  Uiso   1.00
H168   H     0.22292   0.18999   0.87626   0.00000  Uiso   1.00
H169   H     0.37011   0.05377   0.61594   0.00000  Uiso   1.00
H170   H     0.48215   0.14397   0.51585   0.00000  Uiso   1.00
H171   H     0.37602   0.93648   0.64701   0.00000  Uiso   1.00
H172   H     0.24189   0.07281   0.67334   0.00000  Uiso   1.00
H173   H     0.62258   0.25660   0.42321   0.00000  Uiso   1.00
H174   H     0.39878   0.81908   0.69980   0.00000  Uiso   1.00
H175   H     0.11594   0.10656   0.75531   0.00000  Uiso   1.00
O176   O     0.75204   0.35939   0.42040   0.00000  Uiso   1.00
O177   O     0.45841   0.78538   0.78327   0.00000  Uiso   1.00
O178   O     0.08733   0.16256   0.85610   0.00000  Uiso   1.00
N179   N     0.68901   0.30802   0.52944   0.00000  Uiso   1.00
N180   N     0.47978   0.89897   0.78801   0.00000  Uiso   1.00
N181   N     0.21533   0.16772   0.83993   0.00000  Uiso   1.00
N182   N     0.63144   0.26313   0.46435   0.00000  Uiso   1.00
N183   N     0.42221   0.85408   0.72293   0.00000  Uiso   1.00
N184   N     0.15777   0.12284   0.77484   0.00000  Uiso   1.00
C185   C     0.78032   0.13448   0.14194   0.00000  Uiso   1.00
C186   C     0.82271   0.21131   0.11267   0.00000  Uiso   1.00
C187   C     0.79556   0.26085   0.13299   0.00000  Uiso   1.00
C188   C     0.84303   0.32835   0.09994   0.00000  Uiso   1.00
C189   C     0.89791   0.44502   0.06234   0.00000  Uiso   1.00
C190   C     0.84017   0.11397   0.16092   0.00000  Uiso   1.00
C191   C     0.82771   0.08166   0.22179   0.00000  Uiso   1.00
C192   C     0.88988   0.06722   0.22935   0.00000  Uiso   1.00
C193   C     0.97186   0.03273   0.26664   0.00000  Uiso   1.00
C194   C     0.76892   0.09995   0.08725   0.00000  Uiso   1.00
C195   C     0.69654   0.05583   0.08620   0.00000  Uiso   1.00
C196   C     0.69871   0.02956   0.03173   0.00000  Uiso   1.00
C197   C     0.67006   0.97330   0.95465   0.00000  Uiso   1.00
C198   C     0.91287   0.16627   0.04711   0.00000  Uiso   1.00
C199   C     0.89470   0.22857   0.06116   0.00000  Uiso   1.00
C200   C     0.94222   0.29602   0.02806   0.00000  Uiso   1.00
C201   C     0.91515   0.34565   0.04833   0.00000  Uiso   1.00
C202   C     0.91217   0.13123   0.10941   0.00000  Uiso   1.00
C203   C     0.97437   0.11683   0.11687   0.00000  Uiso   1.00
C204   C     0.96201   0.08452   0.17774   0.00000  Uiso   1.00
C205   C     0.84091   0.11721   0.03574   0.00000  Uiso   1.00
C206   C     0.84320   0.09100   0.98127   0.00000  Uiso   1.00
C207   C     0.77084   0.04686   0.98013   0.00000  Uiso   1.00
H208   H     0.72427   0.12104   0.18205   0.00000  Uiso   1.00
H209   H     0.73985   0.24746   0.17286   0.00000  Uiso   1.00
H210   H     0.77199   0.06830   0.26165   0.00000  Uiso   1.00
H211   H     0.64084   0.04248   0.12607   0.00000  Uiso   1.00
H212   H     0.78889   0.39525   0.13997   0.00000  Uiso   1.00
H213   H     0.85665   0.01746   0.32718   0.00000  Uiso   1.00
H214   H     0.58009   0.96300   0.04129   0.00000  Uiso   1.00
H215   H     0.96893   0.17971   0.00700   0.00000  Uiso   1.00
H216   H     0.99793   0.30936   0.98820   0.00000  Uiso   1.00
H217   H     0.03007   0.13020   0.07699   0.00000  Uiso   1.00
H218   H     0.89892   0.10437   0.94142   0.00000  Uiso   1.00
H219   H     0.99836   0.44549   0.99010   0.00000  Uiso   1.00
H220   H     0.06612   0.06769   0.17731   0.00000  Uiso   1.00
H221   H     0.78956   0.01324   0.89141   0.00000  Uiso   1.00
O222   O     0.90830   0.50460   0.05585   0.00000  Uiso   1.00
O223   O     0.99719   0.00894   0.30145   0.00000  Uiso   1.00
O224   O     0.63436   0.93750   0.92637   0.00000  Uiso   1.00
N225   N     0.83420   0.38928   0.10727   0.00000  Uiso   1.00
N226   N     0.89755   0.03608   0.28230   0.00000  Uiso   1.00
N227   N     0.63900   0.98515   0.01502   0.00000  Uiso   1.00
N228   N     0.94691   0.41631   0.02663   0.00000  Uiso   1.00
N229   N     0.01027   0.06311   0.20165   0.00000  Uiso   1.00
N230   N     0.75171   0.01218   0.93438   0.00000  Uiso   1.00
C231   C     0.91387   0.59156   0.83544   0.00000  Uiso   1.00
C232   C     0.86437   0.57048   0.79366   0.00000  Uiso   1.00
C233   C     0.82569   0.50391   0.78860   0.00000  Uiso   1.00
C234   C     0.78346   0.49533   0.74780   0.00000  Uiso   1.00
C235   C     0.70708   0.45408   0.68820   0.00000  Uiso   1.00
C236   C     0.87683   0.63146   0.87874   0.00000  Uiso   1.00
C237   C     0.84863   0.61617   0.94522   0.00000  Uiso   1.00
C238   C     0.81689   0.65892   0.97604   0.00000  Uiso   1.00
C239   C     0.75990   0.71238   0.04853   0.00000  Uiso   1.00
C240   C     0.99615   0.64340   0.79042   0.00000  Uiso   1.00
C241   C     0.06828   0.63816   0.78266   0.00000  Uiso   1.00
C242   C     0.13700   0.69098   0.73913   0.00000  Uiso   1.00
C243   C     0.26527   0.76297   0.67449   0.00000  Uiso   1.00
C244   C     0.90765   0.69470   0.77197   0.00000  Uiso   1.00
C245   C     0.86099   0.62651   0.75919   0.00000  Uiso   1.00
C246   C     0.81880   0.61802   0.71838   0.00000  Uiso   1.00
C247   C     0.78007   0.55145   0.71326   0.00000  Uiso   1.00
C248   C     0.87344   0.68748   0.84427   0.00000  Uiso   1.00
C249   C     0.84174   0.73028   0.87500   0.00000  Uiso   1.00
C250   C     0.81350   0.71505   0.94151   0.00000  Uiso   1.00
C251   C     0.99277   0.69943   0.75595   0.00000  Uiso   1.00
C252   C     0.06139   0.75227   0.71243   0.00000  Uiso   1.00
C253   C     0.13361   0.74710   0.70459   0.00000  Uiso   1.00
H254   H     0.91651   0.54795   0.86228   0.00000  Uiso   1.00
H255   H     0.82832   0.46057   0.81530   0.00000  Uiso   1.00
H256   H     0.85126   0.57282   0.97189   0.00000  Uiso   1.00
H257   H     0.07088   0.59480   0.80934   0.00000  Uiso   1.00
H258   H     0.72903   0.38840   0.74801   0.00000  Uiso   1.00
H259   H     0.77743   0.62509   0.07820   0.00000  Uiso   1.00
H260   H     0.24053   0.67145   0.73544   0.00000  Uiso   1.00
H261   H     0.90501   0.73831   0.74513   0.00000  Uiso   1.00
H262   H     0.81620   0.66138   0.69171   0.00000  Uiso   1.00
H263   H     0.83914   0.77363   0.84830   0.00000  Uiso   1.00
H264   H     0.05875   0.79561   0.68576   0.00000  Uiso   1.00
H265   H     0.71919   0.55139   0.64771   0.00000  Uiso   1.00
H266   H     0.76759   0.78808   0.97790   0.00000  Uiso   1.00
H267   H     0.23069   0.83443   0.63514   0.00000  Uiso   1.00
O268   O     0.66587   0.41585   0.66485   0.00000  Uiso   1.00
O269   O     0.72938   0.72638   0.09804   0.00000  Uiso   1.00
O270   O     0.33695   0.78720   0.64835   0.00000  Uiso   1.00
N271   N     0.73892   0.43732   0.73173   0.00000  Uiso   1.00
N272   N     0.78416   0.65860   0.04043   0.00000  Uiso   1.00
N273   N     0.21712   0.70195   0.72000   0.00000  Uiso   1.00
N274   N     0.73362   0.52502   0.67775   0.00000  Uiso   1.00
N275   N     0.77886   0.74630   0.98646   0.00000  Uiso   1.00
N276   N     0.21182   0.78965   0.66602   0.00000  Uiso   1.00
C277   C     0.90787   0.73418   0.51223   0.00000  Uiso   1.00
C278   C     0.95087   0.69533   0.53563   0.00000  Uiso   1.00
C279   C     0.92648   0.62462   0.54907   0.00000  Uiso   1.00
C280   C     0.97404   0.59905   0.56992   0.00000  Uiso   1.00
C281   C     0.03027   0.53210   0.60514   0.00000  Uiso   1.00
C282   C     0.96904   0.78424   0.44974   0.00000  Uiso   1.00
C283   C     0.95992   0.78828   0.39097   0.00000  Uiso   1.00
C284   C     0.02277   0.83757   0.33952   0.00000  Uiso   1.00
C285   C     0.10718   0.90868   0.24140   0.00000  Uiso   1.00
C286   C     0.89132   0.77802   0.56032   0.00000  Uiso   1.00
C287   C     0.81684   0.77684   0.59451   0.00000  Uiso   1.00
C288   C     0.81426   0.82090   0.63616   0.00000  Uiso   1.00
C289   C     0.77799   0.88235   0.70973   0.00000  Uiso   1.00
C290   C     0.03572   0.81452   0.52536   0.00000  Uiso   1.00
C291   C     0.02032   0.73898   0.54276   0.00000  Uiso   1.00
C292   C     0.06793   0.71351   0.56360   0.00000  Uiso   1.00
C293   C     0.04360   0.64277   0.57708   0.00000  Uiso   1.00
C294   C     0.03848   0.82788   0.45687   0.00000  Uiso   1.00
C295   C     0.10136   0.87717   0.40550   0.00000  Uiso   1.00
C296   C     0.09234   0.88129   0.34667   0.00000  Uiso   1.00
C297   C     0.96076   0.82166   0.56745   0.00000  Uiso   1.00
C298   C     0.95829   0.86573   0.60905   0.00000  Uiso   1.00
C299   C     0.88383   0.86462   0.64330   0.00000  Uiso   1.00
H300   H     0.85381   0.70020   0.50667   0.00000  Uiso   1.00
H301   H     0.87274   0.59086   0.54354   0.00000  Uiso   1.00
H302   H     0.90617   0.75451   0.38546   0.00000  Uiso   1.00
H303   H     0.76312   0.74306   0.58898   0.00000  Uiso   1.00
H304   H     0.92436   0.48889   0.58753   0.00000  Uiso   1.00
H305   H     0.99484   0.83395   0.25423   0.00000  Uiso   1.00
H306   H     0.69319   0.80982   0.68338   0.00000  Uiso   1.00
H307   H     0.08978   0.84850   0.53092   0.00000  Uiso   1.00
H308   H     0.12166   0.74730   0.56912   0.00000  Uiso   1.00
H309   H     0.15509   0.91094   0.41104   0.00000  Uiso   1.00
H310   H     0.01204   0.89949   0.61456   0.00000  Uiso   1.00
H311   H     0.12640   0.61585   0.60829   0.00000  Uiso   1.00
H312   H     0.19687   0.96092   0.27499   0.00000  Uiso   1.00
H313   H     0.89522   0.93679   0.70414   0.00000  Uiso   1.00
O314   O     0.04211   0.48312   0.62258   0.00000  Uiso   1.00
O315   O     0.13456   0.93584   0.18531   0.00000  Uiso   1.00
O316   O     0.73880   0.90418   0.74834   0.00000  Uiso   1.00
N317   N     0.96753   0.53266   0.58719   0.00000  Uiso   1.00
N318   N     0.03342   0.85526   0.27557   0.00000  Uiso   1.00
N319   N     0.75141   0.83272   0.67677   0.00000  Uiso   1.00
N320   N     0.07624   0.60098   0.59836   0.00000  Uiso   1.00
N321   N     0.14214   0.92358   0.28674   0.00000  Uiso   1.00
N322   N     0.86012   0.90104   0.68795   0.00000  Uiso   1.00
C323   C     0.71363   0.22994   0.74516   0.00000  Uiso   1.00
C324   C     0.64484   0.21926   0.80705   0.00000  Uiso   1.00
C325   C     0.59312   0.25240   0.81532   0.00000  Uiso   1.00
C326   C     0.53406   0.23551   0.87562   0.00000  Uiso   1.00
C327   C     0.42830   0.22627   0.96407   0.00000  Uiso   1.00
C328   C     0.69871   0.15931   0.72989   0.00000  Uiso   1.00
C329   C     0.69230   0.14205   0.67329   0.00000  Uiso   1.00
C330   C     0.67859   0.07469   0.66864   0.00000  Uiso   1.00
C331   C     0.65652   0.97238   0.63728   0.00000  Uiso   1.00
C332   C     0.78847   0.25029   0.76185   0.00000  Uiso   1.00
C333   C     0.85753   0.30952   0.73211   0.00000  Uiso   1.00
C334   C     0.91940   0.31875   0.75436   0.00000  Uiso   1.00
C335   C     0.03669   0.35770   0.77263   0.00000  Uiso   1.00
C336   C     0.70070   0.14102   0.83754   0.00000  Uiso   1.00
C337   C     0.63782   0.17096   0.85722   0.00000  Uiso   1.00
C338   C     0.57882   0.15402   0.91753   0.00000  Uiso   1.00
C339   C     0.52703   0.18713   0.92589   0.00000  Uiso   1.00
C340   C     0.69169   0.11101   0.78007   0.00000  Uiso   1.00
C341   C     0.67800   0.04367   0.77550   0.00000  Uiso   1.00
C342   C     0.67156   0.02630   0.71890   0.00000  Uiso   1.00
C343   C     0.78145   0.20199   0.81203   0.00000  Uiso   1.00
C344   C     0.84323   0.21114   0.83432   0.00000  Uiso   1.00
C345   C     0.91237   0.27036   0.80463   0.00000  Uiso   1.00
H346   H     0.71909   0.26753   0.70610   0.00000  Uiso   1.00
H347   H     0.59857   0.28977   0.77647   0.00000  Uiso   1.00
H348   H     0.69774   0.17943   0.63447   0.00000  Uiso   1.00
H349   H     0.86294   0.34688   0.69329   0.00000  Uiso   1.00
H350   H     0.46184   0.29311   0.87662   0.00000  Uiso   1.00
H351   H     0.67097   0.06046   0.57718   0.00000  Uiso   1.00
H352   H     0.01933   0.41355   0.70121   0.00000  Uiso   1.00
H353   H     0.69524   0.10341   0.87661   0.00000  Uiso   1.00
H354   H     0.57341   0.11664   0.95635   0.00000  Uiso   1.00
H355   H     0.67257   0.00631   0.81433   0.00000  Uiso   1.00
H356   H     0.83777   0.17375   0.87315   0.00000  Uiso   1.00
H357   H     0.44141   0.15259   0.02261   0.00000  Uiso   1.00
H358   H     0.65054   0.91994   0.72317   0.00000  Uiso   1.00
H359   H     0.99890   0.27303   0.84720   0.00000  Uiso   1.00
O360   O     0.37189   0.23450   0.99899   0.00000  Uiso   1.00
O361   O     0.64628   0.92928   0.60613   0.00000  Uiso   1.00
O362   O     0.10332   0.39253   0.76886   0.00000  Uiso   1.00
N363   N     0.47376   0.25823   0.90004   0.00000  Uiso   1.00
N364   N     0.66927   0.04072   0.62009   0.00000  Uiso   1.00
N365   N     0.99497   0.37082   0.73603   0.00000  Uiso   1.00
N366   N     0.46277   0.18262   0.97860   0.00000  Uiso   1.00
N367   N     0.65828   0.96511   0.69864   0.00000  Uiso   1.00
N368   N     0.98398   0.29521   0.81459   0.00000  Uiso   1.00
C369   C     0.36011   0.32481   0.54561   0.00000  Uiso   1.00
C370   C     0.37264   0.32773   0.60907   0.00000  Uiso   1.00
C371   C     0.44588   0.34910   0.61650   0.00000  Uiso   1.00
C372   C     0.44468   0.34803   0.67853   0.00000  Uiso   1.00
C373   C     0.47508   0.35590   0.76906   0.00000  Uiso   1.00
C374   C     0.31286   0.36832   0.54163   0.00000  Uiso   1.00
C375   C     0.33582   0.42381   0.49236   0.00000  Uiso   1.00
C376   C     0.28429   0.45690   0.49762   0.00000  Uiso   1.00
C377   C     0.22185   0.52775   0.48342   0.00000  Uiso   1.00
C378   C     0.30412   0.25102   0.55256   0.00000  Uiso   1.00
C379   C     0.31972   0.20790   0.51247   0.00000  Uiso   1.00
C380   C     0.26082   0.14224   0.52693   0.00000  Uiso   1.00
C381   C     0.18480   0.03097   0.52970   0.00000  Uiso   1.00
C382   C     0.22775   0.28488   0.64255   0.00000  Uiso   1.00
C383   C     0.30075   0.30604   0.66172   0.00000  Uiso   1.00
C384   C     0.29944   0.30493   0.72376   0.00000  Uiso   1.00
C385   C     0.37266   0.32630   0.73128   0.00000  Uiso   1.00
C386   C     0.24097   0.34663   0.59428   0.00000  Uiso   1.00
C387   C     0.18939   0.37964   0.59961   0.00000  Uiso   1.00
C388   C     0.21227   0.43518   0.55037   0.00000  Uiso   1.00
C389   C     0.23222   0.22934   0.60522   0.00000  Uiso   1.00
C390   C     0.17328   0.16373   0.61973   0.00000  Uiso   1.00
C391   C     0.18879   0.12052   0.57968   0.00000  Uiso   1.00
H392   H     0.41608   0.34169   0.50461   0.00000  Uiso   1.00
H393   H     0.50150   0.36589   0.57574   0.00000  Uiso   1.00
H394   H     0.39146   0.44058   0.45161   0.00000  Uiso   1.00
H395   H     0.37536   0.22470   0.47173   0.00000  Uiso   1.00
H396   H     0.56451   0.38317   0.67782   0.00000  Uiso   1.00
H397   H     0.33247   0.54065   0.41608   0.00000  Uiso   1.00
H398   H     0.29851   0.08543   0.45849   0.00000  Uiso   1.00
H399   H     0.17178   0.26800   0.68354   0.00000  Uiso   1.00
H400   H     0.24380   0.28815   0.76450   0.00000  Uiso   1.00
H401   H     0.13376   0.36284   0.64037   0.00000  Uiso   1.00
H402   H     0.11766   0.14697   0.66048   0.00000  Uiso   1.00
H403   H     0.35535   0.32008   0.83102   0.00000  Uiso   1.00
H404   H     0.12330   0.47756   0.56928   0.00000  Uiso   1.00
H405   H     0.08935   0.02234   0.61169   0.00000  Uiso   1.00
O406   O     0.51171   0.36624   0.80444   0.00000  Uiso   1.00
O407   O     0.20728   0.57283   0.46104   0.00000  Uiso   1.00
O408   O     0.16274   0.97559   0.51669   0.00000  Uiso   1.00
N409   N     0.50540   0.36555   0.70277   0.00000  Uiso   1.00
N410   N     0.28846   0.51278   0.45806   0.00000  Uiso   1.00
N411   N     0.25671   0.08720   0.49770   0.00000  Uiso   1.00
N412   N     0.39285   0.33160   0.78520   0.00000  Uiso   1.00
N413   N     0.17591   0.47883   0.54050   0.00000  Uiso   1.00
N414   N     0.14416   0.05325   0.58014   0.00000  Uiso   1.00
C415   C     0.53355   0.87111   0.27516   0.00000  Uiso   1.00
C416   C     0.48629   0.83270   0.34492   0.00000  Uiso   1.00
C417   C     0.41448   0.77542   0.36732   0.00000  Uiso   1.00
C418   C     0.38070   0.74778   0.43284   0.00000  Uiso   1.00
C419   C     0.30170   0.68381   0.53483   0.00000  Uiso   1.00
C420   C     0.54394   0.94544   0.27366   0.00000  Uiso   1.00
C421   C     0.52061   0.98294   0.23614   0.00000  Uiso   1.00
C422   C     0.53537   0.05021   0.24167   0.00000  Uiso   1.00
C423   C     0.54593   0.16128   0.23300   0.00000  Uiso   1.00
C424   C     0.61682   0.87136   0.25936   0.00000  Uiso   1.00
C425   C     0.65477   0.84659   0.20980   0.00000  Uiso   1.00
C426   C     0.73090   0.85150   0.20329   0.00000  Uiso   1.00
C427   C     0.85460   0.84755   0.17241   0.00000  Uiso   1.00
C428   C     0.60126   0.92390   0.35170   0.00000  Uiso   1.00
C429   C     0.52307   0.86138   0.38649   0.00000  Uiso   1.00
C430   C     0.48938   0.83382   0.45199   0.00000  Uiso   1.00
C431   C     0.41754   0.77650   0.47448   0.00000  Uiso   1.00
C432   C     0.58071   0.97412   0.31523   0.00000  Uiso   1.00
C433   C     0.59552   0.04135   0.32082   0.00000  Uiso   1.00
C434   C     0.57221   0.07894   0.28332   0.00000  Uiso   1.00
C435   C     0.65359   0.90003   0.30093   0.00000  Uiso   1.00
C436   C     0.72967   0.90500   0.29449   0.00000  Uiso   1.00
C437   C     0.76773   0.88023   0.24493   0.00000  Uiso   1.00
H438   H     0.50492   0.84879   0.24280   0.00000  Uiso   1.00
H439   H     0.38604   0.75324   0.33513   0.00000  Uiso   1.00
H440   H     0.49217   0.96074   0.20397   0.00000  Uiso   1.00
H441   H     0.62630   0.82440   0.17764   0.00000  Uiso   1.00
H442   H     0.27043   0.65998   0.45583   0.00000  Uiso   1.00
H443   H     0.49423   0.09749   0.17926   0.00000  Uiso   1.00
H444   H     0.77708   0.81001   0.12374   0.00000  Uiso   1.00
H445   H     0.62989   0.94623   0.38406   0.00000  Uiso   1.00
H446   H     0.51785   0.85603   0.48415   0.00000  Uiso   1.00
H447   H     0.62398   0.06352   0.35299   0.00000  Uiso   1.00
H448   H     0.75811   0.92719   0.32666   0.00000  Uiso   1.00
H449   H     0.37742   0.74340   0.57679   0.00000  Uiso   1.00
H450   H     0.60122   0.18092   0.30020   0.00000  Uiso   1.00
H451   H     0.88406   0.89344   0.24469   0.00000  Uiso   1.00
O452   O     0.24796   0.64061   0.57960   0.00000  Uiso   1.00
O453   O     0.54159   0.21462   0.21673   0.00000  Uiso   1.00
O454   O     0.91267   0.83744   0.14390   0.00000  Uiso   1.00
N455   N     0.31099   0.69198   0.47056   0.00000  Uiso   1.00
N456   N     0.52022   0.10103   0.21199   0.00000  Uiso   1.00
N457   N     0.78467   0.83228   0.16007   0.00000  Uiso   1.00
N458   N     0.36856   0.73687   0.53565   0.00000  Uiso   1.00
N459   N     0.57779   0.14592   0.27707   0.00000  Uiso   1.00
N460   N     0.84223   0.87716   0.22516   0.00000  Uiso   1.00
C461   C     0.21968   0.86552   0.85806   0.00000  Uiso   1.00
C462   C     0.17729   0.78869   0.88733   0.00000  Uiso   1.00
C463   C     0.20444   0.73915   0.86701   0.00000  Uiso   1.00
C464   C     0.15697   0.67165   0.90006   0.00000  Uiso   1.00
C465   C     0.10209   0.55498   0.93766   0.00000  Uiso   1.00
C466   C     0.15983   0.88603   0.83908   0.00000  Uiso   1.00
C467   C     0.17229   0.91834   0.77821   0.00000  Uiso   1.00
C468   C     0.11012   0.93278   0.77065   0.00000  Uiso   1.00
C469   C     0.02814   0.96727   0.73336   0.00000  Uiso   1.00
C470   C     0.23108   0.90005   0.91275   0.00000  Uiso   1.00
C471   C     0.30346   0.94417   0.91380   0.00000  Uiso   1.00
C472   C     0.30129   0.97044   0.96827   0.00000  Uiso   1.00
C473   C     0.32994   0.02670   0.04535   0.00000  Uiso   1.00
C474   C     0.08713   0.83373   0.95289   0.00000  Uiso   1.00
C475   C     0.10530   0.77143   0.93884   0.00000  Uiso   1.00
C476   C     0.05778   0.70398   0.97194   0.00000  Uiso   1.00
C477   C     0.08485   0.65435   0.95167   0.00000  Uiso   1.00
C478   C     0.08783   0.86877   0.89059   0.00000  Uiso   1.00
C479   C     0.02563   0.88317   0.88313   0.00000  Uiso   1.00
C480   C     0.03799   0.91548   0.82226   0.00000  Uiso   1.00
C481   C     0.15909   0.88279   0.96426   0.00000  Uiso   1.00
C482   C     0.15680   0.90900   0.01873   0.00000  Uiso   1.00
C483   C     0.22916   0.95314   0.01987   0.00000  Uiso   1.00
H484   H     0.27573   0.87896   0.81795   0.00000  Uiso   1.00
H485   H     0.26015   0.75254   0.82714   0.00000  Uiso   1.00
H486   H     0.22801   0.93170   0.73835   0.00000  Uiso   1.00
H487   H     0.35916   0.95752   0.87393   0.00000  Uiso   1.00
H488   H     0.21111   0.60475   0.86003   0.00000  Uiso   1.00
H489   H     0.14335   0.98254   0.67282   0.00000  Uiso   1.00
H490   H     0.41991   0.03700   0.95871   0.00000  Uiso   1.00
H491   H     0.03107   0.82029   0.99300   0.00000  Uiso   1.00
H492   H     0.00207   0.69064   0.01180   0.00000  Uiso   1.00
H493   H     0.96993   0.86980   0.92301   0.00000  Uiso   1.00
H494   H     0.10108   0.89563   0.05858   0.00000  Uiso   1.00
H495   H     0.00164   0.55451   0.00990   0.00000  Uiso   1.00
H496   H     0.93388   0.93231   0.82269   0.00000  Uiso   1.00
H497   H     0.21044   0.98676   0.10859   0.00000  Uiso   1.00
O498   O     0.09170   0.49540   0.94415   0.00000  Uiso   1.00
O499   O     0.00281   0.99106   0.69855   0.00000  Uiso   1.00
O500   O     0.36564   0.06250   0.07363   0.00000  Uiso   1.00
N501   N     0.16580   0.61072   0.89273   0.00000  Uiso   1.00
N502   N     0.10245   0.96392   0.71770   0.00000  Uiso   1.00
N503   N     0.36100   0.01485   0.98498   0.00000  Uiso   1.00
N504   N     0.05309   0.58369   0.97337   0.00000  Uiso   1.00
N505   N     0.98973   0.93689   0.79835   0.00000  Uiso   1.00
N506   N     0.24829   0.98782   0.06562   0.00000  Uiso   1.00
C507   C     0.08613   0.40844   0.16456   0.00000  Uiso   1.00
C508   C     0.13563   0.42952   0.20634   0.00000  Uiso   1.00
C509   C     0.17431   0.49609   0.21140   0.00000  Uiso   1.00
C510   C     0.21654   0.50467   0.25220   0.00000  Uiso   1.00
C511   C     0.29292   0.54592   0.31180   0.00000  Uiso   1.00
C512   C     0.12317   0.36854   0.12126   0.00000  Uiso   1.00
C513   C     0.15137   0.38383   0.05478   0.00000  Uiso   1.00
C514   C     0.18311   0.34108   0.02396   0.00000  Uiso   1.00
C515   C     0.24010   0.28762   0.95147   0.00000  Uiso   1.00
C516   C     0.00385   0.35660   0.20958   0.00000  Uiso   1.00
C517   C     0.93172   0.36184   0.21734   0.00000  Uiso   1.00
C518   C     0.86300   0.30902   0.26087   0.00000  Uiso   1.00
C519   C     0.73473   0.23703   0.32551   0.00000  Uiso   1.00
C520   C     0.09235   0.30530   0.22803   0.00000  Uiso   1.00
C521   C     0.13901   0.37349   0.24081   0.00000  Uiso   1.00
C522   C     0.18120   0.38198   0.28162   0.00000  Uiso   1.00
C523   C     0.21993   0.44855   0.28674   0.00000  Uiso   1.00
C524   C     0.12656   0.31252   0.15573   0.00000  Uiso   1.00
C525   C     0.15826   0.26972   0.12500   0.00000  Uiso   1.00
C526   C     0.18650   0.28495   0.05849   0.00000  Uiso   1.00
C527   C     0.00723   0.30057   0.24405   0.00000  Uiso   1.00
C528   C     0.93861   0.24773   0.28757   0.00000  Uiso   1.00
C529   C     0.86639   0.25290   0.29541   0.00000  Uiso   1.00
H530   H     0.08349   0.45205   0.13772   0.00000  Uiso   1.00
H531   H     0.17168   0.53943   0.18470   0.00000  Uiso   1.00
H532   H     0.14874   0.42718   0.02811   0.00000  Uiso   1.00
H533   H     0.92912   0.40520   0.19066   0.00000  Uiso   1.00
H534   H     0.27097   0.61160   0.25199   0.00000  Uiso   1.00
H535   H     0.22257   0.37491   0.92180   0.00000  Uiso   1.00
H536   H     0.75947   0.32855   0.26456   0.00000  Uiso   1.00
H537   H     0.09499   0.26169   0.25487   0.00000  Uiso   1.00
H538   H     0.18380   0.33862   0.30829   0.00000  Uiso   1.00
H539   H     0.16086   0.22637   0.15170   0.00000  Uiso   1.00
H540   H     0.94125   0.20439   0.31424   0.00000  Uiso   1.00
H541   H     0.28081   0.44861   0.35229   0.00000  Uiso   1.00
H542   H     0.23241   0.21192   0.02210   0.00000  Uiso   1.00
H543   H     0.76931   0.16557   0.36486   0.00000  Uiso   1.00
O544   O     0.33413   0.58415   0.33515   0.00000  Uiso   1.00
O545   O     0.27062   0.27362   0.90196   0.00000  Uiso   1.00
O546   O     0.66305   0.21280   0.35165   0.00000  Uiso   1.00
N547   N     0.26108   0.56268   0.26827   0.00000  Uiso   1.00
N548   N     0.21584   0.34140   0.95957   0.00000  Uiso   1.00
N549   N     0.78288   0.29805   0.28000   0.00000  Uiso   1.00
N550   N     0.26638   0.47498   0.32225   0.00000  Uiso   1.00
N551   N     0.22114   0.25370   0.01354   0.00000  Uiso   1.00
N552   N     0.78818   0.21035   0.33398   0.00000  Uiso   1.00
