data_job_04449
_audit_creation_date              2018-12-19
_audit_creation_method            'Materials Studio'
_symmetry_space_group_name_H-M    'P1'
_symmetry_Int_Tables_number       1
_symmetry_cell_setting            triclinic
loop_
_symmetry_equiv_pos_as_xyz
  x,y,z
_cell_length_a                    12.7976
_cell_length_b                    35.1829
_cell_length_c                    11.8283
_cell_angle_alpha                 90.0000
_cell_angle_beta                  89.9509
_cell_angle_gamma                 90.0000
loop_
_atom_site_label
_atom_site_type_symbol
_atom_site_fract_x
_atom_site_fract_y
_atom_site_fract_z
_atom_site_U_iso_or_equiv
_atom_site_adp_type
_atom_site_occupancy
C1     C     0.80097   0.13403   0.51541   0.00000  Uiso   1.00
C2     C     0.69708   0.14085   0.45572   0.00000  Uiso   1.00
C3     C     0.66614   0.17459   0.40502   0.00000  Uiso   1.00
C4     C     0.56810   0.17509   0.35488   0.00000  Uiso   1.00
C5     C     0.41661   0.19058   0.26216   0.00000  Uiso   1.00
C6     C     0.77358   0.12080   0.63459   0.00000  Uiso   1.00
C7     C     0.80697   0.13768   0.73426   0.00000  Uiso   1.00
C8     C     0.77333   0.12130   0.83469   0.00000  Uiso   1.00
C9     C     0.74066   0.10565   0.01965   0.00000  Uiso   1.00
C10    C     0.85063   0.09992   0.45672   0.00000  Uiso   1.00
C11    C     0.94882   0.09923   0.40686   0.00000  Uiso   1.00
C12    C     0.98006   0.06526   0.35756   0.00000  Uiso   1.00
C13    C     0.06702   0.01718   0.26635   0.00000  Uiso   1.00
C14    C     0.68187   0.07492   0.51654   0.00000  Uiso   1.00
C15    C     0.63239   0.10875   0.45634   0.00000  Uiso   1.00
C16    C     0.53437   0.10920   0.40626   0.00000  Uiso   1.00
C17    C     0.50329   0.14293   0.35549   0.00000  Uiso   1.00
C18    C     0.70889   0.08870   0.63520   0.00000  Uiso   1.00
C19    C     0.67520   0.07229   0.73551   0.00000  Uiso   1.00
C20    C     0.70852   0.08914   0.83531   0.00000  Uiso   1.00
C21    C     0.78594   0.06781   0.45733   0.00000  Uiso   1.00
C22    C     0.81704   0.03384   0.40810   0.00000  Uiso   1.00
C23    C     0.91525   0.03310   0.35818   0.00000  Uiso   1.00
H24    H     0.85134   0.15902   0.51495   0.00000  Uiso   1.00
H25    H     0.71623   0.19943   0.40457   0.00000  Uiso   1.00
H26    H     0.85704   0.16252   0.73376   0.00000  Uiso   1.00
H27    H     0.99886   0.12408   0.40641   0.00000  Uiso   1.00
H28    H     0.53789   0.23008   0.28251   0.00000  Uiso   1.00
H29    H     0.83483   0.15225   0.97662   0.00000  Uiso   1.00
H30    H     0.13388   0.07118   0.28633   0.00000  Uiso   1.00
H31    H     0.63151   0.04993   0.51702   0.00000  Uiso   1.00
H32    H     0.48433   0.08435   0.40675   0.00000  Uiso   1.00
H33    H     0.62514   0.04745   0.73595   0.00000  Uiso   1.00
H34    H     0.76696   0.00900   0.40859   0.00000  Uiso   1.00
H35    H     0.34967   0.13668   0.28428   0.00000  Uiso   1.00
H36    H     0.64662   0.05885   0.97840   0.00000  Uiso   1.00
H37    H     0.94566   0.97778   0.28811   0.00000  Uiso   1.00
O38    O     0.35091   0.20800   0.21086   0.00000  Uiso   1.00
O39    O     0.74051   0.10589   0.12150   0.00000  Uiso   1.00
O40    O     0.13285   0.99953   0.21586   0.00000  Uiso   1.00
N41    N     0.51380   0.20337   0.29804   0.00000  Uiso   1.00
N42    N     0.79141   0.13061   0.94699   0.00000  Uiso   1.00
N43    N     0.07101   0.05482   0.30166   0.00000  Uiso   1.00
N44    N     0.41252   0.15311   0.29899   0.00000  Uiso   1.00
N45    N     0.69013   0.08035   0.94795   0.00000  Uiso   1.00
N46    N     0.96973   0.00456   0.30261   0.00000  Uiso   1.00
C47    C     0.44195   0.84714   0.03925   0.00000  Uiso   1.00
C48    C     0.54617   0.83996   0.98042   0.00000  Uiso   1.00
C49    C     0.57720   0.80598   0.93119   0.00000  Uiso   1.00
C50    C     0.67556   0.80517   0.88163   0.00000  Uiso   1.00
C51    C     0.82753   0.78915   0.79036   0.00000  Uiso   1.00
C52    C     0.46867   0.86085   0.15806   0.00000  Uiso   1.00
C53    C     0.43453   0.84444   0.25819   0.00000  Uiso   1.00
C54    C     0.46764   0.86122   0.35817   0.00000  Uiso   1.00
C55    C     0.49924   0.87765   0.54269   0.00000  Uiso   1.00
C56    C     0.39290   0.88103   0.97897   0.00000  Uiso   1.00
C57    C     0.29503   0.88159   0.92854   0.00000  Uiso   1.00
C58    C     0.26434   0.91537   0.87777   0.00000  Uiso   1.00
C59    C     0.17829   0.96312   0.78423   0.00000  Uiso   1.00
C60    C     0.56144   0.90614   0.03878   0.00000  Uiso   1.00
C61    C     0.61107   0.87201   0.98017   0.00000  Uiso   1.00
C62    C     0.70941   0.87126   0.93066   0.00000  Uiso   1.00
C63    C     0.74058   0.83728   0.88137   0.00000  Uiso   1.00
C64    C     0.53357   0.89290   0.15781   0.00000  Uiso   1.00
C65    C     0.56674   0.90971   0.25766   0.00000  Uiso   1.00
C66    C     0.53266   0.89333   0.35791   0.00000  Uiso   1.00
C67    C     0.45780   0.91308   0.97871   0.00000  Uiso   1.00
C68    C     0.42725   0.94686   0.92802   0.00000  Uiso   1.00
C69    C     0.32936   0.94747   0.87751   0.00000  Uiso   1.00
H70    H     0.39142   0.82219   0.03946   0.00000  Uiso   1.00
H71    H     0.52695   0.78118   0.93141   0.00000  Uiso   1.00
H72    H     0.38430   0.81964   0.25836   0.00000  Uiso   1.00
H73    H     0.24483   0.85678   0.92876   0.00000  Uiso   1.00
H74    H     0.70586   0.74985   0.81154   0.00000  Uiso   1.00
H75    H     0.40503   0.83095   0.50092   0.00000  Uiso   1.00
H76    H     0.11093   0.90927   0.80591   0.00000  Uiso   1.00
H77    H     0.61197   0.93109   0.03859   0.00000  Uiso   1.00
H78    H     0.75961   0.89606   0.93048   0.00000  Uiso   1.00
H79    H     0.61696   0.93452   0.25743   0.00000  Uiso   1.00
H80    H     0.47749   0.97166   0.92783   0.00000  Uiso   1.00
H81    H     0.89470   0.84309   0.81079   0.00000  Uiso   1.00
H82    H     0.59386   0.92418   0.50018   0.00000  Uiso   1.00
H83    H     0.29977   0.00251   0.80516   0.00000  Uiso   1.00
O84    O     0.89343   0.77146   0.74010   0.00000  Uiso   1.00
O85    O     0.49874   0.87785   0.64454   0.00000  Uiso   1.00
O86    O     0.11290   0.98061   0.73269   0.00000  Uiso   1.00
N87    N     0.73003   0.77660   0.82618   0.00000  Uiso   1.00
N88    N     0.44879   0.85242   0.47071   0.00000  Uiso   1.00
N89    N     0.17382   0.92565   0.82096   0.00000  Uiso   1.00
N90    N     0.83164   0.82677   0.82578   0.00000  Uiso   1.00
N91    N     0.55040   0.90259   0.47031   0.00000  Uiso   1.00
N92    N     0.27543   0.97582   0.82055   0.00000  Uiso   1.00
C93    C     0.94162   0.84760   0.48112   0.00000  Uiso   1.00
C94    C     0.04584   0.84040   0.53974   0.00000  Uiso   1.00
C95    C     0.07671   0.80645   0.58923   0.00000  Uiso   1.00
C96    C     0.17510   0.80562   0.63852   0.00000  Uiso   1.00
C97    C     0.32705   0.78958   0.72953   0.00000  Uiso   1.00
C98    C     0.96833   0.86116   0.36210   0.00000  Uiso   1.00
C99    C     0.93401   0.84465   0.26224   0.00000  Uiso   1.00
C100   C     0.96715   0.86130   0.16200   0.00000  Uiso   1.00
C101   C     0.99869   0.87749   0.97722   0.00000  Uiso   1.00
C102   C     0.89283   0.88160   0.54120   0.00000  Uiso   1.00
C103   C     0.79501   0.88230   0.59189   0.00000  Uiso   1.00
C104   C     0.76457   0.91616   0.64241   0.00000  Uiso   1.00
C105   C     0.67889   0.96409   0.73571   0.00000  Uiso   1.00
C106   C     0.06148   0.90650   0.48066   0.00000  Uiso   1.00
C107   C     0.11095   0.87240   0.53949   0.00000  Uiso   1.00
C108   C     0.20932   0.87162   0.58872   0.00000  Uiso   1.00
C109   C     0.24032   0.83767   0.63828   0.00000  Uiso   1.00
C110   C     0.03343   0.89315   0.36185   0.00000  Uiso   1.00
C111   C     0.06662   0.90982   0.26173   0.00000  Uiso   1.00
C112   C     0.03237   0.89335   0.16175   0.00000  Uiso   1.00
C113   C     0.95793   0.91360   0.54095   0.00000  Uiso   1.00
C114   C     0.92763   0.94746   0.59139   0.00000  Uiso   1.00
C115   C     0.82979   0.94821   0.64216   0.00000  Uiso   1.00
H116   H     0.89094   0.82269   0.48131   0.00000  Uiso   1.00
H117   H     0.02630   0.78170   0.58939   0.00000  Uiso   1.00
H118   H     0.88362   0.81990   0.26246   0.00000  Uiso   1.00
H119   H     0.74465   0.85753   0.59207   0.00000  Uiso   1.00
H120   H     0.20511   0.75035   0.70908   0.00000  Uiso   1.00
H121   H     0.90423   0.83091   0.01973   0.00000  Uiso   1.00
H122   H     0.61118   0.91027   0.71476   0.00000  Uiso   1.00
H123   H     0.11217   0.93141   0.48047   0.00000  Uiso   1.00
H124   H     0.25968   0.89638   0.58852   0.00000  Uiso   1.00
H125   H     0.11700   0.93458   0.26158   0.00000  Uiso   1.00
H126   H     0.97803   0.97222   0.59118   0.00000  Uiso   1.00
H127   H     0.39453   0.84344   0.70836   0.00000  Uiso   1.00
H128   H     0.09364   0.92399   0.01900   0.00000  Uiso   1.00
H129   H     0.80060   0.00335   0.71404   0.00000  Uiso   1.00
O130   O     0.39288   0.77189   0.77978   0.00000  Uiso   1.00
O131   O     0.99812   0.87758   0.87537   0.00000  Uiso   1.00
O132   O     0.61365   0.98169   0.78725   0.00000  Uiso   1.00
N133   N     0.22944   0.77707   0.69410   0.00000  Uiso   1.00
N134   N     0.94815   0.85238   0.04960   0.00000  Uiso   1.00
N135   N     0.67416   0.92658   0.69937   0.00000  Uiso   1.00
N136   N     0.33136   0.82716   0.69372   0.00000  Uiso   1.00
N137   N     0.05007   0.90247   0.04921   0.00000  Uiso   1.00
N138   N     0.77608   0.97667   0.69899   0.00000  Uiso   1.00
C139   C     0.30054   0.13453   0.96191   0.00000  Uiso   1.00
C140   C     0.19668   0.14132   0.02190   0.00000  Uiso   1.00
C141   C     0.16561   0.17508   0.07247   0.00000  Uiso   1.00
C142   C     0.06763   0.17555   0.12292   0.00000  Uiso   1.00
C143   C     0.91616   0.19100   0.21604   0.00000  Uiso   1.00
C144   C     0.27308   0.12119   0.84293   0.00000  Uiso   1.00
C145   C     0.30625   0.13801   0.74302   0.00000  Uiso   1.00
C146   C     0.27258   0.12153   0.64282   0.00000  Uiso   1.00
C147   C     0.23978   0.10570   0.45808   0.00000  Uiso   1.00
C148   C     0.35046   0.10050   0.02069   0.00000  Uiso   1.00
C149   C     0.44871   0.09993   0.07022   0.00000  Uiso   1.00
C150   C     0.48021   0.06602   0.11966   0.00000  Uiso   1.00
C151   C     0.56756   0.01808   0.21092   0.00000  Uiso   1.00
C152   C     0.18177   0.07533   0.96159   0.00000  Uiso   1.00
C153   C     0.13218   0.10917   0.02172   0.00000  Uiso   1.00
C154   C     0.03421   0.10958   0.07211   0.00000  Uiso   1.00
C155   C     0.00301   0.14333   0.12275   0.00000  Uiso   1.00
C156   C     0.20857   0.08904   0.84275   0.00000  Uiso   1.00
C157   C     0.17485   0.07252   0.74267   0.00000  Uiso   1.00
C158   C     0.20796   0.08932   0.64264   0.00000  Uiso   1.00
C159   C     0.28595   0.06835   0.02051   0.00000  Uiso   1.00
C160   C     0.31731   0.03444   0.06987   0.00000  Uiso   1.00
C161   C     0.41558   0.03381   0.11948   0.00000  Uiso   1.00
H162   H     0.35076   0.15956   0.96204   0.00000  Uiso   1.00
H163   H     0.21556   0.19995   0.07258   0.00000  Uiso   1.00
H164   H     0.35618   0.16289   0.74319   0.00000  Uiso   1.00
H165   H     0.49861   0.12481   0.07034   0.00000  Uiso   1.00
H166   H     0.03719   0.23057   0.19501   0.00000  Uiso   1.00
H167   H     0.33373   0.15241   0.50047   0.00000  Uiso   1.00
H168   H     0.63408   0.07212   0.19034   0.00000  Uiso   1.00
H169   H     0.13155   0.05030   0.96145   0.00000  Uiso   1.00
H170   H     0.98431   0.08470   0.07196   0.00000  Uiso   1.00
H171   H     0.12494   0.04764   0.74257   0.00000  Uiso   1.00
H172   H     0.26737   0.00956   0.06972   0.00000  Uiso   1.00
H173   H     0.84950   0.13702   0.19451   0.00000  Uiso   1.00
H174   H     0.14605   0.05887   0.49996   0.00000  Uiso   1.00
H175   H     0.44640   0.97857   0.18984   0.00000  Uiso   1.00
O176   O     0.85043   0.20840   0.26743   0.00000  Uiso   1.00
O177   O     0.23950   0.10586   0.35623   0.00000  Uiso   1.00
O178   O     0.63355   0.00051   0.26132   0.00000  Uiso   1.00
N179   N     0.01323   0.20383   0.17975   0.00000  Uiso   1.00
N180   N     0.29047   0.13076   0.53039   0.00000  Uiso   1.00
N181   N     0.57128   0.05569   0.17534   0.00000  Uiso   1.00
N182   N     0.91224   0.15349   0.17948   0.00000  Uiso   1.00
N183   N     0.18947   0.08043   0.53012   0.00000  Uiso   1.00
N184   N     0.47029   0.00535   0.17507   0.00000  Uiso   1.00
C185   C     0.19903   0.63403   0.48459   0.00000  Uiso   1.00
C186   C     0.30292   0.64085   0.54428   0.00000  Uiso   1.00
C187   C     0.33386   0.67459   0.59498   0.00000  Uiso   1.00
C188   C     0.43190   0.67509   0.64512   0.00000  Uiso   1.00
C189   C     0.58339   0.69058   0.73784   0.00000  Uiso   1.00
C190   C     0.22642   0.62080   0.36541   0.00000  Uiso   1.00
C191   C     0.19303   0.63768   0.26574   0.00000  Uiso   1.00
C192   C     0.22667   0.62130   0.16531   0.00000  Uiso   1.00
C193   C     0.25934   0.60565   0.98035   0.00000  Uiso   1.00
C194   C     0.14937   0.59992   0.54328   0.00000  Uiso   1.00
C195   C     0.05118   0.59923   0.59314   0.00000  Uiso   1.00
C196   C     0.01994   0.56526   0.64244   0.00000  Uiso   1.00
C197   C     0.93298   0.51718   0.73365   0.00000  Uiso   1.00
C198   C     0.31813   0.57492   0.48346   0.00000  Uiso   1.00
C199   C     0.36761   0.60875   0.54366   0.00000  Uiso   1.00
C200   C     0.46563   0.60920   0.59374   0.00000  Uiso   1.00
C201   C     0.49671   0.64293   0.64451   0.00000  Uiso   1.00
C202   C     0.29111   0.58870   0.36480   0.00000  Uiso   1.00
C203   C     0.32480   0.57229   0.26449   0.00000  Uiso   1.00
C204   C     0.29148   0.58914   0.16469   0.00000  Uiso   1.00
C205   C     0.21406   0.56781   0.54267   0.00000  Uiso   1.00
C206   C     0.18296   0.53384   0.59190   0.00000  Uiso   1.00
C207   C     0.08475   0.53310   0.64182   0.00000  Uiso   1.00
H208   H     0.14866   0.65902   0.48505   0.00000  Uiso   1.00
H209   H     0.28377   0.69943   0.59543   0.00000  Uiso   1.00
H210   H     0.14296   0.66252   0.26624   0.00000  Uiso   1.00
H211   H     0.00114   0.62408   0.59359   0.00000  Uiso   1.00
H212   H     0.46211   0.73008   0.71749   0.00000  Uiso   1.00
H213   H     0.16517   0.65225   0.02338   0.00000  Uiso   1.00
H214   H     0.86612   0.57118   0.71367   0.00000  Uiso   1.00
H215   H     0.36849   0.54993   0.48298   0.00000  Uiso   1.00
H216   H     0.51567   0.58435   0.59325   0.00000  Uiso   1.00
H217   H     0.37486   0.54745   0.26405   0.00000  Uiso   1.00
H218   H     0.23304   0.50900   0.59141   0.00000  Uiso   1.00
H219   H     0.65033   0.63668   0.71572   0.00000  Uiso   1.00
H220   H     0.35338   0.55885   0.02160   0.00000  Uiso   1.00
H221   H     0.05434   0.47778   0.71189   0.00000  Uiso   1.00
O222   O     0.64909   0.70800   0.78914   0.00000  Uiso   1.00
O223   O     0.25949   0.60589   0.87850   0.00000  Uiso   1.00
O224   O     0.86715   0.49953   0.78414   0.00000  Uiso   1.00
N225   N     0.48620   0.70337   0.70196   0.00000  Uiso   1.00
N226   N     0.20859   0.63061   0.05301   0.00000  Uiso   1.00
N227   N     0.92899   0.55482   0.69834   0.00000  Uiso   1.00
N228   N     0.58748   0.65311   0.70101   0.00000  Uiso   1.00
N229   N     0.30987   0.58035   0.05205   0.00000  Uiso   1.00
N230   N     0.03027   0.50456   0.69739   0.00000  Uiso   1.00
C231   C     0.55805   0.34714   0.96075   0.00000  Uiso   1.00
C232   C     0.45383   0.33996   0.01958   0.00000  Uiso   1.00
C233   C     0.42280   0.30598   0.06881   0.00000  Uiso   1.00
C234   C     0.32444   0.30517   0.11837   0.00000  Uiso   1.00
C235   C     0.17247   0.28915   0.20964   0.00000  Uiso   1.00
C236   C     0.53133   0.36085   0.84194   0.00000  Uiso   1.00
C237   C     0.56547   0.34444   0.74181   0.00000  Uiso   1.00
C238   C     0.53236   0.36122   0.64183   0.00000  Uiso   1.00
C239   C     0.50076   0.37765   0.45731   0.00000  Uiso   1.00
C240   C     0.60710   0.38103   0.02103   0.00000  Uiso   1.00
C241   C     0.70497   0.38159   0.07146   0.00000  Uiso   1.00
C242   C     0.73566   0.41537   0.12223   0.00000  Uiso   1.00
C243   C     0.82171   0.46312   0.21577   0.00000  Uiso   1.00
C244   C     0.43856   0.40614   0.96122   0.00000  Uiso   1.00
C245   C     0.38893   0.37201   0.01983   0.00000  Uiso   1.00
C246   C     0.29059   0.37126   0.06934   0.00000  Uiso   1.00
C247   C     0.25942   0.33728   0.11863   0.00000  Uiso   1.00
C248   C     0.46643   0.39290   0.84219   0.00000  Uiso   1.00
C249   C     0.43326   0.40971   0.74234   0.00000  Uiso   1.00
C250   C     0.46734   0.39333   0.64209   0.00000  Uiso   1.00
C251   C     0.54220   0.41308   0.02129   0.00000  Uiso   1.00
C252   C     0.57275   0.44686   0.07198   0.00000  Uiso   1.00
C253   C     0.67064   0.44747   0.12249   0.00000  Uiso   1.00
H254   H     0.60858   0.32219   0.96054   0.00000  Uiso   1.00
H255   H     0.47305   0.28118   0.06859   0.00000  Uiso   1.00
H256   H     0.61570   0.31964   0.74164   0.00000  Uiso   1.00
H257   H     0.75517   0.35678   0.07124   0.00000  Uiso   1.00
H258   H     0.29414   0.24985   0.18846   0.00000  Uiso   1.00
H259   H     0.59497   0.33095   0.49908   0.00000  Uiso   1.00
H260   H     0.88907   0.40927   0.19409   0.00000  Uiso   1.00
H261   H     0.38803   0.43109   0.96141   0.00000  Uiso   1.00
H262   H     0.24039   0.39606   0.06952   0.00000  Uiso   1.00
H263   H     0.38304   0.43452   0.74257   0.00000  Uiso   1.00
H264   H     0.52251   0.47166   0.07217   0.00000  Uiso   1.00
H265   H     0.10530   0.34309   0.18921   0.00000  Uiso   1.00
H266   H     0.40614   0.42418   0.49982   0.00000  Uiso   1.00
H267   H     0.70023   0.50251   0.19484   0.00000  Uiso   1.00
O268   O     0.10657   0.27146   0.25990   0.00000  Uiso   1.00
O269   O     0.50126   0.37785   0.35546   0.00000  Uiso   1.00
O270   O     0.88710   0.48061   0.26731   0.00000  Uiso   1.00
N271   N     0.26997   0.27660   0.17382   0.00000  Uiso   1.00
N272   N     0.55121   0.35242   0.52929   0.00000  Uiso   1.00
N273   N     0.82618   0.42565   0.17904   0.00000  Uiso   1.00
N274   N     0.16836   0.32677   0.17422   0.00000  Uiso   1.00
N275   N     0.44960   0.40259   0.52969   0.00000  Uiso   1.00
N276   N     0.72457   0.47582   0.17945   0.00000  Uiso   1.00
C277   C     0.05838   0.34760   0.51888   0.00000  Uiso   1.00
C278   C     0.95416   0.34040   0.46026   0.00000  Uiso   1.00
C279   C     0.92329   0.30645   0.41077   0.00000  Uiso   1.00
C280   C     0.82490   0.30562   0.36148   0.00000  Uiso   1.00
C281   C     0.67295   0.28958   0.27047   0.00000  Uiso   1.00
C282   C     0.03167   0.36116   0.63790   0.00000  Uiso   1.00
C283   C     0.06599   0.34465   0.73776   0.00000  Uiso   1.00
C284   C     0.03285   0.36130   0.83800   0.00000  Uiso   1.00
C285   C     0.00131   0.37749   0.02278   0.00000  Uiso   1.00
C286   C     0.10717   0.38160   0.45880   0.00000  Uiso   1.00
C287   C     0.20499   0.38230   0.40811   0.00000  Uiso   1.00
C288   C     0.23543   0.41616   0.35759   0.00000  Uiso   1.00
C289   C     0.32111   0.46409   0.26429   0.00000  Uiso   1.00
C290   C     0.93852   0.40650   0.51934   0.00000  Uiso   1.00
C291   C     0.88905   0.37240   0.46051   0.00000  Uiso   1.00
C292   C     0.79068   0.37162   0.41128   0.00000  Uiso   1.00
C293   C     0.75968   0.33767   0.36172   0.00000  Uiso   1.00
C294   C     0.96657   0.39315   0.63815   0.00000  Uiso   1.00
C295   C     0.93338   0.40982   0.73827   0.00000  Uiso   1.00
C296   C     0.96763   0.39335   0.83825   0.00000  Uiso   1.00
C297   C     0.04207   0.41360   0.45905   0.00000  Uiso   1.00
C298   C     0.07237   0.44746   0.40861   0.00000  Uiso   1.00
C299   C     0.17021   0.44821   0.35784   0.00000  Uiso   1.00
H300   H     0.10906   0.32269   0.51869   0.00000  Uiso   1.00
H301   H     0.97370   0.28170   0.41061   0.00000  Uiso   1.00
H302   H     0.11638   0.31990   0.73754   0.00000  Uiso   1.00
H303   H     0.25535   0.35753   0.40793   0.00000  Uiso   1.00
H304   H     0.79489   0.25035   0.29092   0.00000  Uiso   1.00
H305   H     0.09577   0.33091   0.98027   0.00000  Uiso   1.00
H306   H     0.38882   0.41027   0.28524   0.00000  Uiso   1.00
H307   H     0.88783   0.43141   0.51953   0.00000  Uiso   1.00
H308   H     0.74032   0.39638   0.41148   0.00000  Uiso   1.00
H309   H     0.88300   0.43458   0.73842   0.00000  Uiso   1.00
H310   H     0.02197   0.47222   0.40882   0.00000  Uiso   1.00
H311   H     0.60547   0.34344   0.29164   0.00000  Uiso   1.00
H312   H     0.90636   0.42399   0.98100   0.00000  Uiso   1.00
H313   H     0.19940   0.50335   0.28596   0.00000  Uiso   1.00
O314   O     0.60712   0.27189   0.22022   0.00000  Uiso   1.00
O315   O     0.00188   0.37758   0.12463   0.00000  Uiso   1.00
O316   O     0.38635   0.48169   0.21275   0.00000  Uiso   1.00
N317   N     0.77056   0.27707   0.30590   0.00000  Uiso   1.00
N318   N     0.05185   0.35238   0.95040   0.00000  Uiso   1.00
N319   N     0.32584   0.42658   0.30063   0.00000  Uiso   1.00
N320   N     0.66864   0.32716   0.30628   0.00000  Uiso   1.00
N321   N     0.94993   0.40247   0.95079   0.00000  Uiso   1.00
N322   N     0.22392   0.47667   0.30101   0.00000  Uiso   1.00
C323   C     0.69946   0.63453   0.03809   0.00000  Uiso   1.00
C324   C     0.80332   0.64132   0.97810   0.00000  Uiso   1.00
C325   C     0.83439   0.67508   0.92753   0.00000  Uiso   1.00
C326   C     0.93237   0.67555   0.87708   0.00000  Uiso   1.00
C327   C     0.08384   0.69100   0.78396   0.00000  Uiso   1.00
C328   C     0.72692   0.62119   0.15707   0.00000  Uiso   1.00
C329   C     0.69375   0.63801   0.25698   0.00000  Uiso   1.00
C330   C     0.72742   0.62153   0.35718   0.00000  Uiso   1.00
C331   C     0.76022   0.60570   0.54192   0.00000  Uiso   1.00
C332   C     0.64954   0.60050   0.97931   0.00000  Uiso   1.00
C333   C     0.55129   0.59993   0.92978   0.00000  Uiso   1.00
C334   C     0.51979   0.56602   0.88034   0.00000  Uiso   1.00
C335   C     0.43244   0.51808   0.78908   0.00000  Uiso   1.00
C336   C     0.81823   0.57533   0.03841   0.00000  Uiso   1.00
C337   C     0.86782   0.60917   0.97828   0.00000  Uiso   1.00
C338   C     0.96579   0.60958   0.92789   0.00000  Uiso   1.00
C339   C     0.99699   0.64333   0.87725   0.00000  Uiso   1.00
C340   C     0.79143   0.58904   0.15725   0.00000  Uiso   1.00
C341   C     0.82515   0.57252   0.25733   0.00000  Uiso   1.00
C342   C     0.79204   0.58932   0.35736   0.00000  Uiso   1.00
C343   C     0.71405   0.56835   0.97949   0.00000  Uiso   1.00
C344   C     0.68269   0.53444   0.93013   0.00000  Uiso   1.00
C345   C     0.58442   0.53381   0.88052   0.00000  Uiso   1.00
H346   H     0.64924   0.65956   0.03796   0.00000  Uiso   1.00
H347   H     0.78444   0.69995   0.92742   0.00000  Uiso   1.00
H348   H     0.64382   0.66289   0.25681   0.00000  Uiso   1.00
H349   H     0.50139   0.62481   0.92966   0.00000  Uiso   1.00
H350   H     0.96281   0.73057   0.80499   0.00000  Uiso   1.00
H351   H     0.66627   0.65241   0.49953   0.00000  Uiso   1.00
H352   H     0.36592   0.57212   0.80966   0.00000  Uiso   1.00
H353   H     0.86845   0.55030   0.03855   0.00000  Uiso   1.00
H354   H     0.01569   0.58470   0.92804   0.00000  Uiso   1.00
H355   H     0.87506   0.54764   0.25743   0.00000  Uiso   1.00
H356   H     0.73263   0.50956   0.93028   0.00000  Uiso   1.00
H357   H     0.15050   0.63702   0.80549   0.00000  Uiso   1.00
H358   H     0.85395   0.55887   0.50004   0.00000  Uiso   1.00
H359   H     0.55360   0.47857   0.81016   0.00000  Uiso   1.00
O360   O     0.14957   0.70840   0.73257   0.00000  Uiso   1.00
O361   O     0.76050   0.60586   0.64377   0.00000  Uiso   1.00
O362   O     0.36645   0.50051   0.73868   0.00000  Uiso   1.00
N363   N     0.98677   0.70383   0.82025   0.00000  Uiso   1.00
N364   N     0.70953   0.63076   0.46961   0.00000  Uiso   1.00
N365   N     0.42872   0.55569   0.82466   0.00000  Uiso   1.00
N366   N     0.08776   0.65349   0.82052   0.00000  Uiso   1.00
N367   N     0.81053   0.58043   0.46988   0.00000  Uiso   1.00
N368   N     0.52971   0.50535   0.82493   0.00000  Uiso   1.00
