data_job_00230
_audit_creation_date              2018-12-19
_audit_creation_method            'Materials Studio'
_symmetry_space_group_name_H-M    'P1'
_symmetry_Int_Tables_number       1
_symmetry_cell_setting            triclinic
loop_
_symmetry_equiv_pos_as_xyz
  x,y,z
_cell_length_a                    13.6498
_cell_length_b                    7.1015
_cell_length_c                    23.9765
_cell_angle_alpha                 90.0000
_cell_angle_beta                  83.4744
_cell_angle_gamma                 90.0000
loop_
_atom_site_label
_atom_site_type_symbol
_atom_site_fract_x
_atom_site_fract_y
_atom_site_fract_z
_atom_site_U_iso_or_equiv
_atom_site_adp_type
_atom_site_occupancy
C1     C     0.79213   0.47125   0.11717   0.00000  Uiso   1.00
C2     C     0.72685   0.52925   0.17025   0.00000  Uiso   1.00
C3     C     0.69855   0.41400   0.21599   0.00000  Uiso   1.00
C4     C     0.63859   0.49357   0.26046   0.00000  Uiso   1.00
C5     C     0.54183   0.55500   0.34306   0.00000  Uiso   1.00
C6     C     0.73272   0.51269   0.06843   0.00000  Uiso   1.00
C7     C     0.70936   0.38351   0.02856   0.00000  Uiso   1.00
C8     C     0.65435   0.44915   0.98732   0.00000  Uiso   1.00
C9     C     0.56676   0.48490   0.91182   0.00000  Uiso   1.00
C10    C     0.87834   0.60909   0.11121   0.00000  Uiso   1.00
C11    C     0.97743   0.56097   0.10729   0.00000  Uiso   1.00
C12    C     0.04503   0.70778   0.10205   0.00000  Uiso   1.00
C13    C     0.18354   0.89321   0.09297   0.00000  Uiso   1.00
C14    C     0.73599   0.81753   0.11480   0.00000  Uiso   1.00
C15    C     0.69636   0.71734   0.16896   0.00000  Uiso   1.00
C16    C     0.63643   0.79712   0.21337   0.00000  Uiso   1.00
C17    C     0.60805   0.68200   0.25917   0.00000  Uiso   1.00
C18    C     0.70223   0.70077   0.06714   0.00000  Uiso   1.00
C19    C     0.64725   0.76663   0.02594   0.00000  Uiso   1.00
C20    C     0.62381   0.63758   0.98603   0.00000  Uiso   1.00
C21    C     0.84785   0.79718   0.10992   0.00000  Uiso   1.00
C22    C     0.91531   0.94409   0.10468   0.00000  Uiso   1.00
C23    C     0.01448   0.89621   0.10076   0.00000  Uiso   1.00
H24    H     0.81587   0.32482   0.11817   0.00000  Uiso   1.00
H25    H     0.72215   0.26844   0.21697   0.00000  Uiso   1.00
H26    H     0.73298   0.23797   0.02957   0.00000  Uiso   1.00
H27    H     0.00100   0.41541   0.10829   0.00000  Uiso   1.00
H28    H     0.60478   0.28887   0.32593   0.00000  Uiso   1.00
H29    H     0.62762   0.22463   0.93078   0.00000  Uiso   1.00
H30    H     0.19280   0.59879   0.09677   0.00000  Uiso   1.00
H31    H     0.71225   0.96397   0.11380   0.00000  Uiso   1.00
H32    H     0.61285   0.94267   0.21236   0.00000  Uiso   1.00
H33    H     0.62367   0.91219   0.02496   0.00000  Uiso   1.00
H34    H     0.89169   0.08963   0.10368   0.00000  Uiso   1.00
H35    H     0.51605   0.83609   0.32219   0.00000  Uiso   1.00
H36    H     0.53890   0.77185   0.92703   0.00000  Uiso   1.00
H37    H     0.10408   0.14601   0.09303   0.00000  Uiso   1.00
O38    O     0.49687   0.53692   0.38897   0.00000  Uiso   1.00
O39    O     0.52686   0.45265   0.87054   0.00000  Uiso   1.00
O40    O     0.26836   0.94353   0.08833   0.00000  Uiso   1.00
N41    N     0.59755   0.42059   0.31153   0.00000  Uiso   1.00
N42    N     0.61890   0.36052   0.94209   0.00000  Uiso   1.00
N43    N     0.14730   0.71033   0.09727   0.00000  Uiso   1.00
N44    N     0.54981   0.71505   0.30952   0.00000  Uiso   1.00
N45    N     0.57116   0.65498   0.94007   0.00000  Uiso   1.00
N46    N     0.09956   0.00478   0.09525   0.00000  Uiso   1.00
C47    C     0.20787   0.97125   0.38283   0.00000  Uiso   1.00
C48    C     0.27315   0.02925   0.32975   0.00000  Uiso   1.00
C49    C     0.30145   0.91400   0.28401   0.00000  Uiso   1.00
C50    C     0.36141   0.99357   0.23954   0.00000  Uiso   1.00
C51    C     0.45817   0.05500   0.15694   0.00000  Uiso   1.00
C52    C     0.26728   0.01269   0.43157   0.00000  Uiso   1.00
C53    C     0.29064   0.88351   0.47144   0.00000  Uiso   1.00
C54    C     0.34565   0.94915   0.51268   0.00000  Uiso   1.00
C55    C     0.43324   0.98490   0.58818   0.00000  Uiso   1.00
C56    C     0.12166   0.10909   0.38879   0.00000  Uiso   1.00
C57    C     0.02257   0.06097   0.39271   0.00000  Uiso   1.00
C58    C     0.95497   0.20778   0.39795   0.00000  Uiso   1.00
C59    C     0.81646   0.39321   0.40703   0.00000  Uiso   1.00
C60    C     0.26401   0.31753   0.38520   0.00000  Uiso   1.00
C61    C     0.30364   0.21734   0.33104   0.00000  Uiso   1.00
C62    C     0.36357   0.29712   0.28663   0.00000  Uiso   1.00
C63    C     0.39195   0.18200   0.24083   0.00000  Uiso   1.00
C64    C     0.29777   0.20077   0.43286   0.00000  Uiso   1.00
C65    C     0.35275   0.26663   0.47406   0.00000  Uiso   1.00
C66    C     0.37619   0.13758   0.51397   0.00000  Uiso   1.00
C67    C     0.15215   0.29718   0.39008   0.00000  Uiso   1.00
C68    C     0.08469   0.44409   0.39532   0.00000  Uiso   1.00
C69    C     0.98552   0.39621   0.39924   0.00000  Uiso   1.00
H70    H     0.18413   0.82482   0.38183   0.00000  Uiso   1.00
H71    H     0.27785   0.76844   0.28303   0.00000  Uiso   1.00
H72    H     0.26702   0.73797   0.47043   0.00000  Uiso   1.00
H73    H     0.99900   0.91541   0.39171   0.00000  Uiso   1.00
H74    H     0.39522   0.78887   0.17407   0.00000  Uiso   1.00
H75    H     0.37238   0.72463   0.56922   0.00000  Uiso   1.00
H76    H     0.80720   0.09879   0.40323   0.00000  Uiso   1.00
H77    H     0.28775   0.46397   0.38620   0.00000  Uiso   1.00
H78    H     0.38715   0.44267   0.28764   0.00000  Uiso   1.00
H79    H     0.37633   0.41219   0.47504   0.00000  Uiso   1.00
H80    H     0.10831   0.58963   0.39632   0.00000  Uiso   1.00
H81    H     0.48395   0.33609   0.17781   0.00000  Uiso   1.00
H82    H     0.46110   0.27185   0.57297   0.00000  Uiso   1.00
H83    H     0.89592   0.64601   0.40697   0.00000  Uiso   1.00
O84    O     0.50313   0.03692   0.11103   0.00000  Uiso   1.00
O85    O     0.47314   0.95265   0.62946   0.00000  Uiso   1.00
O86    O     0.73164   0.44353   0.41167   0.00000  Uiso   1.00
N87    N     0.40245   0.92059   0.18847   0.00000  Uiso   1.00
N88    N     0.38110   0.86052   0.55791   0.00000  Uiso   1.00
N89    N     0.85270   0.21033   0.40273   0.00000  Uiso   1.00
N90    N     0.45019   0.21505   0.19048   0.00000  Uiso   1.00
N91    N     0.42884   0.15498   0.55993   0.00000  Uiso   1.00
N92    N     0.90044   0.50478   0.40475   0.00000  Uiso   1.00
C93    C     0.20787   0.52875   0.88283   0.00000  Uiso   1.00
C94    C     0.27315   0.47075   0.82975   0.00000  Uiso   1.00
C95    C     0.30145   0.58600   0.78401   0.00000  Uiso   1.00
C96    C     0.36141   0.50643   0.73954   0.00000  Uiso   1.00
C97    C     0.45817   0.44500   0.65694   0.00000  Uiso   1.00
C98    C     0.26728   0.48731   0.93157   0.00000  Uiso   1.00
C99    C     0.29064   0.61649   0.97144   0.00000  Uiso   1.00
C100   C     0.34565   0.55085   0.01268   0.00000  Uiso   1.00
C101   C     0.43324   0.51510   0.08818   0.00000  Uiso   1.00
C102   C     0.12166   0.39091   0.88879   0.00000  Uiso   1.00
C103   C     0.02257   0.43903   0.89271   0.00000  Uiso   1.00
C104   C     0.95497   0.29222   0.89795   0.00000  Uiso   1.00
C105   C     0.81646   0.10679   0.90703   0.00000  Uiso   1.00
C106   C     0.26401   0.18247   0.88520   0.00000  Uiso   1.00
C107   C     0.30364   0.28266   0.83104   0.00000  Uiso   1.00
C108   C     0.36357   0.20288   0.78663   0.00000  Uiso   1.00
C109   C     0.39195   0.31800   0.74083   0.00000  Uiso   1.00
C110   C     0.29777   0.29923   0.93286   0.00000  Uiso   1.00
C111   C     0.35275   0.23337   0.97406   0.00000  Uiso   1.00
C112   C     0.37619   0.36242   0.01397   0.00000  Uiso   1.00
C113   C     0.15215   0.20282   0.89008   0.00000  Uiso   1.00
C114   C     0.08469   0.05591   0.89532   0.00000  Uiso   1.00
C115   C     0.98552   0.10379   0.89924   0.00000  Uiso   1.00
H116   H     0.18413   0.67518   0.88183   0.00000  Uiso   1.00
H117   H     0.27785   0.73156   0.78303   0.00000  Uiso   1.00
H118   H     0.26702   0.76203   0.97043   0.00000  Uiso   1.00
H119   H     0.99900   0.58459   0.89171   0.00000  Uiso   1.00
H120   H     0.39522   0.71113   0.67407   0.00000  Uiso   1.00
H121   H     0.37238   0.77537   0.06922   0.00000  Uiso   1.00
H122   H     0.80720   0.40121   0.90323   0.00000  Uiso   1.00
H123   H     0.28775   0.03603   0.88620   0.00000  Uiso   1.00
H124   H     0.38715   0.05733   0.78764   0.00000  Uiso   1.00
H125   H     0.37633   0.08781   0.97504   0.00000  Uiso   1.00
H126   H     0.10831   0.91037   0.89632   0.00000  Uiso   1.00
H127   H     0.48395   0.16391   0.67781   0.00000  Uiso   1.00
H128   H     0.46110   0.22815   0.07297   0.00000  Uiso   1.00
H129   H     0.89592   0.85399   0.90697   0.00000  Uiso   1.00
O130   O     0.50313   0.46308   0.61103   0.00000  Uiso   1.00
O131   O     0.47314   0.54735   0.12946   0.00000  Uiso   1.00
O132   O     0.73164   0.05647   0.91167   0.00000  Uiso   1.00
N133   N     0.40245   0.57941   0.68847   0.00000  Uiso   1.00
N134   N     0.38110   0.63948   0.05791   0.00000  Uiso   1.00
N135   N     0.85270   0.28967   0.90273   0.00000  Uiso   1.00
N136   N     0.45019   0.28495   0.69048   0.00000  Uiso   1.00
N137   N     0.42884   0.34502   0.05993   0.00000  Uiso   1.00
N138   N     0.90044   0.99522   0.90475   0.00000  Uiso   1.00
C139   C     0.79213   0.02875   0.61717   0.00000  Uiso   1.00
C140   C     0.72685   0.97075   0.67025   0.00000  Uiso   1.00
C141   C     0.69855   0.08600   0.71599   0.00000  Uiso   1.00
C142   C     0.63859   0.00643   0.76046   0.00000  Uiso   1.00
C143   C     0.54183   0.94500   0.84306   0.00000  Uiso   1.00
C144   C     0.73272   0.98731   0.56843   0.00000  Uiso   1.00
C145   C     0.70936   0.11649   0.52856   0.00000  Uiso   1.00
C146   C     0.65435   0.05085   0.48732   0.00000  Uiso   1.00
C147   C     0.56676   0.01510   0.41182   0.00000  Uiso   1.00
C148   C     0.87834   0.89091   0.61121   0.00000  Uiso   1.00
C149   C     0.97743   0.93903   0.60729   0.00000  Uiso   1.00
C150   C     0.04503   0.79222   0.60205   0.00000  Uiso   1.00
C151   C     0.18354   0.60679   0.59297   0.00000  Uiso   1.00
C152   C     0.73599   0.68247   0.61480   0.00000  Uiso   1.00
C153   C     0.69636   0.78266   0.66896   0.00000  Uiso   1.00
C154   C     0.63643   0.70288   0.71337   0.00000  Uiso   1.00
C155   C     0.60805   0.81800   0.75917   0.00000  Uiso   1.00
C156   C     0.70223   0.79923   0.56714   0.00000  Uiso   1.00
C157   C     0.64725   0.73337   0.52594   0.00000  Uiso   1.00
C158   C     0.62381   0.86242   0.48603   0.00000  Uiso   1.00
C159   C     0.84785   0.70282   0.60992   0.00000  Uiso   1.00
C160   C     0.91531   0.55591   0.60468   0.00000  Uiso   1.00
C161   C     0.01448   0.60379   0.60076   0.00000  Uiso   1.00
H162   H     0.81587   0.17518   0.61817   0.00000  Uiso   1.00
H163   H     0.72215   0.23156   0.71697   0.00000  Uiso   1.00
H164   H     0.73298   0.26203   0.52957   0.00000  Uiso   1.00
H165   H     0.00100   0.08459   0.60829   0.00000  Uiso   1.00
H166   H     0.60478   0.21113   0.82593   0.00000  Uiso   1.00
H167   H     0.62762   0.27537   0.43078   0.00000  Uiso   1.00
H168   H     0.19280   0.90121   0.59677   0.00000  Uiso   1.00
H169   H     0.71225   0.53603   0.61380   0.00000  Uiso   1.00
H170   H     0.61285   0.55733   0.71236   0.00000  Uiso   1.00
H171   H     0.62367   0.58781   0.52496   0.00000  Uiso   1.00
H172   H     0.89169   0.41037   0.60368   0.00000  Uiso   1.00
H173   H     0.51605   0.66391   0.82219   0.00000  Uiso   1.00
H174   H     0.53890   0.72815   0.42703   0.00000  Uiso   1.00
H175   H     0.10408   0.35399   0.59303   0.00000  Uiso   1.00
O176   O     0.49687   0.96308   0.88897   0.00000  Uiso   1.00
O177   O     0.52686   0.04735   0.37054   0.00000  Uiso   1.00
O178   O     0.26836   0.55647   0.58833   0.00000  Uiso   1.00
N179   N     0.59755   0.07941   0.81153   0.00000  Uiso   1.00
N180   N     0.61890   0.13948   0.44209   0.00000  Uiso   1.00
N181   N     0.14730   0.78967   0.59727   0.00000  Uiso   1.00
N182   N     0.54981   0.78495   0.80952   0.00000  Uiso   1.00
N183   N     0.57116   0.84502   0.44007   0.00000  Uiso   1.00
N184   N     0.09956   0.49522   0.59525   0.00000  Uiso   1.00
