data_job_03226
_audit_creation_date              2018-12-19
_audit_creation_method            'Materials Studio'
_symmetry_space_group_name_H-M    'P1'
_symmetry_Int_Tables_number       1
_symmetry_cell_setting            triclinic
loop_
_symmetry_equiv_pos_as_xyz
  x,y,z
_cell_length_a                    16.5985
_cell_length_b                    12.1300
_cell_length_c                    32.7641
_cell_angle_alpha                 90.0000
_cell_angle_beta                  127.6500
_cell_angle_gamma                 90.0000
loop_
_atom_site_label
_atom_site_type_symbol
_atom_site_fract_x
_atom_site_fract_y
_atom_site_fract_z
_atom_site_U_iso_or_equiv
_atom_site_adp_type
_atom_site_occupancy
C1     C     0.51013   0.44128   0.42056   0.00000  Uiso   1.00
C2     C     0.44918   0.54486   0.39180   0.00000  Uiso   1.00
C3     C     0.38705   0.60185   0.39955   0.00000  Uiso   1.00
C4     C     0.33776   0.69469   0.36935   0.00000  Uiso   1.00
C5     C     0.24119   0.85025   0.33025   0.00000  Uiso   1.00
C6     C     0.47643   0.35440   0.37933   0.00000  Uiso   1.00
C7     C     0.43723   0.25124   0.37660   0.00000  Uiso   1.00
C8     C     0.41090   0.18373   0.33590   0.00000  Uiso   1.00
C9     C     0.35671   0.04355   0.27745   0.00000  Uiso   1.00
C10    C     0.62049   0.46811   0.44434   0.00000  Uiso   1.00
C11    C     0.70243   0.46054   0.49627   0.00000  Uiso   1.00
C12    C     0.79739   0.48875   0.51030   0.00000  Uiso   1.00
C13    C     0.96688   0.52513   0.55279   0.00000  Uiso   1.00
C14    C     0.53309   0.50481   0.35313   0.00000  Uiso   1.00
C15    C     0.46165   0.57937   0.35518   0.00000  Uiso   1.00
C16    C     0.41245   0.67215   0.32496   0.00000  Uiso   1.00
C17    C     0.35026   0.72926   0.33266   0.00000  Uiso   1.00
C18    C     0.48890   0.38890   0.34270   0.00000  Uiso   1.00
C19    C     0.46263   0.32153   0.30200   0.00000  Uiso   1.00
C20    C     0.42339   0.21830   0.29921   0.00000  Uiso   1.00
C21    C     0.63297   0.50262   0.40771   0.00000  Uiso   1.00
C22    C     0.72783   0.53084   0.42167   0.00000  Uiso   1.00
C23    C     0.80989   0.52332   0.47361   0.00000  Uiso   1.00
H24    H     0.50041   0.41441   0.44907   0.00000  Uiso   1.00
H25    H     0.37741   0.57511   0.42789   0.00000  Uiso   1.00
H26    H     0.42760   0.22455   0.40494   0.00000  Uiso   1.00
H27    H     0.69275   0.43383   0.52459   0.00000  Uiso   1.00
H28    H     0.24651   0.76848   0.38826   0.00000  Uiso   1.00
H29    H     0.35236   0.02929   0.33988   0.00000  Uiso   1.00
H30    H     0.91148   0.47059   0.59218   0.00000  Uiso   1.00
H31    H     0.54280   0.53168   0.32462   0.00000  Uiso   1.00
H32    H     0.42212   0.69883   0.29662   0.00000  Uiso   1.00
H33    H     0.47230   0.34826   0.27367   0.00000  Uiso   1.00
H34    H     0.73745   0.55754   0.39332   0.00000  Uiso   1.00
H35    H     0.28279   0.86889   0.28171   0.00000  Uiso   1.00
H36    H     0.38864   0.12969   0.23333   0.00000  Uiso   1.00
H37    H     0.94776   0.57100   0.48563   0.00000  Uiso   1.00
O38    O     0.18447   0.92651   0.31879   0.00000  Uiso   1.00
O39    O     0.32336   0.95670   0.25533   0.00000  Uiso   1.00
O40    O     0.05691   0.53568   0.58635   0.00000  Uiso   1.00
N41    N     0.27162   0.76919   0.36703   0.00000  Uiso   1.00
N42    N     0.37057   0.07809   0.32179   0.00000  Uiso   1.00
N43    N     0.89331   0.49064   0.55768   0.00000  Uiso   1.00
N44    N     0.29115   0.82322   0.30970   0.00000  Uiso   1.00
N45    N     0.39009   0.13212   0.26446   0.00000  Uiso   1.00
N46    N     0.91283   0.54467   0.50034   0.00000  Uiso   1.00
C47    C     0.01013   0.94128   0.42056   0.00000  Uiso   1.00
C48    C     0.94918   0.04486   0.39180   0.00000  Uiso   1.00
C49    C     0.88705   0.10185   0.39955   0.00000  Uiso   1.00
C50    C     0.83776   0.19469   0.36935   0.00000  Uiso   1.00
C51    C     0.74119   0.35025   0.33025   0.00000  Uiso   1.00
C52    C     0.97643   0.85440   0.37933   0.00000  Uiso   1.00
C53    C     0.93723   0.75124   0.37660   0.00000  Uiso   1.00
C54    C     0.91090   0.68373   0.33590   0.00000  Uiso   1.00
C55    C     0.85671   0.54355   0.27745   0.00000  Uiso   1.00
C56    C     0.12049   0.96811   0.44434   0.00000  Uiso   1.00
C57    C     0.20243   0.96054   0.49627   0.00000  Uiso   1.00
C58    C     0.29739   0.98875   0.51030   0.00000  Uiso   1.00
C59    C     0.46688   0.02513   0.55279   0.00000  Uiso   1.00
C60    C     0.03309   0.00481   0.35313   0.00000  Uiso   1.00
C61    C     0.96165   0.07937   0.35518   0.00000  Uiso   1.00
C62    C     0.91245   0.17215   0.32496   0.00000  Uiso   1.00
C63    C     0.85026   0.22926   0.33266   0.00000  Uiso   1.00
C64    C     0.98890   0.88890   0.34270   0.00000  Uiso   1.00
C65    C     0.96263   0.82153   0.30200   0.00000  Uiso   1.00
C66    C     0.92339   0.71830   0.29921   0.00000  Uiso   1.00
C67    C     0.13297   0.00262   0.40771   0.00000  Uiso   1.00
C68    C     0.22783   0.03084   0.42167   0.00000  Uiso   1.00
C69    C     0.30989   0.02332   0.47361   0.00000  Uiso   1.00
H70    H     0.00041   0.91441   0.44907   0.00000  Uiso   1.00
H71    H     0.87741   0.07511   0.42789   0.00000  Uiso   1.00
H72    H     0.92760   0.72455   0.40494   0.00000  Uiso   1.00
H73    H     0.19275   0.93383   0.52459   0.00000  Uiso   1.00
H74    H     0.74651   0.26848   0.38826   0.00000  Uiso   1.00
H75    H     0.85236   0.52929   0.33988   0.00000  Uiso   1.00
H76    H     0.41148   0.97059   0.59218   0.00000  Uiso   1.00
H77    H     0.04280   0.03168   0.32462   0.00000  Uiso   1.00
H78    H     0.92212   0.19883   0.29662   0.00000  Uiso   1.00
H79    H     0.97230   0.84826   0.27367   0.00000  Uiso   1.00
H80    H     0.23745   0.05754   0.39332   0.00000  Uiso   1.00
H81    H     0.78279   0.36889   0.28171   0.00000  Uiso   1.00
H82    H     0.88864   0.62969   0.23333   0.00000  Uiso   1.00
H83    H     0.44776   0.07100   0.48563   0.00000  Uiso   1.00
O84    O     0.68447   0.42651   0.31879   0.00000  Uiso   1.00
O85    O     0.82336   0.45670   0.25533   0.00000  Uiso   1.00
O86    O     0.55691   0.03568   0.58635   0.00000  Uiso   1.00
N87    N     0.77162   0.26919   0.36703   0.00000  Uiso   1.00
N88    N     0.87057   0.57809   0.32179   0.00000  Uiso   1.00
N89    N     0.39331   0.99064   0.55768   0.00000  Uiso   1.00
N90    N     0.79115   0.32322   0.30970   0.00000  Uiso   1.00
N91    N     0.89009   0.63212   0.26446   0.00000  Uiso   1.00
N92    N     0.41283   0.04467   0.50034   0.00000  Uiso   1.00
C93    C     0.48987   0.44128   0.07944   0.00000  Uiso   1.00
C94    C     0.55082   0.54486   0.10820   0.00000  Uiso   1.00
C95    C     0.61295   0.60185   0.10045   0.00000  Uiso   1.00
C96    C     0.66224   0.69469   0.13065   0.00000  Uiso   1.00
C97    C     0.75881   0.85025   0.16975   0.00000  Uiso   1.00
C98    C     0.52357   0.35440   0.12067   0.00000  Uiso   1.00
C99    C     0.56277   0.25124   0.12340   0.00000  Uiso   1.00
C100   C     0.58910   0.18373   0.16410   0.00000  Uiso   1.00
C101   C     0.64329   0.04355   0.22255   0.00000  Uiso   1.00
C102   C     0.37951   0.46811   0.05566   0.00000  Uiso   1.00
C103   C     0.29757   0.46054   0.00373   0.00000  Uiso   1.00
C104   C     0.20261   0.48875   0.98970   0.00000  Uiso   1.00
C105   C     0.03312   0.52513   0.94721   0.00000  Uiso   1.00
C106   C     0.46691   0.50481   0.14687   0.00000  Uiso   1.00
C107   C     0.53835   0.57937   0.14482   0.00000  Uiso   1.00
C108   C     0.58755   0.67215   0.17504   0.00000  Uiso   1.00
C109   C     0.64974   0.72926   0.16734   0.00000  Uiso   1.00
C110   C     0.51110   0.38890   0.15730   0.00000  Uiso   1.00
C111   C     0.53737   0.32153   0.19800   0.00000  Uiso   1.00
C112   C     0.57661   0.21830   0.20079   0.00000  Uiso   1.00
C113   C     0.36703   0.50262   0.09229   0.00000  Uiso   1.00
C114   C     0.27217   0.53084   0.07833   0.00000  Uiso   1.00
C115   C     0.19011   0.52332   0.02639   0.00000  Uiso   1.00
H116   H     0.49959   0.41441   0.05093   0.00000  Uiso   1.00
H117   H     0.62259   0.57511   0.07211   0.00000  Uiso   1.00
H118   H     0.57240   0.22455   0.09506   0.00000  Uiso   1.00
H119   H     0.30725   0.43383   0.97541   0.00000  Uiso   1.00
H120   H     0.75349   0.76848   0.11174   0.00000  Uiso   1.00
H121   H     0.64764   0.02929   0.16012   0.00000  Uiso   1.00
H122   H     0.08852   0.47059   0.90782   0.00000  Uiso   1.00
H123   H     0.45720   0.53168   0.17538   0.00000  Uiso   1.00
H124   H     0.57788   0.69883   0.20338   0.00000  Uiso   1.00
H125   H     0.52770   0.34826   0.22633   0.00000  Uiso   1.00
H126   H     0.26255   0.55754   0.10668   0.00000  Uiso   1.00
H127   H     0.71721   0.86889   0.21829   0.00000  Uiso   1.00
H128   H     0.61136   0.12969   0.26667   0.00000  Uiso   1.00
H129   H     0.05224   0.57100   0.01437   0.00000  Uiso   1.00
O130   O     0.81553   0.92651   0.18121   0.00000  Uiso   1.00
O131   O     0.67664   0.95670   0.24467   0.00000  Uiso   1.00
O132   O     0.94309   0.53568   0.91365   0.00000  Uiso   1.00
N133   N     0.72838   0.76919   0.13297   0.00000  Uiso   1.00
N134   N     0.62943   0.07809   0.17821   0.00000  Uiso   1.00
N135   N     0.10669   0.49064   0.94232   0.00000  Uiso   1.00
N136   N     0.70885   0.82322   0.19030   0.00000  Uiso   1.00
N137   N     0.60991   0.13212   0.23554   0.00000  Uiso   1.00
N138   N     0.08717   0.54467   0.99966   0.00000  Uiso   1.00
C139   C     0.98987   0.94128   0.07944   0.00000  Uiso   1.00
C140   C     0.05082   0.04486   0.10820   0.00000  Uiso   1.00
C141   C     0.11295   0.10185   0.10045   0.00000  Uiso   1.00
C142   C     0.16224   0.19469   0.13065   0.00000  Uiso   1.00
C143   C     0.25881   0.35025   0.16975   0.00000  Uiso   1.00
C144   C     0.02357   0.85440   0.12067   0.00000  Uiso   1.00
C145   C     0.06277   0.75124   0.12340   0.00000  Uiso   1.00
C146   C     0.08910   0.68373   0.16410   0.00000  Uiso   1.00
C147   C     0.14329   0.54355   0.22255   0.00000  Uiso   1.00
C148   C     0.87951   0.96811   0.05566   0.00000  Uiso   1.00
C149   C     0.79757   0.96054   0.00373   0.00000  Uiso   1.00
C150   C     0.70261   0.98875   0.98970   0.00000  Uiso   1.00
C151   C     0.53312   0.02513   0.94721   0.00000  Uiso   1.00
C152   C     0.96691   0.00481   0.14687   0.00000  Uiso   1.00
C153   C     0.03835   0.07937   0.14482   0.00000  Uiso   1.00
C154   C     0.08755   0.17215   0.17504   0.00000  Uiso   1.00
C155   C     0.14974   0.22926   0.16734   0.00000  Uiso   1.00
C156   C     0.01110   0.88890   0.15730   0.00000  Uiso   1.00
C157   C     0.03737   0.82153   0.19800   0.00000  Uiso   1.00
C158   C     0.07661   0.71830   0.20079   0.00000  Uiso   1.00
C159   C     0.86703   0.00262   0.09229   0.00000  Uiso   1.00
C160   C     0.77217   0.03084   0.07833   0.00000  Uiso   1.00
C161   C     0.69011   0.02332   0.02639   0.00000  Uiso   1.00
H162   H     0.99959   0.91441   0.05093   0.00000  Uiso   1.00
H163   H     0.12259   0.07511   0.07211   0.00000  Uiso   1.00
H164   H     0.07240   0.72455   0.09506   0.00000  Uiso   1.00
H165   H     0.80725   0.93383   0.97541   0.00000  Uiso   1.00
H166   H     0.25349   0.26848   0.11174   0.00000  Uiso   1.00
H167   H     0.14764   0.52929   0.16012   0.00000  Uiso   1.00
H168   H     0.58852   0.97059   0.90782   0.00000  Uiso   1.00
H169   H     0.95720   0.03168   0.17538   0.00000  Uiso   1.00
H170   H     0.07788   0.19883   0.20338   0.00000  Uiso   1.00
H171   H     0.02770   0.84826   0.22633   0.00000  Uiso   1.00
H172   H     0.76255   0.05754   0.10668   0.00000  Uiso   1.00
H173   H     0.21721   0.36889   0.21829   0.00000  Uiso   1.00
H174   H     0.11136   0.62969   0.26667   0.00000  Uiso   1.00
H175   H     0.55224   0.07100   0.01437   0.00000  Uiso   1.00
O176   O     0.31553   0.42651   0.18121   0.00000  Uiso   1.00
O177   O     0.17664   0.45670   0.24467   0.00000  Uiso   1.00
O178   O     0.44309   0.03568   0.91365   0.00000  Uiso   1.00
N179   N     0.22838   0.26919   0.13297   0.00000  Uiso   1.00
N180   N     0.12943   0.57809   0.17821   0.00000  Uiso   1.00
N181   N     0.60669   0.99064   0.94232   0.00000  Uiso   1.00
N182   N     0.20885   0.32322   0.19030   0.00000  Uiso   1.00
N183   N     0.10991   0.63212   0.23554   0.00000  Uiso   1.00
N184   N     0.58717   0.04467   0.99966   0.00000  Uiso   1.00
C185   C     0.48987   0.55872   0.57944   0.00000  Uiso   1.00
C186   C     0.55082   0.45514   0.60820   0.00000  Uiso   1.00
C187   C     0.61295   0.39815   0.60045   0.00000  Uiso   1.00
C188   C     0.66224   0.30531   0.63065   0.00000  Uiso   1.00
C189   C     0.75881   0.14975   0.66975   0.00000  Uiso   1.00
C190   C     0.52357   0.64560   0.62067   0.00000  Uiso   1.00
C191   C     0.56277   0.74876   0.62340   0.00000  Uiso   1.00
C192   C     0.58910   0.81627   0.66410   0.00000  Uiso   1.00
C193   C     0.64329   0.95645   0.72255   0.00000  Uiso   1.00
C194   C     0.37951   0.53189   0.55566   0.00000  Uiso   1.00
C195   C     0.29757   0.53946   0.50373   0.00000  Uiso   1.00
C196   C     0.20261   0.51125   0.48970   0.00000  Uiso   1.00
C197   C     0.03312   0.47487   0.44721   0.00000  Uiso   1.00
C198   C     0.46691   0.49519   0.64687   0.00000  Uiso   1.00
C199   C     0.53835   0.42063   0.64482   0.00000  Uiso   1.00
C200   C     0.58755   0.32785   0.67504   0.00000  Uiso   1.00
C201   C     0.64974   0.27074   0.66734   0.00000  Uiso   1.00
C202   C     0.51110   0.61110   0.65730   0.00000  Uiso   1.00
C203   C     0.53737   0.67847   0.69800   0.00000  Uiso   1.00
C204   C     0.57661   0.78170   0.70079   0.00000  Uiso   1.00
C205   C     0.36703   0.49738   0.59229   0.00000  Uiso   1.00
C206   C     0.27217   0.46916   0.57833   0.00000  Uiso   1.00
C207   C     0.19011   0.47668   0.52639   0.00000  Uiso   1.00
H208   H     0.49959   0.58559   0.55093   0.00000  Uiso   1.00
H209   H     0.62259   0.42489   0.57211   0.00000  Uiso   1.00
H210   H     0.57240   0.77545   0.59506   0.00000  Uiso   1.00
H211   H     0.30725   0.56617   0.47541   0.00000  Uiso   1.00
H212   H     0.75349   0.23152   0.61174   0.00000  Uiso   1.00
H213   H     0.64764   0.97071   0.66012   0.00000  Uiso   1.00
H214   H     0.08852   0.52941   0.40782   0.00000  Uiso   1.00
H215   H     0.45720   0.46832   0.67538   0.00000  Uiso   1.00
H216   H     0.57788   0.30117   0.70338   0.00000  Uiso   1.00
H217   H     0.52770   0.65174   0.72633   0.00000  Uiso   1.00
H218   H     0.26255   0.44246   0.60668   0.00000  Uiso   1.00
H219   H     0.71721   0.13111   0.71829   0.00000  Uiso   1.00
H220   H     0.61136   0.87031   0.76667   0.00000  Uiso   1.00
H221   H     0.05224   0.42900   0.51437   0.00000  Uiso   1.00
O222   O     0.81553   0.07349   0.68121   0.00000  Uiso   1.00
O223   O     0.67664   0.04330   0.74467   0.00000  Uiso   1.00
O224   O     0.94309   0.46432   0.41365   0.00000  Uiso   1.00
N225   N     0.72838   0.23081   0.63297   0.00000  Uiso   1.00
N226   N     0.62943   0.92191   0.67821   0.00000  Uiso   1.00
N227   N     0.10669   0.50936   0.44232   0.00000  Uiso   1.00
N228   N     0.70885   0.17678   0.69030   0.00000  Uiso   1.00
N229   N     0.60991   0.86788   0.73554   0.00000  Uiso   1.00
N230   N     0.08717   0.45533   0.49966   0.00000  Uiso   1.00
C231   C     0.98987   0.05872   0.57944   0.00000  Uiso   1.00
C232   C     0.05082   0.95514   0.60820   0.00000  Uiso   1.00
C233   C     0.11295   0.89815   0.60045   0.00000  Uiso   1.00
C234   C     0.16224   0.80531   0.63065   0.00000  Uiso   1.00
C235   C     0.25881   0.64975   0.66975   0.00000  Uiso   1.00
C236   C     0.02357   0.14560   0.62067   0.00000  Uiso   1.00
C237   C     0.06277   0.24876   0.62340   0.00000  Uiso   1.00
C238   C     0.08910   0.31627   0.66410   0.00000  Uiso   1.00
C239   C     0.14329   0.45645   0.72255   0.00000  Uiso   1.00
C240   C     0.87951   0.03189   0.55566   0.00000  Uiso   1.00
C241   C     0.79757   0.03946   0.50373   0.00000  Uiso   1.00
C242   C     0.70261   0.01125   0.48970   0.00000  Uiso   1.00
C243   C     0.53312   0.97487   0.44721   0.00000  Uiso   1.00
C244   C     0.96691   0.99519   0.64687   0.00000  Uiso   1.00
C245   C     0.03835   0.92063   0.64482   0.00000  Uiso   1.00
C246   C     0.08755   0.82785   0.67504   0.00000  Uiso   1.00
C247   C     0.14974   0.77074   0.66734   0.00000  Uiso   1.00
C248   C     0.01110   0.11110   0.65730   0.00000  Uiso   1.00
C249   C     0.03737   0.17847   0.69800   0.00000  Uiso   1.00
C250   C     0.07661   0.28170   0.70079   0.00000  Uiso   1.00
C251   C     0.86703   0.99738   0.59229   0.00000  Uiso   1.00
C252   C     0.77217   0.96916   0.57833   0.00000  Uiso   1.00
C253   C     0.69011   0.97668   0.52639   0.00000  Uiso   1.00
H254   H     0.99959   0.08559   0.55093   0.00000  Uiso   1.00
H255   H     0.12259   0.92489   0.57211   0.00000  Uiso   1.00
H256   H     0.07240   0.27545   0.59506   0.00000  Uiso   1.00
H257   H     0.80725   0.06617   0.47541   0.00000  Uiso   1.00
H258   H     0.25349   0.73152   0.61174   0.00000  Uiso   1.00
H259   H     0.14764   0.47071   0.66012   0.00000  Uiso   1.00
H260   H     0.58852   0.02941   0.40782   0.00000  Uiso   1.00
H261   H     0.95720   0.96832   0.67538   0.00000  Uiso   1.00
H262   H     0.07788   0.80117   0.70338   0.00000  Uiso   1.00
H263   H     0.02770   0.15174   0.72633   0.00000  Uiso   1.00
H264   H     0.76255   0.94246   0.60668   0.00000  Uiso   1.00
H265   H     0.21721   0.63111   0.71829   0.00000  Uiso   1.00
H266   H     0.11136   0.37031   0.76667   0.00000  Uiso   1.00
H267   H     0.55224   0.92900   0.51437   0.00000  Uiso   1.00
O268   O     0.31553   0.57349   0.68121   0.00000  Uiso   1.00
O269   O     0.17664   0.54330   0.74467   0.00000  Uiso   1.00
O270   O     0.44309   0.96432   0.41365   0.00000  Uiso   1.00
N271   N     0.22838   0.73081   0.63297   0.00000  Uiso   1.00
N272   N     0.12943   0.42191   0.67821   0.00000  Uiso   1.00
N273   N     0.60669   0.00936   0.44232   0.00000  Uiso   1.00
N274   N     0.20885   0.67678   0.69030   0.00000  Uiso   1.00
N275   N     0.10991   0.36788   0.73554   0.00000  Uiso   1.00
N276   N     0.58717   0.95533   0.49966   0.00000  Uiso   1.00
C277   C     0.51013   0.55872   0.92056   0.00000  Uiso   1.00
C278   C     0.44918   0.45514   0.89180   0.00000  Uiso   1.00
C279   C     0.38705   0.39815   0.89955   0.00000  Uiso   1.00
C280   C     0.33776   0.30531   0.86935   0.00000  Uiso   1.00
C281   C     0.24119   0.14975   0.83025   0.00000  Uiso   1.00
C282   C     0.47643   0.64560   0.87933   0.00000  Uiso   1.00
C283   C     0.43723   0.74876   0.87660   0.00000  Uiso   1.00
C284   C     0.41090   0.81627   0.83590   0.00000  Uiso   1.00
C285   C     0.35671   0.95645   0.77745   0.00000  Uiso   1.00
C286   C     0.62049   0.53189   0.94434   0.00000  Uiso   1.00
C287   C     0.70243   0.53946   0.99627   0.00000  Uiso   1.00
C288   C     0.79739   0.51125   0.01030   0.00000  Uiso   1.00
C289   C     0.96688   0.47487   0.05279   0.00000  Uiso   1.00
C290   C     0.53309   0.49519   0.85313   0.00000  Uiso   1.00
C291   C     0.46165   0.42063   0.85518   0.00000  Uiso   1.00
C292   C     0.41245   0.32785   0.82496   0.00000  Uiso   1.00
C293   C     0.35026   0.27074   0.83266   0.00000  Uiso   1.00
C294   C     0.48890   0.61110   0.84270   0.00000  Uiso   1.00
C295   C     0.46263   0.67847   0.80200   0.00000  Uiso   1.00
C296   C     0.42339   0.78170   0.79921   0.00000  Uiso   1.00
C297   C     0.63297   0.49738   0.90771   0.00000  Uiso   1.00
C298   C     0.72783   0.46916   0.92167   0.00000  Uiso   1.00
C299   C     0.80989   0.47668   0.97361   0.00000  Uiso   1.00
H300   H     0.50041   0.58559   0.94907   0.00000  Uiso   1.00
H301   H     0.37741   0.42489   0.92789   0.00000  Uiso   1.00
H302   H     0.42760   0.77545   0.90494   0.00000  Uiso   1.00
H303   H     0.69275   0.56617   0.02459   0.00000  Uiso   1.00
H304   H     0.24651   0.23152   0.88826   0.00000  Uiso   1.00
H305   H     0.35236   0.97071   0.83988   0.00000  Uiso   1.00
H306   H     0.91148   0.52941   0.09218   0.00000  Uiso   1.00
H307   H     0.54280   0.46832   0.82462   0.00000  Uiso   1.00
H308   H     0.42212   0.30117   0.79662   0.00000  Uiso   1.00
H309   H     0.47230   0.65174   0.77367   0.00000  Uiso   1.00
H310   H     0.73745   0.44246   0.89332   0.00000  Uiso   1.00
H311   H     0.28279   0.13111   0.78171   0.00000  Uiso   1.00
H312   H     0.38864   0.87031   0.73333   0.00000  Uiso   1.00
H313   H     0.94776   0.42900   0.98563   0.00000  Uiso   1.00
O314   O     0.18447   0.07349   0.81879   0.00000  Uiso   1.00
O315   O     0.32336   0.04330   0.75533   0.00000  Uiso   1.00
O316   O     0.05691   0.46432   0.08635   0.00000  Uiso   1.00
N317   N     0.27162   0.23081   0.86703   0.00000  Uiso   1.00
N318   N     0.37057   0.92191   0.82179   0.00000  Uiso   1.00
N319   N     0.89331   0.50936   0.05768   0.00000  Uiso   1.00
N320   N     0.29115   0.17678   0.80970   0.00000  Uiso   1.00
N321   N     0.39009   0.86788   0.76446   0.00000  Uiso   1.00
N322   N     0.91283   0.45533   0.00034   0.00000  Uiso   1.00
C323   C     0.01013   0.05872   0.92056   0.00000  Uiso   1.00
C324   C     0.94918   0.95514   0.89180   0.00000  Uiso   1.00
C325   C     0.88705   0.89815   0.89955   0.00000  Uiso   1.00
C326   C     0.83776   0.80531   0.86935   0.00000  Uiso   1.00
C327   C     0.74119   0.64975   0.83025   0.00000  Uiso   1.00
C328   C     0.97643   0.14560   0.87933   0.00000  Uiso   1.00
C329   C     0.93723   0.24876   0.87660   0.00000  Uiso   1.00
C330   C     0.91090   0.31627   0.83590   0.00000  Uiso   1.00
C331   C     0.85671   0.45645   0.77745   0.00000  Uiso   1.00
C332   C     0.12049   0.03189   0.94434   0.00000  Uiso   1.00
C333   C     0.20243   0.03946   0.99627   0.00000  Uiso   1.00
C334   C     0.29739   0.01125   0.01030   0.00000  Uiso   1.00
C335   C     0.46688   0.97487   0.05279   0.00000  Uiso   1.00
C336   C     0.03309   0.99519   0.85313   0.00000  Uiso   1.00
C337   C     0.96165   0.92063   0.85518   0.00000  Uiso   1.00
C338   C     0.91245   0.82785   0.82496   0.00000  Uiso   1.00
C339   C     0.85026   0.77074   0.83266   0.00000  Uiso   1.00
C340   C     0.98890   0.11110   0.84270   0.00000  Uiso   1.00
C341   C     0.96263   0.17847   0.80200   0.00000  Uiso   1.00
C342   C     0.92339   0.28170   0.79921   0.00000  Uiso   1.00
C343   C     0.13297   0.99738   0.90771   0.00000  Uiso   1.00
C344   C     0.22783   0.96916   0.92167   0.00000  Uiso   1.00
C345   C     0.30989   0.97668   0.97361   0.00000  Uiso   1.00
H346   H     0.00041   0.08559   0.94907   0.00000  Uiso   1.00
H347   H     0.87741   0.92489   0.92789   0.00000  Uiso   1.00
H348   H     0.92760   0.27545   0.90494   0.00000  Uiso   1.00
H349   H     0.19275   0.06617   0.02459   0.00000  Uiso   1.00
H350   H     0.74651   0.73152   0.88826   0.00000  Uiso   1.00
H351   H     0.85236   0.47071   0.83988   0.00000  Uiso   1.00
H352   H     0.41148   0.02941   0.09218   0.00000  Uiso   1.00
H353   H     0.04280   0.96832   0.82462   0.00000  Uiso   1.00
H354   H     0.92212   0.80117   0.79662   0.00000  Uiso   1.00
H355   H     0.97230   0.15174   0.77367   0.00000  Uiso   1.00
H356   H     0.23745   0.94246   0.89332   0.00000  Uiso   1.00
H357   H     0.78279   0.63111   0.78171   0.00000  Uiso   1.00
H358   H     0.88864   0.37031   0.73333   0.00000  Uiso   1.00
H359   H     0.44776   0.92900   0.98563   0.00000  Uiso   1.00
O360   O     0.68447   0.57349   0.81879   0.00000  Uiso   1.00
O361   O     0.82336   0.54330   0.75533   0.00000  Uiso   1.00
O362   O     0.55691   0.96432   0.08635   0.00000  Uiso   1.00
N363   N     0.77162   0.73081   0.86703   0.00000  Uiso   1.00
N364   N     0.87057   0.42191   0.82179   0.00000  Uiso   1.00
N365   N     0.39331   0.00936   0.05768   0.00000  Uiso   1.00
N366   N     0.79115   0.67678   0.80970   0.00000  Uiso   1.00
N367   N     0.89009   0.36788   0.76446   0.00000  Uiso   1.00
N368   N     0.41283   0.95533   0.00034   0.00000  Uiso   1.00
