data_job_01437
_audit_creation_date              2018-12-19
_audit_creation_method            'Materials Studio'
_symmetry_space_group_name_H-M    'P1'
_symmetry_Int_Tables_number       1
_symmetry_cell_setting            triclinic
loop_
_symmetry_equiv_pos_as_xyz
  x,y,z
_cell_length_a                    16.3977
_cell_length_b                    13.2817
_cell_length_c                    23.3026
_cell_angle_alpha                 90.0000
_cell_angle_beta                  90.0000
_cell_angle_gamma                 90.0000
loop_
_atom_site_label
_atom_site_type_symbol
_atom_site_fract_x
_atom_site_fract_y
_atom_site_fract_z
_atom_site_U_iso_or_equiv
_atom_site_adp_type
_atom_site_occupancy
C1     C     0.74084   0.84057   0.05966   0.00000  Uiso   1.00
C2     C     0.82375   0.89179   0.06478   0.00000  Uiso   1.00
C3     C     0.83721   0.99491   0.06634   0.00000  Uiso   1.00
C4     C     0.91756   0.02676   0.07116   0.00000  Uiso   1.00
C5     C     0.03650   0.11675   0.07861   0.00000  Uiso   1.00
C6     C     0.74608   0.77277   0.00697   0.00000  Uiso   1.00
C7     C     0.69421   0.77583   0.95994   0.00000  Uiso   1.00
C8     C     0.70917   0.70748   0.91610   0.00000  Uiso   1.00
C9     C     0.70747   0.61266   0.83382   0.00000  Uiso   1.00
C10    C     0.73408   0.77027   0.11117   0.00000  Uiso   1.00
C11    C     0.67212   0.77118   0.15174   0.00000  Uiso   1.00
C12    C     0.67697   0.70071   0.19561   0.00000  Uiso   1.00
C13    C     0.65664   0.60200   0.27512   0.00000  Uiso   1.00
C14    C     0.85961   0.71377   0.06543   0.00000  Uiso   1.00
C15    C     0.88826   0.82291   0.06792   0.00000  Uiso   1.00
C16    C     0.96862   0.85461   0.07273   0.00000  Uiso   1.00
C17    C     0.98219   0.95776   0.07430   0.00000  Uiso   1.00
C18    C     0.81058   0.70390   0.01011   0.00000  Uiso   1.00
C19    C     0.82562   0.63553   0.96633   0.00000  Uiso   1.00
C20    C     0.77380   0.63848   0.91924   0.00000  Uiso   1.00
C21    C     0.79859   0.70139   0.11431   0.00000  Uiso   1.00
C22    C     0.80353   0.63089   0.15813   0.00000  Uiso   1.00
C23    C     0.74159   0.63171   0.19876   0.00000  Uiso   1.00
H24    H     0.69061   0.89419   0.05721   0.00000  Uiso   1.00
H25    H     0.78727   0.04818   0.06391   0.00000  Uiso   1.00
H26    H     0.64429   0.82913   0.95753   0.00000  Uiso   1.00
H27    H     0.62221   0.82450   0.14929   0.00000  Uiso   1.00
H28    H     0.92289   0.18854   0.07269   0.00000  Uiso   1.00
H29    H     0.62139   0.72663   0.84839   0.00000  Uiso   1.00
H30    H     0.57481   0.71685   0.25277   0.00000  Uiso   1.00
H31    H     0.90984   0.66014   0.06788   0.00000  Uiso   1.00
H32    H     0.01853   0.80129   0.07516   0.00000  Uiso   1.00
H33    H     0.87555   0.58224   0.96878   0.00000  Uiso   1.00
H34    H     0.85346   0.57761   0.16054   0.00000  Uiso   1.00
H35    H     0.11058   0.98815   0.08182   0.00000  Uiso   1.00
H36    H     0.80908   0.52624   0.85752   0.00000  Uiso   1.00
H37    H     0.76251   0.51647   0.26190   0.00000  Uiso   1.00
O38    O     0.08428   0.18542   0.08184   0.00000  Uiso   1.00
O39    O     0.68872   0.57940   0.78757   0.00000  Uiso   1.00
O40    O     0.62762   0.56658   0.31811   0.00000  Uiso   1.00
N41    N     0.95214   0.12200   0.07386   0.00000  Uiso   1.00
N42    N     0.67027   0.69016   0.86414   0.00000  Uiso   1.00
N43    N     0.62671   0.68100   0.24219   0.00000  Uiso   1.00
N44    N     0.05314   0.01418   0.07877   0.00000  Uiso   1.00
N45    N     0.77127   0.58233   0.86905   0.00000  Uiso   1.00
N46    N     0.72771   0.57318   0.24711   0.00000  Uiso   1.00
C47    C     0.75916   0.15943   0.55966   0.00000  Uiso   1.00
C48    C     0.67625   0.10821   0.56478   0.00000  Uiso   1.00
C49    C     0.66279   0.00509   0.56634   0.00000  Uiso   1.00
C50    C     0.58244   0.97324   0.57116   0.00000  Uiso   1.00
C51    C     0.46350   0.88325   0.57861   0.00000  Uiso   1.00
C52    C     0.75392   0.22723   0.50697   0.00000  Uiso   1.00
C53    C     0.80579   0.22417   0.45994   0.00000  Uiso   1.00
C54    C     0.79083   0.29252   0.41610   0.00000  Uiso   1.00
C55    C     0.79253   0.38734   0.33382   0.00000  Uiso   1.00
C56    C     0.76592   0.22973   0.61117   0.00000  Uiso   1.00
C57    C     0.82788   0.22882   0.65174   0.00000  Uiso   1.00
C58    C     0.82303   0.29929   0.69561   0.00000  Uiso   1.00
C59    C     0.84336   0.39800   0.77512   0.00000  Uiso   1.00
C60    C     0.64039   0.28623   0.56543   0.00000  Uiso   1.00
C61    C     0.61174   0.17709   0.56792   0.00000  Uiso   1.00
C62    C     0.53138   0.14539   0.57273   0.00000  Uiso   1.00
C63    C     0.51781   0.04224   0.57430   0.00000  Uiso   1.00
C64    C     0.68942   0.29610   0.51011   0.00000  Uiso   1.00
C65    C     0.67438   0.36447   0.46633   0.00000  Uiso   1.00
C66    C     0.72620   0.36152   0.41924   0.00000  Uiso   1.00
C67    C     0.70141   0.29861   0.61431   0.00000  Uiso   1.00
C68    C     0.69647   0.36911   0.65813   0.00000  Uiso   1.00
C69    C     0.75841   0.36829   0.69876   0.00000  Uiso   1.00
H70    H     0.80939   0.10581   0.55721   0.00000  Uiso   1.00
H71    H     0.71273   0.95182   0.56391   0.00000  Uiso   1.00
H72    H     0.85571   0.17087   0.45753   0.00000  Uiso   1.00
H73    H     0.87779   0.17550   0.64929   0.00000  Uiso   1.00
H74    H     0.57711   0.81146   0.57269   0.00000  Uiso   1.00
H75    H     0.87861   0.27337   0.34839   0.00000  Uiso   1.00
H76    H     0.92519   0.28315   0.75277   0.00000  Uiso   1.00
H77    H     0.59016   0.33986   0.56788   0.00000  Uiso   1.00
H78    H     0.48147   0.19871   0.57516   0.00000  Uiso   1.00
H79    H     0.62445   0.41776   0.46878   0.00000  Uiso   1.00
H80    H     0.64654   0.42239   0.66054   0.00000  Uiso   1.00
H81    H     0.38942   0.01185   0.58182   0.00000  Uiso   1.00
H82    H     0.69092   0.47376   0.35752   0.00000  Uiso   1.00
H83    H     0.73749   0.48353   0.76190   0.00000  Uiso   1.00
O84    O     0.41572   0.81458   0.58184   0.00000  Uiso   1.00
O85    O     0.81128   0.42060   0.28757   0.00000  Uiso   1.00
O86    O     0.87238   0.43342   0.81811   0.00000  Uiso   1.00
N87    N     0.54786   0.87800   0.57386   0.00000  Uiso   1.00
N88    N     0.82973   0.30984   0.36414   0.00000  Uiso   1.00
N89    N     0.87329   0.31900   0.74219   0.00000  Uiso   1.00
N90    N     0.44686   0.98582   0.57877   0.00000  Uiso   1.00
N91    N     0.72873   0.41767   0.36905   0.00000  Uiso   1.00
N92    N     0.77229   0.42682   0.74711   0.00000  Uiso   1.00
C93    C     0.25916   0.34057   0.44034   0.00000  Uiso   1.00
C94    C     0.17625   0.39179   0.43522   0.00000  Uiso   1.00
C95    C     0.16279   0.49491   0.43366   0.00000  Uiso   1.00
C96    C     0.08244   0.52676   0.42884   0.00000  Uiso   1.00
C97    C     0.96350   0.61675   0.42139   0.00000  Uiso   1.00
C98    C     0.25392   0.27277   0.49303   0.00000  Uiso   1.00
C99    C     0.30579   0.27583   0.54006   0.00000  Uiso   1.00
C100   C     0.29083   0.20748   0.58390   0.00000  Uiso   1.00
C101   C     0.29253   0.11266   0.66618   0.00000  Uiso   1.00
C102   C     0.26592   0.27027   0.38883   0.00000  Uiso   1.00
C103   C     0.32788   0.27118   0.34826   0.00000  Uiso   1.00
C104   C     0.32303   0.20071   0.30439   0.00000  Uiso   1.00
C105   C     0.34336   0.10200   0.22488   0.00000  Uiso   1.00
C106   C     0.14039   0.21377   0.43457   0.00000  Uiso   1.00
C107   C     0.11174   0.32291   0.43208   0.00000  Uiso   1.00
C108   C     0.03138   0.35461   0.42727   0.00000  Uiso   1.00
C109   C     0.01781   0.45776   0.42570   0.00000  Uiso   1.00
C110   C     0.18942   0.20390   0.48989   0.00000  Uiso   1.00
C111   C     0.17438   0.13553   0.53367   0.00000  Uiso   1.00
C112   C     0.22620   0.13848   0.58076   0.00000  Uiso   1.00
C113   C     0.20141   0.20139   0.38569   0.00000  Uiso   1.00
C114   C     0.19647   0.13089   0.34187   0.00000  Uiso   1.00
C115   C     0.25841   0.13171   0.30124   0.00000  Uiso   1.00
H116   H     0.30939   0.39419   0.44279   0.00000  Uiso   1.00
H117   H     0.21273   0.54818   0.43609   0.00000  Uiso   1.00
H118   H     0.35571   0.32913   0.54247   0.00000  Uiso   1.00
H119   H     0.37779   0.32450   0.35071   0.00000  Uiso   1.00
H120   H     0.07711   0.68854   0.42731   0.00000  Uiso   1.00
H121   H     0.37861   0.22663   0.65161   0.00000  Uiso   1.00
H122   H     0.42519   0.21685   0.24723   0.00000  Uiso   1.00
H123   H     0.09016   0.16014   0.43212   0.00000  Uiso   1.00
H124   H     0.98147   0.30129   0.42484   0.00000  Uiso   1.00
H125   H     0.12445   0.08224   0.53122   0.00000  Uiso   1.00
H126   H     0.14654   0.07761   0.33946   0.00000  Uiso   1.00
H127   H     0.88942   0.48815   0.41818   0.00000  Uiso   1.00
H128   H     0.19092   0.02624   0.64248   0.00000  Uiso   1.00
H129   H     0.23749   0.01647   0.23810   0.00000  Uiso   1.00
O130   O     0.91572   0.68542   0.41816   0.00000  Uiso   1.00
O131   O     0.31128   0.07940   0.71243   0.00000  Uiso   1.00
O132   O     0.37238   0.06658   0.18189   0.00000  Uiso   1.00
N133   N     0.04786   0.62200   0.42614   0.00000  Uiso   1.00
N134   N     0.32973   0.19016   0.63586   0.00000  Uiso   1.00
N135   N     0.37329   0.18100   0.25781   0.00000  Uiso   1.00
N136   N     0.94686   0.51418   0.42123   0.00000  Uiso   1.00
N137   N     0.22873   0.08233   0.63095   0.00000  Uiso   1.00
N138   N     0.27229   0.07318   0.25289   0.00000  Uiso   1.00
C139   C     0.24084   0.65943   0.94034   0.00000  Uiso   1.00
C140   C     0.32375   0.60821   0.93522   0.00000  Uiso   1.00
C141   C     0.33721   0.50509   0.93366   0.00000  Uiso   1.00
C142   C     0.41756   0.47324   0.92884   0.00000  Uiso   1.00
C143   C     0.53650   0.38325   0.92139   0.00000  Uiso   1.00
C144   C     0.24608   0.72723   0.99303   0.00000  Uiso   1.00
C145   C     0.19421   0.72417   0.04006   0.00000  Uiso   1.00
C146   C     0.20917   0.79252   0.08390   0.00000  Uiso   1.00
C147   C     0.20747   0.88734   0.16618   0.00000  Uiso   1.00
C148   C     0.23408   0.72973   0.88883   0.00000  Uiso   1.00
C149   C     0.17212   0.72882   0.84826   0.00000  Uiso   1.00
C150   C     0.17697   0.79929   0.80439   0.00000  Uiso   1.00
C151   C     0.15664   0.89800   0.72488   0.00000  Uiso   1.00
C152   C     0.35961   0.78623   0.93457   0.00000  Uiso   1.00
C153   C     0.38826   0.67709   0.93208   0.00000  Uiso   1.00
C154   C     0.46862   0.64539   0.92727   0.00000  Uiso   1.00
C155   C     0.48219   0.54224   0.92570   0.00000  Uiso   1.00
C156   C     0.31058   0.79610   0.98989   0.00000  Uiso   1.00
C157   C     0.32562   0.86447   0.03367   0.00000  Uiso   1.00
C158   C     0.27380   0.86152   0.08076   0.00000  Uiso   1.00
C159   C     0.29859   0.79861   0.88569   0.00000  Uiso   1.00
C160   C     0.30353   0.86911   0.84187   0.00000  Uiso   1.00
C161   C     0.24159   0.86829   0.80124   0.00000  Uiso   1.00
H162   H     0.19061   0.60581   0.94279   0.00000  Uiso   1.00
H163   H     0.28727   0.45182   0.93609   0.00000  Uiso   1.00
H164   H     0.14429   0.67087   0.04247   0.00000  Uiso   1.00
H165   H     0.12221   0.67550   0.85071   0.00000  Uiso   1.00
H166   H     0.42289   0.31146   0.92731   0.00000  Uiso   1.00
H167   H     0.12139   0.77337   0.15161   0.00000  Uiso   1.00
H168   H     0.07481   0.78315   0.74723   0.00000  Uiso   1.00
H169   H     0.40984   0.83986   0.93212   0.00000  Uiso   1.00
H170   H     0.51853   0.69871   0.92484   0.00000  Uiso   1.00
H171   H     0.37555   0.91776   0.03122   0.00000  Uiso   1.00
H172   H     0.35346   0.92239   0.83946   0.00000  Uiso   1.00
H173   H     0.61058   0.51185   0.91818   0.00000  Uiso   1.00
H174   H     0.30908   0.97376   0.14248   0.00000  Uiso   1.00
H175   H     0.26251   0.98353   0.73810   0.00000  Uiso   1.00
O176   O     0.58428   0.31458   0.91816   0.00000  Uiso   1.00
O177   O     0.18872   0.92060   0.21243   0.00000  Uiso   1.00
O178   O     0.12762   0.93342   0.68189   0.00000  Uiso   1.00
N179   N     0.45214   0.37800   0.92614   0.00000  Uiso   1.00
N180   N     0.17027   0.80984   0.13586   0.00000  Uiso   1.00
N181   N     0.12671   0.81900   0.75781   0.00000  Uiso   1.00
N182   N     0.55314   0.48582   0.92123   0.00000  Uiso   1.00
N183   N     0.27127   0.91767   0.13095   0.00000  Uiso   1.00
N184   N     0.22771   0.92682   0.75289   0.00000  Uiso   1.00
C185   C     0.25916   0.15943   0.94034   0.00000  Uiso   1.00
C186   C     0.17625   0.10821   0.93522   0.00000  Uiso   1.00
C187   C     0.16279   0.00509   0.93366   0.00000  Uiso   1.00
C188   C     0.08244   0.97324   0.92884   0.00000  Uiso   1.00
C189   C     0.96350   0.88325   0.92139   0.00000  Uiso   1.00
C190   C     0.25392   0.22723   0.99303   0.00000  Uiso   1.00
C191   C     0.30579   0.22417   0.04006   0.00000  Uiso   1.00
C192   C     0.29083   0.29252   0.08390   0.00000  Uiso   1.00
C193   C     0.29253   0.38734   0.16618   0.00000  Uiso   1.00
C194   C     0.26592   0.22973   0.88883   0.00000  Uiso   1.00
C195   C     0.32788   0.22882   0.84826   0.00000  Uiso   1.00
C196   C     0.32303   0.29929   0.80439   0.00000  Uiso   1.00
C197   C     0.34336   0.39800   0.72488   0.00000  Uiso   1.00
C198   C     0.14039   0.28623   0.93457   0.00000  Uiso   1.00
C199   C     0.11174   0.17709   0.93208   0.00000  Uiso   1.00
C200   C     0.03138   0.14539   0.92727   0.00000  Uiso   1.00
C201   C     0.01781   0.04224   0.92570   0.00000  Uiso   1.00
C202   C     0.18942   0.29610   0.98989   0.00000  Uiso   1.00
C203   C     0.17438   0.36447   0.03367   0.00000  Uiso   1.00
C204   C     0.22620   0.36152   0.08076   0.00000  Uiso   1.00
C205   C     0.20141   0.29861   0.88569   0.00000  Uiso   1.00
C206   C     0.19647   0.36911   0.84187   0.00000  Uiso   1.00
C207   C     0.25841   0.36829   0.80124   0.00000  Uiso   1.00
H208   H     0.30939   0.10581   0.94279   0.00000  Uiso   1.00
H209   H     0.21273   0.95182   0.93609   0.00000  Uiso   1.00
H210   H     0.35571   0.17087   0.04247   0.00000  Uiso   1.00
H211   H     0.37779   0.17550   0.85071   0.00000  Uiso   1.00
H212   H     0.07711   0.81146   0.92731   0.00000  Uiso   1.00
H213   H     0.37861   0.27337   0.15161   0.00000  Uiso   1.00
H214   H     0.42519   0.28315   0.74723   0.00000  Uiso   1.00
H215   H     0.09016   0.33986   0.93212   0.00000  Uiso   1.00
H216   H     0.98147   0.19871   0.92484   0.00000  Uiso   1.00
H217   H     0.12445   0.41776   0.03122   0.00000  Uiso   1.00
H218   H     0.14654   0.42239   0.83946   0.00000  Uiso   1.00
H219   H     0.88942   0.01185   0.91818   0.00000  Uiso   1.00
H220   H     0.19092   0.47376   0.14248   0.00000  Uiso   1.00
H221   H     0.23749   0.48353   0.73810   0.00000  Uiso   1.00
O222   O     0.91572   0.81458   0.91816   0.00000  Uiso   1.00
O223   O     0.31128   0.42060   0.21243   0.00000  Uiso   1.00
O224   O     0.37238   0.43342   0.68189   0.00000  Uiso   1.00
N225   N     0.04786   0.87800   0.92614   0.00000  Uiso   1.00
N226   N     0.32973   0.30984   0.13586   0.00000  Uiso   1.00
N227   N     0.37329   0.31900   0.75781   0.00000  Uiso   1.00
N228   N     0.94686   0.98582   0.92123   0.00000  Uiso   1.00
N229   N     0.22873   0.41767   0.13095   0.00000  Uiso   1.00
N230   N     0.27229   0.42682   0.75289   0.00000  Uiso   1.00
C231   C     0.24084   0.84057   0.44034   0.00000  Uiso   1.00
C232   C     0.32375   0.89179   0.43522   0.00000  Uiso   1.00
C233   C     0.33721   0.99491   0.43366   0.00000  Uiso   1.00
C234   C     0.41756   0.02676   0.42884   0.00000  Uiso   1.00
C235   C     0.53650   0.11675   0.42139   0.00000  Uiso   1.00
C236   C     0.24608   0.77277   0.49303   0.00000  Uiso   1.00
C237   C     0.19421   0.77583   0.54006   0.00000  Uiso   1.00
C238   C     0.20917   0.70748   0.58390   0.00000  Uiso   1.00
C239   C     0.20747   0.61266   0.66618   0.00000  Uiso   1.00
C240   C     0.23408   0.77027   0.38883   0.00000  Uiso   1.00
C241   C     0.17212   0.77118   0.34826   0.00000  Uiso   1.00
C242   C     0.17697   0.70071   0.30439   0.00000  Uiso   1.00
C243   C     0.15664   0.60200   0.22488   0.00000  Uiso   1.00
C244   C     0.35961   0.71377   0.43457   0.00000  Uiso   1.00
C245   C     0.38826   0.82291   0.43208   0.00000  Uiso   1.00
C246   C     0.46862   0.85461   0.42727   0.00000  Uiso   1.00
C247   C     0.48219   0.95776   0.42570   0.00000  Uiso   1.00
C248   C     0.31058   0.70390   0.48989   0.00000  Uiso   1.00
C249   C     0.32562   0.63553   0.53367   0.00000  Uiso   1.00
C250   C     0.27380   0.63848   0.58076   0.00000  Uiso   1.00
C251   C     0.29859   0.70139   0.38569   0.00000  Uiso   1.00
C252   C     0.30353   0.63089   0.34187   0.00000  Uiso   1.00
C253   C     0.24159   0.63171   0.30124   0.00000  Uiso   1.00
H254   H     0.19061   0.89419   0.44279   0.00000  Uiso   1.00
H255   H     0.28727   0.04818   0.43609   0.00000  Uiso   1.00
H256   H     0.14429   0.82913   0.54247   0.00000  Uiso   1.00
H257   H     0.12221   0.82450   0.35071   0.00000  Uiso   1.00
H258   H     0.42289   0.18854   0.42731   0.00000  Uiso   1.00
H259   H     0.12139   0.72663   0.65161   0.00000  Uiso   1.00
H260   H     0.07481   0.71685   0.24723   0.00000  Uiso   1.00
H261   H     0.40984   0.66014   0.43212   0.00000  Uiso   1.00
H262   H     0.51853   0.80129   0.42484   0.00000  Uiso   1.00
H263   H     0.37555   0.58224   0.53122   0.00000  Uiso   1.00
H264   H     0.35346   0.57761   0.33946   0.00000  Uiso   1.00
H265   H     0.61058   0.98815   0.41818   0.00000  Uiso   1.00
H266   H     0.30908   0.52624   0.64248   0.00000  Uiso   1.00
H267   H     0.26251   0.51647   0.23810   0.00000  Uiso   1.00
O268   O     0.58428   0.18542   0.41816   0.00000  Uiso   1.00
O269   O     0.18872   0.57940   0.71243   0.00000  Uiso   1.00
O270   O     0.12762   0.56658   0.18189   0.00000  Uiso   1.00
N271   N     0.45214   0.12200   0.42614   0.00000  Uiso   1.00
N272   N     0.17027   0.69016   0.63586   0.00000  Uiso   1.00
N273   N     0.12671   0.68100   0.25781   0.00000  Uiso   1.00
N274   N     0.55314   0.01418   0.42123   0.00000  Uiso   1.00
N275   N     0.27127   0.58233   0.63095   0.00000  Uiso   1.00
N276   N     0.22771   0.57318   0.25289   0.00000  Uiso   1.00
C277   C     0.74084   0.65943   0.55966   0.00000  Uiso   1.00
C278   C     0.82375   0.60821   0.56478   0.00000  Uiso   1.00
C279   C     0.83721   0.50509   0.56634   0.00000  Uiso   1.00
C280   C     0.91756   0.47324   0.57116   0.00000  Uiso   1.00
C281   C     0.03650   0.38325   0.57861   0.00000  Uiso   1.00
C282   C     0.74608   0.72723   0.50697   0.00000  Uiso   1.00
C283   C     0.69421   0.72417   0.45994   0.00000  Uiso   1.00
C284   C     0.70917   0.79252   0.41610   0.00000  Uiso   1.00
C285   C     0.70747   0.88734   0.33382   0.00000  Uiso   1.00
C286   C     0.73408   0.72973   0.61117   0.00000  Uiso   1.00
C287   C     0.67212   0.72882   0.65174   0.00000  Uiso   1.00
C288   C     0.67697   0.79929   0.69561   0.00000  Uiso   1.00
C289   C     0.65664   0.89800   0.77512   0.00000  Uiso   1.00
C290   C     0.85961   0.78623   0.56543   0.00000  Uiso   1.00
C291   C     0.88826   0.67709   0.56792   0.00000  Uiso   1.00
C292   C     0.96862   0.64539   0.57273   0.00000  Uiso   1.00
C293   C     0.98219   0.54224   0.57430   0.00000  Uiso   1.00
C294   C     0.81058   0.79610   0.51011   0.00000  Uiso   1.00
C295   C     0.82562   0.86447   0.46633   0.00000  Uiso   1.00
C296   C     0.77380   0.86152   0.41924   0.00000  Uiso   1.00
C297   C     0.79859   0.79861   0.61431   0.00000  Uiso   1.00
C298   C     0.80353   0.86911   0.65813   0.00000  Uiso   1.00
C299   C     0.74159   0.86829   0.69876   0.00000  Uiso   1.00
H300   H     0.69061   0.60581   0.55721   0.00000  Uiso   1.00
H301   H     0.78727   0.45182   0.56391   0.00000  Uiso   1.00
H302   H     0.64429   0.67087   0.45753   0.00000  Uiso   1.00
H303   H     0.62221   0.67550   0.64929   0.00000  Uiso   1.00
H304   H     0.92289   0.31146   0.57269   0.00000  Uiso   1.00
H305   H     0.62139   0.77337   0.34839   0.00000  Uiso   1.00
H306   H     0.57481   0.78315   0.75277   0.00000  Uiso   1.00
H307   H     0.90984   0.83986   0.56788   0.00000  Uiso   1.00
H308   H     0.01853   0.69871   0.57516   0.00000  Uiso   1.00
H309   H     0.87555   0.91776   0.46878   0.00000  Uiso   1.00
H310   H     0.85346   0.92239   0.66054   0.00000  Uiso   1.00
H311   H     0.11058   0.51185   0.58182   0.00000  Uiso   1.00
H312   H     0.80908   0.97376   0.35752   0.00000  Uiso   1.00
H313   H     0.76251   0.98353   0.76190   0.00000  Uiso   1.00
O314   O     0.08428   0.31458   0.58184   0.00000  Uiso   1.00
O315   O     0.68872   0.92060   0.28757   0.00000  Uiso   1.00
O316   O     0.62762   0.93342   0.81811   0.00000  Uiso   1.00
N317   N     0.95214   0.37800   0.57386   0.00000  Uiso   1.00
N318   N     0.67027   0.80984   0.36414   0.00000  Uiso   1.00
N319   N     0.62671   0.81900   0.74219   0.00000  Uiso   1.00
N320   N     0.05314   0.48582   0.57877   0.00000  Uiso   1.00
N321   N     0.77127   0.91767   0.36905   0.00000  Uiso   1.00
N322   N     0.72771   0.92682   0.74711   0.00000  Uiso   1.00
C323   C     0.75916   0.34057   0.05966   0.00000  Uiso   1.00
C324   C     0.67625   0.39179   0.06478   0.00000  Uiso   1.00
C325   C     0.66279   0.49491   0.06634   0.00000  Uiso   1.00
C326   C     0.58244   0.52676   0.07116   0.00000  Uiso   1.00
C327   C     0.46350   0.61675   0.07861   0.00000  Uiso   1.00
C328   C     0.75392   0.27277   0.00697   0.00000  Uiso   1.00
C329   C     0.80579   0.27583   0.95994   0.00000  Uiso   1.00
C330   C     0.79083   0.20748   0.91610   0.00000  Uiso   1.00
C331   C     0.79253   0.11266   0.83382   0.00000  Uiso   1.00
C332   C     0.76592   0.27027   0.11117   0.00000  Uiso   1.00
C333   C     0.82788   0.27118   0.15174   0.00000  Uiso   1.00
C334   C     0.82303   0.20071   0.19561   0.00000  Uiso   1.00
C335   C     0.84336   0.10200   0.27512   0.00000  Uiso   1.00
C336   C     0.64039   0.21377   0.06543   0.00000  Uiso   1.00
C337   C     0.61174   0.32291   0.06792   0.00000  Uiso   1.00
C338   C     0.53138   0.35461   0.07273   0.00000  Uiso   1.00
C339   C     0.51781   0.45776   0.07430   0.00000  Uiso   1.00
C340   C     0.68942   0.20390   0.01011   0.00000  Uiso   1.00
C341   C     0.67438   0.13553   0.96633   0.00000  Uiso   1.00
C342   C     0.72620   0.13848   0.91924   0.00000  Uiso   1.00
C343   C     0.70141   0.20139   0.11431   0.00000  Uiso   1.00
C344   C     0.69647   0.13089   0.15813   0.00000  Uiso   1.00
C345   C     0.75841   0.13171   0.19876   0.00000  Uiso   1.00
H346   H     0.80939   0.39419   0.05721   0.00000  Uiso   1.00
H347   H     0.71273   0.54818   0.06391   0.00000  Uiso   1.00
H348   H     0.85571   0.32913   0.95753   0.00000  Uiso   1.00
H349   H     0.87779   0.32450   0.14929   0.00000  Uiso   1.00
H350   H     0.57711   0.68854   0.07269   0.00000  Uiso   1.00
H351   H     0.87861   0.22663   0.84839   0.00000  Uiso   1.00
H352   H     0.92519   0.21685   0.25277   0.00000  Uiso   1.00
H353   H     0.59016   0.16014   0.06788   0.00000  Uiso   1.00
H354   H     0.48147   0.30129   0.07516   0.00000  Uiso   1.00
H355   H     0.62445   0.08224   0.96878   0.00000  Uiso   1.00
H356   H     0.64654   0.07761   0.16054   0.00000  Uiso   1.00
H357   H     0.38942   0.48815   0.08182   0.00000  Uiso   1.00
H358   H     0.69092   0.02624   0.85752   0.00000  Uiso   1.00
H359   H     0.73749   0.01647   0.26190   0.00000  Uiso   1.00
O360   O     0.41572   0.68542   0.08184   0.00000  Uiso   1.00
O361   O     0.81128   0.07940   0.78757   0.00000  Uiso   1.00
O362   O     0.87238   0.06658   0.31811   0.00000  Uiso   1.00
N363   N     0.54786   0.62200   0.07386   0.00000  Uiso   1.00
N364   N     0.82973   0.19016   0.86414   0.00000  Uiso   1.00
N365   N     0.87329   0.18100   0.24219   0.00000  Uiso   1.00
N366   N     0.44686   0.51418   0.07877   0.00000  Uiso   1.00
N367   N     0.72873   0.08233   0.86905   0.00000  Uiso   1.00
N368   N     0.77229   0.07318   0.24711   0.00000  Uiso   1.00
