data_job_05845
_audit_creation_date              2018-12-19
_audit_creation_method            'Materials Studio'
_symmetry_space_group_name_H-M    'P1'
_symmetry_Int_Tables_number       1
_symmetry_cell_setting            triclinic
loop_
_symmetry_equiv_pos_as_xyz
  x,y,z
_cell_length_a                    18.7780
_cell_length_b                    18.7780
_cell_length_c                    14.5856
_cell_angle_alpha                 90.0000
_cell_angle_beta                  90.0000
_cell_angle_gamma                 90.0000
loop_
_atom_site_label
_atom_site_type_symbol
_atom_site_fract_x
_atom_site_fract_y
_atom_site_fract_z
_atom_site_U_iso_or_equiv
_atom_site_adp_type
_atom_site_occupancy
C1     C     0.05925   0.67175   0.39139   0.00000  Uiso   1.00
C2     C     0.05291   0.69121   0.29021   0.00000  Uiso   1.00
C3     C     0.10130   0.67335   0.22208   0.00000  Uiso   1.00
C4     C     0.08590   0.69616   0.13373   0.00000  Uiso   1.00
C5     C     0.08545   0.72043   0.97958   0.00000  Uiso   1.00
C6     C     0.05596   0.74189   0.44393   0.00000  Uiso   1.00
C7     C     0.10692   0.76664   0.50504   0.00000  Uiso   1.00
C8     C     0.09409   0.83210   0.54609   0.00000  Uiso   1.00
C9     C     0.09835   0.93503   0.63064   0.00000  Uiso   1.00
C10    C     0.99115   0.63168   0.41554   0.00000  Uiso   1.00
C11    C     0.98762   0.56377   0.45282   0.00000  Uiso   1.00
C12    C     0.92022   0.53645   0.47000   0.00000  Uiso   1.00
C13    C     0.82386   0.46827   0.51048   0.00000  Uiso   1.00
C14    C     0.94584   0.74400   0.35565   0.00000  Uiso   1.00
C15    C     0.99131   0.73045   0.27081   0.00000  Uiso   1.00
C16    C     0.97583   0.75329   0.18253   0.00000  Uiso   1.00
C17    C     0.02419   0.73547   0.11428   0.00000  Uiso   1.00
C18    C     0.99437   0.78113   0.42452   0.00000  Uiso   1.00
C19    C     0.98145   0.84657   0.46550   0.00000  Uiso   1.00
C20    C     0.03238   0.87141   0.52665   0.00000  Uiso   1.00
C21    C     0.92955   0.67092   0.39613   0.00000  Uiso   1.00
C22    C     0.86214   0.64371   0.41327   0.00000  Uiso   1.00
C23    C     0.85851   0.57577   0.45055   0.00000  Uiso   1.00
H24    H     0.10721   0.64120   0.40651   0.00000  Uiso   1.00
H25    H     0.14897   0.64299   0.23713   0.00000  Uiso   1.00
H26    H     0.15458   0.73625   0.52005   0.00000  Uiso   1.00
H27    H     0.03530   0.53342   0.46783   0.00000  Uiso   1.00
H28    H     0.16812   0.66230   0.04079   0.00000  Uiso   1.00
H29    H     0.17995   0.85894   0.63737   0.00000  Uiso   1.00
H30    H     0.92841   0.43122   0.52725   0.00000  Uiso   1.00
H31    H     0.89788   0.77456   0.34054   0.00000  Uiso   1.00
H32    H     0.92815   0.78366   0.16753   0.00000  Uiso   1.00
H33    H     0.93377   0.87692   0.45046   0.00000  Uiso   1.00
H34    H     0.81449   0.67409   0.39824   0.00000  Uiso   1.00
H35    H     0.98890   0.77647   0.98430   0.00000  Uiso   1.00
H36    H     0.00073   0.97311   0.58089   0.00000  Uiso   1.00
H37    H     0.74919   0.54540   0.47076   0.00000  Uiso   1.00
O38    O     0.10222   0.72299   0.89993   0.00000  Uiso   1.00
O39    O     0.11773   0.98096   0.68264   0.00000  Uiso   1.00
O40    O     0.78772   0.41981   0.53816   0.00000  Uiso   1.00
N41    N     0.12178   0.68791   0.05123   0.00000  Uiso   1.00
N42    N     0.13284   0.87176   0.60899   0.00000  Uiso   1.00
N43    N     0.89768   0.47189   0.50606   0.00000  Uiso   1.00
N44    N     0.02534   0.74934   0.02083   0.00000  Uiso   1.00
N45    N     0.03640   0.93319   0.57859   0.00000  Uiso   1.00
N46    N     0.80124   0.53333   0.47567   0.00000  Uiso   1.00
C47    C     0.94075   0.32825   0.89139   0.00000  Uiso   1.00
C48    C     0.94709   0.30879   0.79021   0.00000  Uiso   1.00
C49    C     0.89870   0.32665   0.72208   0.00000  Uiso   1.00
C50    C     0.91410   0.30384   0.63373   0.00000  Uiso   1.00
C51    C     0.91455   0.27957   0.47958   0.00000  Uiso   1.00
C52    C     0.94404   0.25811   0.94393   0.00000  Uiso   1.00
C53    C     0.89308   0.23336   0.00504   0.00000  Uiso   1.00
C54    C     0.90591   0.16790   0.04609   0.00000  Uiso   1.00
C55    C     0.90165   0.06497   0.13064   0.00000  Uiso   1.00
C56    C     0.00885   0.36832   0.91554   0.00000  Uiso   1.00
C57    C     0.01238   0.43623   0.95282   0.00000  Uiso   1.00
C58    C     0.07978   0.46355   0.97000   0.00000  Uiso   1.00
C59    C     0.17614   0.53173   0.01048   0.00000  Uiso   1.00
C60    C     0.05416   0.25600   0.85565   0.00000  Uiso   1.00
C61    C     0.00869   0.26955   0.77081   0.00000  Uiso   1.00
C62    C     0.02417   0.24671   0.68253   0.00000  Uiso   1.00
C63    C     0.97581   0.26453   0.61428   0.00000  Uiso   1.00
C64    C     0.00563   0.21887   0.92452   0.00000  Uiso   1.00
C65    C     0.01855   0.15343   0.96550   0.00000  Uiso   1.00
C66    C     0.96762   0.12859   0.02665   0.00000  Uiso   1.00
C67    C     0.07045   0.32908   0.89613   0.00000  Uiso   1.00
C68    C     0.13786   0.35629   0.91327   0.00000  Uiso   1.00
C69    C     0.14149   0.42423   0.95055   0.00000  Uiso   1.00
H70    H     0.89279   0.35880   0.90651   0.00000  Uiso   1.00
H71    H     0.85103   0.35701   0.73713   0.00000  Uiso   1.00
H72    H     0.84542   0.26375   0.02005   0.00000  Uiso   1.00
H73    H     0.96470   0.46658   0.96783   0.00000  Uiso   1.00
H74    H     0.83188   0.33770   0.54079   0.00000  Uiso   1.00
H75    H     0.82005   0.14106   0.13737   0.00000  Uiso   1.00
H76    H     0.07159   0.56878   0.02725   0.00000  Uiso   1.00
H77    H     0.10212   0.22544   0.84054   0.00000  Uiso   1.00
H78    H     0.07185   0.21634   0.66753   0.00000  Uiso   1.00
H79    H     0.06623   0.12308   0.95046   0.00000  Uiso   1.00
H80    H     0.18551   0.32591   0.89824   0.00000  Uiso   1.00
H81    H     0.01110   0.22353   0.48430   0.00000  Uiso   1.00
H82    H     0.99927   0.02689   0.08089   0.00000  Uiso   1.00
H83    H     0.25081   0.45460   0.97076   0.00000  Uiso   1.00
O84    O     0.89778   0.27701   0.39993   0.00000  Uiso   1.00
O85    O     0.88227   0.01904   0.18264   0.00000  Uiso   1.00
O86    O     0.21228   0.58019   0.03816   0.00000  Uiso   1.00
N87    N     0.87822   0.31209   0.55123   0.00000  Uiso   1.00
N88    N     0.86716   0.12824   0.10899   0.00000  Uiso   1.00
N89    N     0.10232   0.52811   0.00606   0.00000  Uiso   1.00
N90    N     0.97466   0.25066   0.52083   0.00000  Uiso   1.00
N91    N     0.96360   0.06681   0.07859   0.00000  Uiso   1.00
N92    N     0.19876   0.46667   0.97567   0.00000  Uiso   1.00
C93    C     0.82825   0.55925   0.14139   0.00000  Uiso   1.00
C94    C     0.80879   0.55291   0.04021   0.00000  Uiso   1.00
C95    C     0.82665   0.60130   0.97208   0.00000  Uiso   1.00
C96    C     0.80384   0.58590   0.88373   0.00000  Uiso   1.00
C97    C     0.77957   0.58545   0.72958   0.00000  Uiso   1.00
C98    C     0.75811   0.55596   0.19393   0.00000  Uiso   1.00
C99    C     0.73336   0.60692   0.25504   0.00000  Uiso   1.00
C100   C     0.66790   0.59409   0.29609   0.00000  Uiso   1.00
C101   C     0.56497   0.59835   0.38064   0.00000  Uiso   1.00
C102   C     0.86832   0.49115   0.16554   0.00000  Uiso   1.00
C103   C     0.93623   0.48762   0.20282   0.00000  Uiso   1.00
C104   C     0.96355   0.42022   0.22000   0.00000  Uiso   1.00
C105   C     0.03173   0.32386   0.26048   0.00000  Uiso   1.00
C106   C     0.75600   0.44584   0.10565   0.00000  Uiso   1.00
C107   C     0.76955   0.49131   0.02081   0.00000  Uiso   1.00
C108   C     0.74671   0.47583   0.93253   0.00000  Uiso   1.00
C109   C     0.76453   0.52419   0.86428   0.00000  Uiso   1.00
C110   C     0.71887   0.49437   0.17452   0.00000  Uiso   1.00
C111   C     0.65343   0.48145   0.21550   0.00000  Uiso   1.00
C112   C     0.62859   0.53238   0.27665   0.00000  Uiso   1.00
C113   C     0.82908   0.42955   0.14613   0.00000  Uiso   1.00
C114   C     0.85629   0.36214   0.16327   0.00000  Uiso   1.00
C115   C     0.92423   0.35851   0.20055   0.00000  Uiso   1.00
H116   H     0.85880   0.60721   0.15651   0.00000  Uiso   1.00
H117   H     0.85701   0.64897   0.98713   0.00000  Uiso   1.00
H118   H     0.76375   0.65458   0.27005   0.00000  Uiso   1.00
H119   H     0.96658   0.53530   0.21783   0.00000  Uiso   1.00
H120   H     0.83770   0.66812   0.79079   0.00000  Uiso   1.00
H121   H     0.64106   0.67995   0.38737   0.00000  Uiso   1.00
H122   H     0.06878   0.42841   0.27725   0.00000  Uiso   1.00
H123   H     0.72544   0.39788   0.09054   0.00000  Uiso   1.00
H124   H     0.71634   0.42815   0.91753   0.00000  Uiso   1.00
H125   H     0.62308   0.43377   0.20046   0.00000  Uiso   1.00
H126   H     0.82591   0.31449   0.14824   0.00000  Uiso   1.00
H127   H     0.72353   0.48890   0.73430   0.00000  Uiso   1.00
H128   H     0.52689   0.50073   0.33089   0.00000  Uiso   1.00
H129   H     0.95460   0.24919   0.22076   0.00000  Uiso   1.00
O130   O     0.77701   0.60222   0.64993   0.00000  Uiso   1.00
O131   O     0.51904   0.61773   0.43264   0.00000  Uiso   1.00
O132   O     0.08019   0.28772   0.28816   0.00000  Uiso   1.00
N133   N     0.81209   0.62178   0.80123   0.00000  Uiso   1.00
N134   N     0.62824   0.63284   0.35899   0.00000  Uiso   1.00
N135   N     0.02811   0.39768   0.25606   0.00000  Uiso   1.00
N136   N     0.75066   0.52534   0.77083   0.00000  Uiso   1.00
N137   N     0.56681   0.53640   0.32859   0.00000  Uiso   1.00
N138   N     0.96667   0.30124   0.22567   0.00000  Uiso   1.00
C139   C     0.17175   0.44075   0.64139   0.00000  Uiso   1.00
C140   C     0.19121   0.44709   0.54021   0.00000  Uiso   1.00
C141   C     0.17335   0.39870   0.47208   0.00000  Uiso   1.00
C142   C     0.19616   0.41410   0.38373   0.00000  Uiso   1.00
C143   C     0.22043   0.41455   0.22958   0.00000  Uiso   1.00
C144   C     0.24189   0.44404   0.69393   0.00000  Uiso   1.00
C145   C     0.26664   0.39308   0.75504   0.00000  Uiso   1.00
C146   C     0.33210   0.40591   0.79609   0.00000  Uiso   1.00
C147   C     0.43503   0.40165   0.88064   0.00000  Uiso   1.00
C148   C     0.13168   0.50885   0.66554   0.00000  Uiso   1.00
C149   C     0.06377   0.51238   0.70282   0.00000  Uiso   1.00
C150   C     0.03645   0.57978   0.72000   0.00000  Uiso   1.00
C151   C     0.96827   0.67614   0.76048   0.00000  Uiso   1.00
C152   C     0.24400   0.55416   0.60565   0.00000  Uiso   1.00
C153   C     0.23045   0.50869   0.52081   0.00000  Uiso   1.00
C154   C     0.25329   0.52417   0.43253   0.00000  Uiso   1.00
C155   C     0.23547   0.47581   0.36428   0.00000  Uiso   1.00
C156   C     0.28113   0.50563   0.67452   0.00000  Uiso   1.00
C157   C     0.34657   0.51855   0.71550   0.00000  Uiso   1.00
C158   C     0.37141   0.46762   0.77665   0.00000  Uiso   1.00
C159   C     0.17092   0.57045   0.64613   0.00000  Uiso   1.00
C160   C     0.14371   0.63786   0.66327   0.00000  Uiso   1.00
C161   C     0.07577   0.64149   0.70055   0.00000  Uiso   1.00
H162   H     0.14120   0.39279   0.65651   0.00000  Uiso   1.00
H163   H     0.14299   0.35103   0.48713   0.00000  Uiso   1.00
H164   H     0.23625   0.34542   0.77005   0.00000  Uiso   1.00
H165   H     0.03342   0.46470   0.71783   0.00000  Uiso   1.00
H166   H     0.16230   0.33188   0.29079   0.00000  Uiso   1.00
H167   H     0.35894   0.32005   0.88737   0.00000  Uiso   1.00
H168   H     0.93122   0.57159   0.77725   0.00000  Uiso   1.00
H169   H     0.27456   0.60212   0.59054   0.00000  Uiso   1.00
H170   H     0.28366   0.57185   0.41753   0.00000  Uiso   1.00
H171   H     0.37692   0.56623   0.70046   0.00000  Uiso   1.00
H172   H     0.17409   0.68551   0.64824   0.00000  Uiso   1.00
H173   H     0.27647   0.51110   0.23430   0.00000  Uiso   1.00
H174   H     0.47311   0.49927   0.83089   0.00000  Uiso   1.00
H175   H     0.04540   0.75081   0.72076   0.00000  Uiso   1.00
O176   O     0.22299   0.39778   0.14993   0.00000  Uiso   1.00
O177   O     0.48096   0.38227   0.93264   0.00000  Uiso   1.00
O178   O     0.91981   0.71228   0.78816   0.00000  Uiso   1.00
N179   N     0.18791   0.37822   0.30123   0.00000  Uiso   1.00
N180   N     0.37176   0.36716   0.85899   0.00000  Uiso   1.00
N181   N     0.97189   0.60232   0.75606   0.00000  Uiso   1.00
N182   N     0.24934   0.47466   0.27083   0.00000  Uiso   1.00
N183   N     0.43319   0.46360   0.82859   0.00000  Uiso   1.00
N184   N     0.03333   0.69876   0.72567   0.00000  Uiso   1.00
C185   C     0.44075   0.17175   0.35861   0.00000  Uiso   1.00
C186   C     0.44709   0.19121   0.45979   0.00000  Uiso   1.00
C187   C     0.39870   0.17335   0.52792   0.00000  Uiso   1.00
C188   C     0.41410   0.19616   0.61627   0.00000  Uiso   1.00
C189   C     0.41455   0.22043   0.77042   0.00000  Uiso   1.00
C190   C     0.44404   0.24189   0.30607   0.00000  Uiso   1.00
C191   C     0.39308   0.26664   0.24496   0.00000  Uiso   1.00
C192   C     0.40591   0.33210   0.20391   0.00000  Uiso   1.00
C193   C     0.40165   0.43503   0.11936   0.00000  Uiso   1.00
C194   C     0.50885   0.13168   0.33446   0.00000  Uiso   1.00
C195   C     0.51238   0.06377   0.29718   0.00000  Uiso   1.00
C196   C     0.57978   0.03645   0.28000   0.00000  Uiso   1.00
C197   C     0.67614   0.96827   0.23952   0.00000  Uiso   1.00
C198   C     0.55416   0.24400   0.39435   0.00000  Uiso   1.00
C199   C     0.50869   0.23045   0.47919   0.00000  Uiso   1.00
C200   C     0.52417   0.25329   0.56747   0.00000  Uiso   1.00
C201   C     0.47581   0.23547   0.63572   0.00000  Uiso   1.00
C202   C     0.50563   0.28113   0.32548   0.00000  Uiso   1.00
C203   C     0.51855   0.34657   0.28450   0.00000  Uiso   1.00
C204   C     0.46762   0.37141   0.22335   0.00000  Uiso   1.00
C205   C     0.57045   0.17092   0.35387   0.00000  Uiso   1.00
C206   C     0.63786   0.14371   0.33673   0.00000  Uiso   1.00
C207   C     0.64149   0.07577   0.29945   0.00000  Uiso   1.00
H208   H     0.39279   0.14120   0.34349   0.00000  Uiso   1.00
H209   H     0.35103   0.14299   0.51287   0.00000  Uiso   1.00
H210   H     0.34542   0.23625   0.22995   0.00000  Uiso   1.00
H211   H     0.46470   0.03342   0.28217   0.00000  Uiso   1.00
H212   H     0.33188   0.16230   0.70921   0.00000  Uiso   1.00
H213   H     0.32005   0.35894   0.11263   0.00000  Uiso   1.00
H214   H     0.57159   0.93122   0.22275   0.00000  Uiso   1.00
H215   H     0.60212   0.27456   0.40946   0.00000  Uiso   1.00
H216   H     0.57185   0.28366   0.58247   0.00000  Uiso   1.00
H217   H     0.56623   0.37692   0.29954   0.00000  Uiso   1.00
H218   H     0.68551   0.17409   0.35176   0.00000  Uiso   1.00
H219   H     0.51110   0.27647   0.76570   0.00000  Uiso   1.00
H220   H     0.49927   0.47311   0.16911   0.00000  Uiso   1.00
H221   H     0.75081   0.04540   0.27924   0.00000  Uiso   1.00
O222   O     0.39778   0.22299   0.85007   0.00000  Uiso   1.00
O223   O     0.38227   0.48096   0.06736   0.00000  Uiso   1.00
O224   O     0.71228   0.91981   0.21184   0.00000  Uiso   1.00
N225   N     0.37822   0.18791   0.69877   0.00000  Uiso   1.00
N226   N     0.36716   0.37176   0.14101   0.00000  Uiso   1.00
N227   N     0.60232   0.97189   0.24394   0.00000  Uiso   1.00
N228   N     0.47466   0.24934   0.72917   0.00000  Uiso   1.00
N229   N     0.46360   0.43319   0.17141   0.00000  Uiso   1.00
N230   N     0.69876   0.03333   0.27433   0.00000  Uiso   1.00
C231   C     0.55925   0.82825   0.85861   0.00000  Uiso   1.00
C232   C     0.55291   0.80879   0.95979   0.00000  Uiso   1.00
C233   C     0.60130   0.82665   0.02792   0.00000  Uiso   1.00
C234   C     0.58590   0.80384   0.11627   0.00000  Uiso   1.00
C235   C     0.58545   0.77957   0.27042   0.00000  Uiso   1.00
C236   C     0.55596   0.75811   0.80607   0.00000  Uiso   1.00
C237   C     0.60692   0.73336   0.74496   0.00000  Uiso   1.00
C238   C     0.59409   0.66790   0.70391   0.00000  Uiso   1.00
C239   C     0.59835   0.56497   0.61936   0.00000  Uiso   1.00
C240   C     0.49115   0.86832   0.83446   0.00000  Uiso   1.00
C241   C     0.48762   0.93623   0.79718   0.00000  Uiso   1.00
C242   C     0.42022   0.96355   0.78000   0.00000  Uiso   1.00
C243   C     0.32386   0.03173   0.73952   0.00000  Uiso   1.00
C244   C     0.44584   0.75600   0.89435   0.00000  Uiso   1.00
C245   C     0.49131   0.76955   0.97919   0.00000  Uiso   1.00
C246   C     0.47583   0.74671   0.06747   0.00000  Uiso   1.00
C247   C     0.52419   0.76453   0.13572   0.00000  Uiso   1.00
C248   C     0.49437   0.71887   0.82548   0.00000  Uiso   1.00
C249   C     0.48145   0.65343   0.78450   0.00000  Uiso   1.00
C250   C     0.53238   0.62859   0.72335   0.00000  Uiso   1.00
C251   C     0.42955   0.82908   0.85387   0.00000  Uiso   1.00
C252   C     0.36214   0.85629   0.83673   0.00000  Uiso   1.00
C253   C     0.35851   0.92423   0.79945   0.00000  Uiso   1.00
H254   H     0.60721   0.85880   0.84349   0.00000  Uiso   1.00
H255   H     0.64897   0.85701   0.01287   0.00000  Uiso   1.00
H256   H     0.65458   0.76375   0.72995   0.00000  Uiso   1.00
H257   H     0.53530   0.96658   0.78217   0.00000  Uiso   1.00
H258   H     0.66812   0.83770   0.20921   0.00000  Uiso   1.00
H259   H     0.67995   0.64106   0.61263   0.00000  Uiso   1.00
H260   H     0.42841   0.06878   0.72275   0.00000  Uiso   1.00
H261   H     0.39788   0.72544   0.90946   0.00000  Uiso   1.00
H262   H     0.42815   0.71634   0.08247   0.00000  Uiso   1.00
H263   H     0.43377   0.62308   0.79954   0.00000  Uiso   1.00
H264   H     0.31449   0.82591   0.85176   0.00000  Uiso   1.00
H265   H     0.48890   0.72353   0.26570   0.00000  Uiso   1.00
H266   H     0.50073   0.52689   0.66911   0.00000  Uiso   1.00
H267   H     0.24919   0.95460   0.77924   0.00000  Uiso   1.00
O268   O     0.60222   0.77701   0.35007   0.00000  Uiso   1.00
O269   O     0.61773   0.51904   0.56736   0.00000  Uiso   1.00
O270   O     0.28772   0.08019   0.71184   0.00000  Uiso   1.00
N271   N     0.62178   0.81209   0.19877   0.00000  Uiso   1.00
N272   N     0.63284   0.62824   0.64101   0.00000  Uiso   1.00
N273   N     0.39768   0.02811   0.74394   0.00000  Uiso   1.00
N274   N     0.52534   0.75066   0.22917   0.00000  Uiso   1.00
N275   N     0.53640   0.56681   0.67141   0.00000  Uiso   1.00
N276   N     0.30124   0.96667   0.77433   0.00000  Uiso   1.00
C277   C     0.67175   0.05925   0.60861   0.00000  Uiso   1.00
C278   C     0.69121   0.05291   0.70979   0.00000  Uiso   1.00
C279   C     0.67335   0.10130   0.77792   0.00000  Uiso   1.00
C280   C     0.69616   0.08590   0.86627   0.00000  Uiso   1.00
C281   C     0.72043   0.08545   0.02042   0.00000  Uiso   1.00
C282   C     0.74189   0.05596   0.55607   0.00000  Uiso   1.00
C283   C     0.76664   0.10692   0.49496   0.00000  Uiso   1.00
C284   C     0.83210   0.09409   0.45391   0.00000  Uiso   1.00
C285   C     0.93503   0.09835   0.36936   0.00000  Uiso   1.00
C286   C     0.63168   0.99115   0.58446   0.00000  Uiso   1.00
C287   C     0.56377   0.98762   0.54718   0.00000  Uiso   1.00
C288   C     0.53645   0.92022   0.53000   0.00000  Uiso   1.00
C289   C     0.46827   0.82386   0.48952   0.00000  Uiso   1.00
C290   C     0.74400   0.94584   0.64435   0.00000  Uiso   1.00
C291   C     0.73045   0.99131   0.72919   0.00000  Uiso   1.00
C292   C     0.75329   0.97583   0.81747   0.00000  Uiso   1.00
C293   C     0.73547   0.02419   0.88572   0.00000  Uiso   1.00
C294   C     0.78113   0.99437   0.57548   0.00000  Uiso   1.00
C295   C     0.84657   0.98145   0.53450   0.00000  Uiso   1.00
C296   C     0.87141   0.03238   0.47335   0.00000  Uiso   1.00
C297   C     0.67092   0.92955   0.60387   0.00000  Uiso   1.00
C298   C     0.64371   0.86214   0.58673   0.00000  Uiso   1.00
C299   C     0.57577   0.85851   0.54945   0.00000  Uiso   1.00
H300   H     0.64120   0.10721   0.59349   0.00000  Uiso   1.00
H301   H     0.64299   0.14897   0.76287   0.00000  Uiso   1.00
H302   H     0.73625   0.15458   0.47995   0.00000  Uiso   1.00
H303   H     0.53342   0.03530   0.53217   0.00000  Uiso   1.00
H304   H     0.66230   0.16812   0.95921   0.00000  Uiso   1.00
H305   H     0.85894   0.17995   0.36263   0.00000  Uiso   1.00
H306   H     0.43122   0.92841   0.47275   0.00000  Uiso   1.00
H307   H     0.77456   0.89788   0.65946   0.00000  Uiso   1.00
H308   H     0.78366   0.92815   0.83247   0.00000  Uiso   1.00
H309   H     0.87692   0.93377   0.54954   0.00000  Uiso   1.00
H310   H     0.67409   0.81449   0.60176   0.00000  Uiso   1.00
H311   H     0.77647   0.98890   0.01570   0.00000  Uiso   1.00
H312   H     0.97311   0.00073   0.41911   0.00000  Uiso   1.00
H313   H     0.54540   0.74919   0.52924   0.00000  Uiso   1.00
O314   O     0.72299   0.10222   0.10007   0.00000  Uiso   1.00
O315   O     0.98096   0.11773   0.31736   0.00000  Uiso   1.00
O316   O     0.41981   0.78772   0.46184   0.00000  Uiso   1.00
N317   N     0.68791   0.12178   0.94877   0.00000  Uiso   1.00
N318   N     0.87176   0.13284   0.39101   0.00000  Uiso   1.00
N319   N     0.47189   0.89768   0.49394   0.00000  Uiso   1.00
N320   N     0.74934   0.02534   0.97917   0.00000  Uiso   1.00
N321   N     0.93319   0.03640   0.42141   0.00000  Uiso   1.00
N322   N     0.53333   0.80124   0.52433   0.00000  Uiso   1.00
C323   C     0.32825   0.94075   0.10861   0.00000  Uiso   1.00
C324   C     0.30879   0.94709   0.20979   0.00000  Uiso   1.00
C325   C     0.32665   0.89870   0.27792   0.00000  Uiso   1.00
C326   C     0.30384   0.91410   0.36627   0.00000  Uiso   1.00
C327   C     0.27957   0.91455   0.52042   0.00000  Uiso   1.00
C328   C     0.25811   0.94404   0.05607   0.00000  Uiso   1.00
C329   C     0.23336   0.89308   0.99496   0.00000  Uiso   1.00
C330   C     0.16790   0.90591   0.95391   0.00000  Uiso   1.00
C331   C     0.06497   0.90165   0.86936   0.00000  Uiso   1.00
C332   C     0.36832   0.00885   0.08446   0.00000  Uiso   1.00
C333   C     0.43623   0.01238   0.04718   0.00000  Uiso   1.00
C334   C     0.46355   0.07978   0.03000   0.00000  Uiso   1.00
C335   C     0.53173   0.17614   0.98952   0.00000  Uiso   1.00
C336   C     0.25600   0.05416   0.14435   0.00000  Uiso   1.00
C337   C     0.26955   0.00869   0.22919   0.00000  Uiso   1.00
C338   C     0.24671   0.02417   0.31747   0.00000  Uiso   1.00
C339   C     0.26453   0.97581   0.38572   0.00000  Uiso   1.00
C340   C     0.21887   0.00563   0.07548   0.00000  Uiso   1.00
C341   C     0.15343   0.01855   0.03450   0.00000  Uiso   1.00
C342   C     0.12859   0.96762   0.97335   0.00000  Uiso   1.00
C343   C     0.32908   0.07045   0.10387   0.00000  Uiso   1.00
C344   C     0.35629   0.13786   0.08673   0.00000  Uiso   1.00
C345   C     0.42423   0.14149   0.04945   0.00000  Uiso   1.00
H346   H     0.35880   0.89279   0.09349   0.00000  Uiso   1.00
H347   H     0.35701   0.85103   0.26287   0.00000  Uiso   1.00
H348   H     0.26375   0.84542   0.97995   0.00000  Uiso   1.00
H349   H     0.46658   0.96470   0.03217   0.00000  Uiso   1.00
H350   H     0.33770   0.83188   0.45921   0.00000  Uiso   1.00
H351   H     0.14106   0.82005   0.86263   0.00000  Uiso   1.00
H352   H     0.56878   0.07159   0.97275   0.00000  Uiso   1.00
H353   H     0.22544   0.10212   0.15946   0.00000  Uiso   1.00
H354   H     0.21634   0.07185   0.33247   0.00000  Uiso   1.00
H355   H     0.12308   0.06623   0.04954   0.00000  Uiso   1.00
H356   H     0.32591   0.18551   0.10176   0.00000  Uiso   1.00
H357   H     0.22353   0.01110   0.51570   0.00000  Uiso   1.00
H358   H     0.02689   0.99927   0.91911   0.00000  Uiso   1.00
H359   H     0.45460   0.25081   0.02924   0.00000  Uiso   1.00
O360   O     0.27701   0.89778   0.60007   0.00000  Uiso   1.00
O361   O     0.01904   0.88227   0.81736   0.00000  Uiso   1.00
O362   O     0.58019   0.21228   0.96184   0.00000  Uiso   1.00
N363   N     0.31209   0.87822   0.44877   0.00000  Uiso   1.00
N364   N     0.12824   0.86716   0.89101   0.00000  Uiso   1.00
N365   N     0.52811   0.10232   0.99394   0.00000  Uiso   1.00
N366   N     0.25066   0.97466   0.47917   0.00000  Uiso   1.00
N367   N     0.06681   0.96360   0.92141   0.00000  Uiso   1.00
N368   N     0.46667   0.19876   0.02433   0.00000  Uiso   1.00
