data_job_06930
_audit_creation_date              2018-12-19
_audit_creation_method            'Materials Studio'
_symmetry_space_group_name_H-M    'P1'
_symmetry_Int_Tables_number       1
_symmetry_cell_setting            triclinic
loop_
_symmetry_equiv_pos_as_xyz
  x,y,z
_cell_length_a                    13.8160
_cell_length_b                    26.9191
_cell_length_c                    28.1201
_cell_angle_alpha                 70.4810
_cell_angle_beta                  77.0676
_cell_angle_gamma                 101.4556
loop_
_atom_site_label
_atom_site_type_symbol
_atom_site_fract_x
_atom_site_fract_y
_atom_site_fract_z
_atom_site_U_iso_or_equiv
_atom_site_adp_type
_atom_site_occupancy
C1     C     0.10268   0.79582   0.77482   0.00000  Uiso   1.00
C2     C     0.98873   0.76887   0.80870   0.00000  Uiso   1.00
C3     C     0.92344   0.72146   0.81043   0.00000  Uiso   1.00
C4     C     0.82178   0.70341   0.84395   0.00000  Uiso   1.00
C5     C     0.65015   0.65725   0.89186   0.00000  Uiso   1.00
C6     C     0.11172   0.85523   0.74115   0.00000  Uiso   1.00
C7     C     0.14987   0.88044   0.68609   0.00000  Uiso   1.00
C8     C     0.15175   0.93510   0.66276   0.00000  Uiso   1.00
C9     C     0.17115   0.02303   0.60581   0.00000  Uiso   1.00
C10    C     0.16342   0.79918   0.81331   0.00000  Uiso   1.00
C11    C     0.24505   0.77727   0.81891   0.00000  Uiso   1.00
C12    C     0.29048   0.78474   0.85632   0.00000  Uiso   1.00
C13    C     0.39013   0.78564   0.91141   0.00000  Uiso   1.00
C14    C     0.03822   0.84806   0.83129   0.00000  Uiso   1.00
C15    C     0.95372   0.79724   0.83936   0.00000  Uiso   1.00
C16    C     0.85213   0.77925   0.87290   0.00000  Uiso   1.00
C17    C     0.78671   0.73183   0.87468   0.00000  Uiso   1.00
C18    C     0.07671   0.88360   0.77182   0.00000  Uiso   1.00
C19    C     0.07855   0.93824   0.74856   0.00000  Uiso   1.00
C20    C     0.11668   0.96352   0.69348   0.00000  Uiso   1.00
C21    C     0.12841   0.82755   0.84398   0.00000  Uiso   1.00
C22    C     0.17373   0.83506   0.88139   0.00000  Uiso   1.00
C23    C     0.25540   0.81316   0.88705   0.00000  Uiso   1.00
H24    H     0.12994   0.77374   0.75094   0.00000  Uiso   1.00
H25    H     0.95057   0.69952   0.78668   0.00000  Uiso   1.00
H26    H     0.17696   0.85848   0.66237   0.00000  Uiso   1.00
H27    H     0.27212   0.75532   0.79517   0.00000  Uiso   1.00
H28    H     0.73625   0.62976   0.83981   0.00000  Uiso   1.00
H29    H     0.21364   0.96494   0.57769   0.00000  Uiso   1.00
H30    H     0.41431   0.74740   0.85774   0.00000  Uiso   1.00
H31    H     0.01097   0.87015   0.85516   0.00000  Uiso   1.00
H32    H     0.82506   0.80122   0.89663   0.00000  Uiso   1.00
H33    H     0.05146   0.96018   0.77231   0.00000  Uiso   1.00
H34    H     0.14661   0.85702   0.90511   0.00000  Uiso   1.00
H35    H     0.63438   0.71230   0.92905   0.00000  Uiso   1.00
H36    H     0.11178   0.04748   0.66692   0.00000  Uiso   1.00
H37    H     0.31245   0.82994   0.94697   0.00000  Uiso   1.00
O38    O     0.56516   0.62396   0.90981   0.00000  Uiso   1.00
O39    O     0.19150   0.06370   0.56592   0.00000  Uiso   1.00
O40    O     0.45477   0.77829   0.93333   0.00000  Uiso   1.00
N41    N     0.73779   0.65864   0.85513   0.00000  Uiso   1.00
N42    N     0.18412   0.97201   0.61006   0.00000  Uiso   1.00
N43    N     0.37174   0.76864   0.87187   0.00000  Uiso   1.00
N44    N     0.68298   0.70305   0.90315   0.00000  Uiso   1.00
N45    N     0.12930   0.01642   0.65808   0.00000  Uiso   1.00
N46    N     0.31693   0.81306   0.91989   0.00000  Uiso   1.00
C47    C     0.13334   0.46239   0.66279   0.00000  Uiso   1.00
C48    C     0.14573   0.46916   0.60550   0.00000  Uiso   1.00
C49    C     0.22434   0.45889   0.57320   0.00000  Uiso   1.00
C50    C     0.22200   0.46759   0.52200   0.00000  Uiso   1.00
C51    C     0.25317   0.47535   0.43580   0.00000  Uiso   1.00
C52    C     0.13092   0.51825   0.66428   0.00000  Uiso   1.00
C53    C     0.19705   0.54925   0.68140   0.00000  Uiso   1.00
C54    C     0.18223   0.59927   0.67968   0.00000  Uiso   1.00
C55    C     0.19035   0.68322   0.68478   0.00000  Uiso   1.00
C56    C     0.02473   0.42285   0.69562   0.00000  Uiso   1.00
C57    C     0.00159   0.37366   0.73912   0.00000  Uiso   1.00
C58    C     0.89736   0.34338   0.76380   0.00000  Uiso   1.00
C59    C     0.74062   0.27921   0.81756   0.00000  Uiso   1.00
C60    C     0.98941   0.49608   0.62929   0.00000  Uiso   1.00
C61    C     0.06756   0.48746   0.58731   0.00000  Uiso   1.00
C62    C     0.06510   0.49617   0.53614   0.00000  Uiso   1.00
C63    C     0.14369   0.48593   0.50377   0.00000  Uiso   1.00
C64    C     0.05274   0.53655   0.64608   0.00000  Uiso   1.00
C65    C     0.03782   0.58653   0.64434   0.00000  Uiso   1.00
C66    C     0.10392   0.61761   0.66146   0.00000  Uiso   1.00
C67    C     0.94656   0.44116   0.67743   0.00000  Uiso   1.00
C68    C     0.84235   0.41094   0.70205   0.00000  Uiso   1.00
C69    C     0.81905   0.36171   0.74557   0.00000  Uiso   1.00
H70    H     0.19420   0.44814   0.67695   0.00000  Uiso   1.00
H71    H     0.28483   0.44474   0.58729   0.00000  Uiso   1.00
H72    H     0.25754   0.53508   0.69549   0.00000  Uiso   1.00
H73    H     0.06210   0.35951   0.75318   0.00000  Uiso   1.00
H74    H     0.35085   0.44905   0.47986   0.00000  Uiso   1.00
H75    H     0.29329   0.63953   0.70800   0.00000  Uiso   1.00
H76    H     0.88117   0.26932   0.82968   0.00000  Uiso   1.00
H77    H     0.92854   0.51033   0.61512   0.00000  Uiso   1.00
H78    H     0.00459   0.51034   0.52207   0.00000  Uiso   1.00
H79    H     0.97731   0.60068   0.63026   0.00000  Uiso   1.00
H80    H     0.78187   0.42512   0.68796   0.00000  Uiso   1.00
H81    H     0.12341   0.50230   0.42692   0.00000  Uiso   1.00
H82    H     0.06584   0.69278   0.65507   0.00000  Uiso   1.00
H83    H     0.65373   0.32257   0.77674   0.00000  Uiso   1.00
O84    O     0.29197   0.47458   0.39329   0.00000  Uiso   1.00
O85    O     0.21644   0.72447   0.69261   0.00000  Uiso   1.00
O86    O     0.67576   0.23876   0.85224   0.00000  Uiso   1.00
N87    N     0.28687   0.46157   0.48017   0.00000  Uiso   1.00
N88    N     0.23307   0.63966   0.69347   0.00000  Uiso   1.00
N89    N     0.84777   0.29356   0.80723   0.00000  Uiso   1.00
N90    N     0.16449   0.49022   0.45169   0.00000  Uiso   1.00
N91    N     0.11068   0.66832   0.66498   0.00000  Uiso   1.00
N92    N     0.72539   0.32221   0.77875   0.00000  Uiso   1.00
C93    C     0.78086   0.84838   0.28264   0.00000  Uiso   1.00
C94    C     0.73261   0.89108   0.29411   0.00000  Uiso   1.00
C95    C     0.77651   0.93034   0.31111   0.00000  Uiso   1.00
C96    C     0.72004   0.96565   0.31940   0.00000  Uiso   1.00
C97    C     0.65983   0.03252   0.33852   0.00000  Uiso   1.00
C98    C     0.70100   0.79228   0.31764   0.00000  Uiso   1.00
C99    C     0.71833   0.74847   0.35442   0.00000  Uiso   1.00
C100   C     0.63526   0.70061   0.38251   0.00000  Uiso   1.00
C101   C     0.52601   0.61407   0.43813   0.00000  Uiso   1.00
C102   C     0.78675   0.85692   0.22554   0.00000  Uiso   1.00
C103   C     0.87617   0.86744   0.18488   0.00000  Uiso   1.00
C104   C     0.86529   0.87398   0.13543   0.00000  Uiso   1.00
C105   C     0.88917   0.88781   0.04805   0.00000  Uiso   1.00
C106   C     0.60252   0.84129   0.26712   0.00000  Uiso   1.00
C107   C     0.63574   0.88723   0.28568   0.00000  Uiso   1.00
C108   C     0.57920   0.92249   0.29394   0.00000  Uiso   1.00
C109   C     0.62301   0.96179   0.31095   0.00000  Uiso   1.00
C110   C     0.60414   0.78843   0.30921   0.00000  Uiso   1.00
C111   C     0.52103   0.74062   0.33725   0.00000  Uiso   1.00
C112   C     0.53822   0.69675   0.37407   0.00000  Uiso   1.00
C113   C     0.68989   0.85307   0.21711   0.00000  Uiso   1.00
C114   C     0.67886   0.85960   0.16771   0.00000  Uiso   1.00
C115   C     0.76825   0.87012   0.12698   0.00000  Uiso   1.00
H116   H     0.85627   0.85138   0.28921   0.00000  Uiso   1.00
H117   H     0.85147   0.93330   0.31764   0.00000  Uiso   1.00
H118   H     0.79331   0.75146   0.36094   0.00000  Uiso   1.00
H119   H     0.95112   0.87041   0.19142   0.00000  Uiso   1.00
H120   H     0.80341   0.02242   0.34546   0.00000  Uiso   1.00
H121   H     0.68078   0.63898   0.43674   0.00000  Uiso   1.00
H122   H     0.01356   0.88982   0.07929   0.00000  Uiso   1.00
H123   H     0.52711   0.83829   0.26055   0.00000  Uiso   1.00
H124   H     0.50424   0.91950   0.28741   0.00000  Uiso   1.00
H125   H     0.44608   0.73766   0.33071   0.00000  Uiso   1.00
H126   H     0.60389   0.85661   0.16120   0.00000  Uiso   1.00
H127   H     0.52158   0.01122   0.32093   0.00000  Uiso   1.00
H128   H     0.39896   0.62778   0.41221   0.00000  Uiso   1.00
H129   H     0.73173   0.87862   0.05476   0.00000  Uiso   1.00
O130   O     0.65338   0.07046   0.35140   0.00000  Uiso   1.00
O131   O     0.49250   0.56741   0.47115   0.00000  Uiso   1.00
O132   O     0.92910   0.89651   0.00218   0.00000  Uiso   1.00
N133   N     0.74023   0.00864   0.33599   0.00000  Uiso   1.00
N134   N     0.62557   0.65016   0.42134   0.00000  Uiso   1.00
N135   N     0.93669   0.88466   0.08716   0.00000  Uiso   1.00
N136   N     0.58858   0.00262   0.32279   0.00000  Uiso   1.00
N137   N     0.47393   0.64413   0.40814   0.00000  Uiso   1.00
N138   N     0.78504   0.87863   0.07395   0.00000  Uiso   1.00
C139   C     0.58579   0.29898   0.44497   0.00000  Uiso   1.00
C140   C     0.56886   0.35535   0.42222   0.00000  Uiso   1.00
C141   C     0.63713   0.40558   0.41259   0.00000  Uiso   1.00
C142   C     0.60741   0.45250   0.39165   0.00000  Uiso   1.00
C143   C     0.59554   0.54052   0.35796   0.00000  Uiso   1.00
C144   C     0.57720   0.27333   0.40468   0.00000  Uiso   1.00
C145   C     0.65248   0.25459   0.38029   0.00000  Uiso   1.00
C146   C     0.62977   0.23246   0.34459   0.00000  Uiso   1.00
C147   C     0.63081   0.19310   0.28369   0.00000  Uiso   1.00
C148   C     0.49196   0.26416   0.49426   0.00000  Uiso   1.00
C149   C     0.49557   0.23771   0.54520   0.00000  Uiso   1.00
C150   C     0.40110   0.20784   0.58492   0.00000  Uiso   1.00
C151   C     0.26980   0.15425   0.66312   0.00000  Uiso   1.00
C152   C     0.41162   0.29298   0.42492   0.00000  Uiso   1.00
C153   C     0.47425   0.35208   0.41133   0.00000  Uiso   1.00
C154   C     0.44442   0.39894   0.39041   0.00000  Uiso   1.00
C155   C     0.51264   0.44924   0.38074   0.00000  Uiso   1.00
C156   C     0.48260   0.27006   0.39379   0.00000  Uiso   1.00
C157   C     0.45977   0.24795   0.35811   0.00000  Uiso   1.00
C158   C     0.53500   0.22919   0.33368   0.00000  Uiso   1.00
C159   C     0.39735   0.26090   0.48337   0.00000  Uiso   1.00
C160   C     0.30287   0.23106   0.52302   0.00000  Uiso   1.00
C161   C     0.30633   0.20457   0.57402   0.00000  Uiso   1.00
H162   H     0.65944   0.30152   0.45344   0.00000  Uiso   1.00
H163   H     0.71034   0.40809   0.42101   0.00000  Uiso   1.00
H164   H     0.72567   0.25712   0.38873   0.00000  Uiso   1.00
H165   H     0.56879   0.24024   0.55361   0.00000  Uiso   1.00
H166   H     0.72506   0.52481   0.38024   0.00000  Uiso   1.00
H167   H     0.75739   0.20646   0.31218   0.00000  Uiso   1.00
H168   H     0.42657   0.17086   0.65987   0.00000  Uiso   1.00
H169   H     0.33796   0.29043   0.41644   0.00000  Uiso   1.00
H170   H     0.37121   0.39640   0.38198   0.00000  Uiso   1.00
H171   H     0.38655   0.24543   0.34970   0.00000  Uiso   1.00
H172   H     0.22967   0.22855   0.51458   0.00000  Uiso   1.00
H173   H     0.44981   0.51532   0.34856   0.00000  Uiso   1.00
H174   H     0.48214   0.19697   0.28050   0.00000  Uiso   1.00
H175   H     0.15132   0.16137   0.62819   0.00000  Uiso   1.00
O176   O     0.61513   0.58997   0.34238   0.00000  Uiso   1.00
O177   O     0.65753   0.17230   0.25311   0.00000  Uiso   1.00
O178   O     0.22351   0.12560   0.70926   0.00000  Uiso   1.00
N179   N     0.65571   0.50803   0.37752   0.00000  Uiso   1.00
N180   N     0.68594   0.21040   0.31389   0.00000  Uiso   1.00
N181   N     0.37665   0.17711   0.63895   0.00000  Uiso   1.00
N182   N     0.50760   0.50293   0.36048   0.00000  Uiso   1.00
N183   N     0.53783   0.20529   0.29684   0.00000  Uiso   1.00
N184   N     0.22855   0.17200   0.62190   0.00000  Uiso   1.00
C185   C     0.19843   0.70733   0.07276   0.00000  Uiso   1.00
C186   C     0.14762   0.69626   0.03296   0.00000  Uiso   1.00
C187   C     0.17657   0.66709   0.00259   0.00000  Uiso   1.00
C188   C     0.12034   0.66149   0.96851   0.00000  Uiso   1.00
C189   C     0.05392   0.64081   0.90727   0.00000  Uiso   1.00
C190   C     0.11140   0.68460   0.12555   0.00000  Uiso   1.00
C191   C     0.10990   0.64563   0.17302   0.00000  Uiso   1.00
C192   C     0.02318   0.63022   0.21688   0.00000  Uiso   1.00
C193   C     0.90055   0.59147   0.29939   0.00000  Uiso   1.00
C194   C     0.23257   0.76985   0.05531   0.00000  Uiso   1.00
C195   C     0.33295   0.80257   0.04375   0.00000  Uiso   1.00
C196   C     0.34825   0.85893   0.02849   0.00000  Uiso   1.00
C197   C     0.41377   0.95255   0.00195   0.00000  Uiso   1.00
C198   C     0.04711   0.74925   0.06625   0.00000  Uiso   1.00
C199   C     0.06543   0.71903   0.02942   0.00000  Uiso   1.00
C200   C     0.00915   0.71347   0.99538   0.00000  Uiso   1.00
C201   C     0.03801   0.68430   0.96496   0.00000  Uiso   1.00
C202   C     0.02921   0.70737   0.12201   0.00000  Uiso   1.00
C203   C     0.94248   0.69201   0.16581   0.00000  Uiso   1.00
C204   C     0.94084   0.65303   0.21334   0.00000  Uiso   1.00
C205   C     0.15038   0.79263   0.05177   0.00000  Uiso   1.00
C206   C     0.16553   0.84895   0.03654   0.00000  Uiso   1.00
C207   C     0.26591   0.88174   0.02495   0.00000  Uiso   1.00
H208   H     0.26242   0.68960   0.07552   0.00000  Uiso   1.00
H209   H     0.24017   0.64947   0.00534   0.00000  Uiso   1.00
H210   H     0.17351   0.62802   0.17575   0.00000  Uiso   1.00
H211   H     0.39653   0.78493   0.04649   0.00000  Uiso   1.00
H212   H     0.17924   0.61500   0.92600   0.00000  Uiso   1.00
H213   H     0.03870   0.56979   0.28530   0.00000  Uiso   1.00
H214   H     0.50898   0.90067   0.01274   0.00000  Uiso   1.00
H215   H     0.98312   0.76698   0.06349   0.00000  Uiso   1.00
H216   H     0.94555   0.73110   0.99265   0.00000  Uiso   1.00
H217   H     0.87889   0.70964   0.16306   0.00000  Uiso   1.00
H218   H     0.10191   0.86656   0.03380   0.00000  Uiso   1.00
H219   H     0.94011   0.68125   0.91570   0.00000  Uiso   1.00
H220   H     0.79958   0.63604   0.27501   0.00000  Uiso   1.00
H221   H     0.26986   0.96692   0.00245   0.00000  Uiso   1.00
O222   O     0.03998   0.62311   0.87448   0.00000  Uiso   1.00
O223   O     0.85561   0.56380   0.34588   0.00000  Uiso   1.00
O224   O     0.47261   0.99790   0.98828   0.00000  Uiso   1.00
N225   N     0.12813   0.63553   0.93328   0.00000  Uiso   1.00
N226   N     0.99673   0.59325   0.26921   0.00000  Uiso   1.00
N227   N     0.43640   0.90259   0.01441   0.00000  Uiso   1.00
N228   N     0.99946   0.67118   0.92774   0.00000  Uiso   1.00
N229   N     0.86806   0.62890   0.26367   0.00000  Uiso   1.00
N230   N     0.30773   0.93824   0.00887   0.00000  Uiso   1.00
C231   C     0.53661   0.14109   0.17295   0.00000  Uiso   1.00
C232   C     0.42864   0.11062   0.21349   0.00000  Uiso   1.00
C233   C     0.40538   0.09206   0.26827   0.00000  Uiso   1.00
C234   C     0.30182   0.06509   0.29851   0.00000  Uiso   1.00
C235   C     0.14594   0.01903   0.36507   0.00000  Uiso   1.00
C236   C     0.52839   0.19516   0.13579   0.00000  Uiso   1.00
C237   C     0.58901   0.24768   0.12524   0.00000  Uiso   1.00
C238   C     0.56942   0.29187   0.09008   0.00000  Uiso   1.00
C239   C     0.56846   0.37705   0.03598   0.00000  Uiso   1.00
C240   C     0.55510   0.10731   0.13963   0.00000  Uiso   1.00
C241   C     0.63821   0.08596   0.13229   0.00000  Uiso   1.00
C242   C     0.64113   0.05620   0.10034   0.00000  Uiso   1.00
C243   C     0.68165   0.00498   0.05220   0.00000  Uiso   1.00
C244   C     0.39404   0.12621   0.12926   0.00000  Uiso   1.00
C245   C     0.35120   0.10254   0.18976   0.00000  Uiso   1.00
C246   C     0.24765   0.07558   0.21993   0.00000  Uiso   1.00
C247   C     0.22425   0.05698   0.27474   0.00000  Uiso   1.00
C248   C     0.45095   0.18708   0.11207   0.00000  Uiso   1.00
C249   C     0.43128   0.23120   0.07691   0.00000  Uiso   1.00
C250   C     0.49185   0.28377   0.06631   0.00000  Uiso   1.00
C251   C     0.47767   0.09922   0.11590   0.00000  Uiso   1.00
C252   C     0.48047   0.06949   0.08396   0.00000  Uiso   1.00
C253   C     0.56356   0.04810   0.07657   0.00000  Uiso   1.00
H254   H     0.59690   0.14739   0.19142   0.00000  Uiso   1.00
H255   H     0.46533   0.09833   0.28661   0.00000  Uiso   1.00
H256   H     0.64893   0.25392   0.14361   0.00000  Uiso   1.00
H257   H     0.69812   0.09223   0.15066   0.00000  Uiso   1.00
H258   H     0.28531   0.04038   0.38169   0.00000  Uiso   1.00
H259   H     0.67247   0.36845   0.08014   0.00000  Uiso   1.00
H260   H     0.77619   0.02750   0.09500   0.00000  Uiso   1.00
H261   H     0.33375   0.11991   0.11079   0.00000  Uiso   1.00
H262   H     0.18774   0.06933   0.20156   0.00000  Uiso   1.00
H263   H     0.37135   0.22493   0.05855   0.00000  Uiso   1.00
H264   H     0.42053   0.06324   0.06560   0.00000  Uiso   1.00
H265   H     0.06001   0.01685   0.31265   0.00000  Uiso   1.00
H266   H     0.44718   0.34493   0.01110   0.00000  Uiso   1.00
H267   H     0.55089   0.00397   0.02596   0.00000  Uiso   1.00
O268   O     0.08135   0.99586   0.40833   0.00000  Uiso   1.00
O269   O     0.58931   0.42628   0.01271   0.00000  Uiso   1.00
O270   O     0.72538   0.97895   0.03221   0.00000  Uiso   1.00
N271   N     0.25232   0.04178   0.35298   0.00000  Uiso   1.00
N272   N     0.61429   0.34850   0.07106   0.00000  Uiso   1.00
N273   N     0.71127   0.02975   0.08494   0.00000  Uiso   1.00
N274   N     0.13109   0.02911   0.31583   0.00000  Uiso   1.00
N275   N     0.49306   0.33584   0.03391   0.00000  Uiso   1.00
N276   N     0.59004   0.01709   0.04779   0.00000  Uiso   1.00
C277   C     0.94539   0.19636   0.02769   0.00000  Uiso   1.00
C278   C     0.99556   0.25272   0.98166   0.00000  Uiso   1.00
C279   C     0.94641   0.28059   0.94820   0.00000  Uiso   1.00
C280   C     0.00576   0.33170   0.90848   0.00000  Uiso   1.00
C281   C     0.06772   0.41581   0.83795   0.00000  Uiso   1.00
C282   C     0.96081   0.20461   0.07687   0.00000  Uiso   1.00
C283   C     0.88243   0.19203   0.12345   0.00000  Uiso   1.00
C284   C     0.91254   0.20263   0.16388   0.00000  Uiso   1.00
C285   C     0.92054   0.21202   0.24116   0.00000  Uiso   1.00
C286   C     0.01193   0.15999   0.01696   0.00000  Uiso   1.00
C287   C     0.97655   0.10989   0.01320   0.00000  Uiso   1.00
C288   C     0.04969   0.08292   0.00320   0.00000  Uiso   1.00
C289   C     0.13708   0.02303   0.98748   0.00000  Uiso   1.00
C290   C     0.13820   0.23755   0.01664   0.00000  Uiso   1.00
C291   C     0.10028   0.27509   0.97567   0.00000  Uiso   1.00
C292   C     0.15973   0.32617   0.93599   0.00000  Uiso   1.00
C293   C     0.11068   0.35411   0.90247   0.00000  Uiso   1.00
C294   C     0.06553   0.22698   0.07087   0.00000  Uiso   1.00
C295   C     0.09575   0.23760   0.11124   0.00000  Uiso   1.00
C296   C     0.01745   0.22504   0.15787   0.00000  Uiso   1.00
C297   C     0.11666   0.18237   0.01096   0.00000  Uiso   1.00
C298   C     0.18987   0.15547   0.00098   0.00000  Uiso   1.00
C299   C     0.15461   0.10533   0.99719   0.00000  Uiso   1.00
H300   H     0.86386   0.17894   0.03236   0.00000  Uiso   1.00
H301   H     0.86536   0.26326   0.95286   0.00000  Uiso   1.00
H302   H     0.80140   0.17471   0.12808   0.00000  Uiso   1.00
H303   H     0.89550   0.09259   0.01784   0.00000  Uiso   1.00
H304   H     0.91320   0.36663   0.86209   0.00000  Uiso   1.00
H305   H     0.77834   0.17989   0.23157   0.00000  Uiso   1.00
H306   H     0.97677   0.00671   0.99910   0.00000  Uiso   1.00
H307   H     0.21973   0.25497   0.01198   0.00000  Uiso   1.00
H308   H     0.24077   0.34347   0.93136   0.00000  Uiso   1.00
H309   H     0.17680   0.25491   0.10658   0.00000  Uiso   1.00
H310   H     0.27090   0.17279   0.99634   0.00000  Uiso   1.00
H311   H     0.21789   0.43172   0.84464   0.00000  Uiso   1.00
H312   H     0.08303   0.24498   0.21411   0.00000  Uiso   1.00
H313   H     0.28146   0.07181   0.98165   0.00000  Uiso   1.00
O314   O     0.07295   0.45602   0.80071   0.00000  Uiso   1.00
O315   O     0.89602   0.21102   0.28545   0.00000  Uiso   1.00
O316   O     0.15636   0.98382   0.98046   0.00000  Uiso   1.00
N317   N     0.98203   0.36980   0.86904   0.00000  Uiso   1.00
N318   N     0.85594   0.19521   0.21447   0.00000  Uiso   1.00
N319   N     0.04145   0.03331   0.99715   0.00000  Uiso   1.00
N320   N     0.14598   0.40482   0.85965   0.00000  Uiso   1.00
N321   N     0.01989   0.23024   0.20508   0.00000  Uiso   1.00
N322   N     0.20540   0.06833   0.98776   0.00000  Uiso   1.00
C323   C     0.53789   0.63638   0.09027   0.00000  Uiso   1.00
C324   C     0.51376   0.63280   0.14716   0.00000  Uiso   1.00
C325   C     0.41536   0.61412   0.18406   0.00000  Uiso   1.00
C326   C     0.40968   0.61403   0.23401   0.00000  Uiso   1.00
C327   C     0.35858   0.60572   0.32045   0.00000  Uiso   1.00
C328   C     0.61319   0.60268   0.08479   0.00000  Uiso   1.00
C329   C     0.59839   0.55868   0.06923   0.00000  Uiso   1.00
C330   C     0.67642   0.53324   0.06667   0.00000  Uiso   1.00
C331   C     0.77973   0.47818   0.05623   0.00000  Uiso   1.00
C332   C     0.59974   0.69631   0.05469   0.00000  Uiso   1.00
C333   C     0.57366   0.73104   0.01382   0.00000  Uiso   1.00
C334   C     0.64039   0.78444   0.98590   0.00000  Uiso   1.00
C335   C     0.72281   0.87477   0.92874   0.00000  Uiso   1.00
C336   C     0.70279   0.66944   0.11337   0.00000  Uiso   1.00
C337   C     0.60333   0.65076   0.15971   0.00000  Uiso   1.00
C338   C     0.59780   0.65070   0.20962   0.00000  Uiso   1.00
C339   C     0.49940   0.63203   0.24658   0.00000  Uiso   1.00
C340   C     0.70275   0.62063   0.09733   0.00000  Uiso   1.00
C341   C     0.78083   0.59526   0.09479   0.00000  Uiso   1.00
C342   C     0.76615   0.55123   0.07924   0.00000  Uiso   1.00
C343   C     0.68931   0.71428   0.06724   0.00000  Uiso   1.00
C344   C     0.75610   0.76763   0.03938   0.00000  Uiso   1.00
C345   C     0.73012   0.80243   0.99847   0.00000  Uiso   1.00
H346   H     0.46816   0.62239   0.08050   0.00000  Uiso   1.00
H347   H     0.34606   0.60022   0.17433   0.00000  Uiso   1.00
H348   H     0.52907   0.54479   0.05952   0.00000  Uiso   1.00
H349   H     0.50434   0.71713   0.00412   0.00000  Uiso   1.00
H350   H     0.25018   0.58354   0.28391   0.00000  Uiso   1.00
H351   H     0.63609   0.46667   0.04180   0.00000  Uiso   1.00
H352   H     0.58394   0.83008   0.92497   0.00000  Uiso   1.00
H353   H     0.77253   0.68343   0.12314   0.00000  Uiso   1.00
H354   H     0.66712   0.66460   0.21931   0.00000  Uiso   1.00
H355   H     0.85014   0.60917   0.10450   0.00000  Uiso   1.00
H356   H     0.82540   0.78151   0.04910   0.00000  Uiso   1.00
H357   H     0.51077   0.63579   0.32041   0.00000  Uiso   1.00
H358   H     0.89668   0.51893   0.07830   0.00000  Uiso   1.00
H359   H     0.84453   0.88234   0.96148   0.00000  Uiso   1.00
O360   O     0.30565   0.59616   0.36466   0.00000  Uiso   1.00
O361   O     0.81195   0.44285   0.04701   0.00000  Uiso   1.00
O362   O     0.74353   0.91963   0.89374   0.00000  Uiso   1.00
N363   N     0.32598   0.59843   0.27930   0.00000  Uiso   1.00
N364   N     0.68677   0.48916   0.05295   0.00000  Uiso   1.00
N365   N     0.63803   0.82892   0.94371   0.00000  Uiso   1.00
N366   N     0.46620   0.62655   0.29894   0.00000  Uiso   1.00
N367   N     0.82699   0.51728   0.07259   0.00000  Uiso   1.00
N368   N     0.77825   0.85703   0.96336   0.00000  Uiso   1.00
C369   C     0.84081   0.24843   0.47339   0.00000  Uiso   1.00
C370   C     0.87803   0.20867   0.45110   0.00000  Uiso   1.00
C371   C     0.82045   0.17478   0.43303   0.00000  Uiso   1.00
C372   C     0.86846   0.14140   0.41413   0.00000  Uiso   1.00
C373   C     0.91077   0.07960   0.37961   0.00000  Uiso   1.00
C374   C     0.91962   0.30512   0.43953   0.00000  Uiso   1.00
C375   C     0.89700   0.35231   0.41174   0.00000  Uiso   1.00
C376   C     0.98001   0.40012   0.38310   0.00000  Uiso   1.00
C377   C     0.08687   0.48806   0.33066   0.00000  Uiso   1.00
C378   C     0.85338   0.23219   0.52856   0.00000  Uiso   1.00
C379   C     0.77507   0.21809   0.57562   0.00000  Uiso   1.00
C380   C     0.80231   0.20451   0.62194   0.00000  Uiso   1.00
C381   C     0.80632   0.17923   0.70772   0.00000  Uiso   1.00
C382   C     0.02845   0.24942   0.47197   0.00000  Uiso   1.00
C383   C     0.97995   0.20921   0.45033   0.00000  Uiso   1.00
C384   C     0.02805   0.17587   0.43145   0.00000  Uiso   1.00
C385   C     0.97055   0.14194   0.41336   0.00000  Uiso   1.00
C386   C     0.02153   0.30565   0.43876   0.00000  Uiso   1.00
C387   C     0.10459   0.35341   0.41016   0.00000  Uiso   1.00
C388   C     0.08211   0.40066   0.38233   0.00000  Uiso   1.00
C389   C     0.95529   0.23273   0.52778   0.00000  Uiso   1.00
C390   C     0.98267   0.21918   0.57404   0.00000  Uiso   1.00
C391   C     0.90441   0.20505   0.62116   0.00000  Uiso   1.00
H392   H     0.76147   0.24802   0.47399   0.00000  Uiso   1.00
H393   H     0.74159   0.17438   0.43363   0.00000  Uiso   1.00
H394   H     0.81812   0.35189   0.41235   0.00000  Uiso   1.00
H395   H     0.69621   0.21768   0.57620   0.00000  Uiso   1.00
H396   H     0.76451   0.09299   0.38852   0.00000  Uiso   1.00
H397   H     0.92587   0.46727   0.34366   0.00000  Uiso   1.00
H398   H     0.66880   0.18427   0.68918   0.00000  Uiso   1.00
H399   H     0.10780   0.24984   0.47136   0.00000  Uiso   1.00
H400   H     0.10692   0.17630   0.43086   0.00000  Uiso   1.00
H401   H     0.18345   0.35381   0.40958   0.00000  Uiso   1.00
H402   H     0.06154   0.21960   0.57343   0.00000  Uiso   1.00
H403   H     0.06103   0.09455   0.38627   0.00000  Uiso   1.00
H404   H     0.22239   0.46883   0.34141   0.00000  Uiso   1.00
H405   H     0.96532   0.18583   0.68693   0.00000  Uiso   1.00
O406   O     0.90595   0.04538   0.36078   0.00000  Uiso   1.00
O407   O     0.11765   0.53642   0.30194   0.00000  Uiso   1.00
O408   O     0.78038   0.16512   0.75524   0.00000  Uiso   1.00
N409   N     0.83440   0.10344   0.39356   0.00000  Uiso   1.00
N410   N     0.98527   0.45337   0.35161   0.00000  Uiso   1.00
N411   N     0.74494   0.18880   0.67464   0.00000  Uiso   1.00
N412   N     0.99396   0.10428   0.39235   0.00000  Uiso   1.00
N413   N     0.14483   0.45421   0.35040   0.00000  Uiso   1.00
N414   N     0.90449   0.18964   0.67343   0.00000  Uiso   1.00
C415   C     0.07252   0.82575   0.36125   0.00000  Uiso   1.00
C416   C     0.08184   0.76798   0.37063   0.00000  Uiso   1.00
C417   C     0.99946   0.71986   0.39133   0.00000  Uiso   1.00
C418   C     0.02422   0.67114   0.39683   0.00000  Uiso   1.00
C419   C     0.02295   0.58151   0.41365   0.00000  Uiso   1.00
C420   C     0.13552   0.84761   0.39201   0.00000  Uiso   1.00
C421   C     0.09827   0.86645   0.43068   0.00000  Uiso   1.00
C422   C     0.16823   0.88476   0.45418   0.00000  Uiso   1.00
C423   C     0.25032   0.91879   0.50416   0.00000  Uiso   1.00
C424   C     0.13072   0.86101   0.30259   0.00000  Uiso   1.00
C425   C     0.08945   0.89113   0.26608   0.00000  Uiso   1.00
C426   C     0.15538   0.92073   0.21429   0.00000  Uiso   1.00
C427   C     0.23002   0.97557   0.12544   0.00000  Uiso   1.00
C428   C     0.26298   0.82478   0.33421   0.00000  Uiso   1.00
C429   C     0.18529   0.76746   0.35595   0.00000  Uiso   1.00
C430   C     0.21018   0.71879   0.36142   0.00000  Uiso   1.00
C431   C     0.12785   0.67061   0.38212   0.00000  Uiso   1.00
C432   C     0.23897   0.84708   0.37733   0.00000  Uiso   1.00
C433   C     0.30900   0.86538   0.40077   0.00000  Uiso   1.00
C434   C     0.27187   0.88423   0.43946   0.00000  Uiso   1.00
C435   C     0.23417   0.86048   0.28790   0.00000  Uiso   1.00
C436   C     0.30018   0.89005   0.23616   0.00000  Uiso   1.00
C437   C     0.25902   0.92020   0.19958   0.00000  Uiso   1.00
H438   H     0.99198   0.82617   0.37269   0.00000  Uiso   1.00
H439   H     0.91941   0.72029   0.40269   0.00000  Uiso   1.00
H440   H     0.01821   0.86686   0.44203   0.00000  Uiso   1.00
H441   H     0.00939   0.89152   0.27746   0.00000  Uiso   1.00
H442   H     0.88457   0.60267   0.42950   0.00000  Uiso   1.00
H443   H     0.09292   0.91173   0.51244   0.00000  Uiso   1.00
H444   H     0.07432   0.96375   0.16540   0.00000  Uiso   1.00
H445   H     0.34353   0.82438   0.32278   0.00000  Uiso   1.00
H446   H     0.29025   0.71840   0.35005   0.00000  Uiso   1.00
H447   H     0.38905   0.86496   0.38939   0.00000  Uiso   1.00
H448   H     0.38023   0.88963   0.22481   0.00000  Uiso   1.00
H449   H     0.18556   0.60113   0.38678   0.00000  Uiso   1.00
H450   H     0.39390   0.91020   0.46971   0.00000  Uiso   1.00
H451   H     0.37531   0.96222   0.12267   0.00000  Uiso   1.00
O452   O     0.99368   0.53222   0.42699   0.00000  Uiso   1.00
O453   O     0.26702   0.93770   0.53580   0.00000  Uiso   1.00
O454   O     0.24262   0.00595   0.08049   0.00000  Uiso   1.00
N455   N     0.96272   0.61685   0.41569   0.00000  Uiso   1.00
N456   N     0.15751   0.90580   0.49324   0.00000  Uiso   1.00
N457   N     0.14013   0.95445   0.16879   0.00000  Uiso   1.00
N458   N     0.12468   0.61603   0.39270   0.00000  Uiso   1.00
N459   N     0.31946   0.90497   0.47025   0.00000  Uiso   1.00
N460   N     0.30209   0.95362   0.14580   0.00000  Uiso   1.00
C461   C     0.38937   0.46025   0.74080   0.00000  Uiso   1.00
C462   C     0.39775   0.49538   0.77332   0.00000  Uiso   1.00
C463   C     0.32262   0.51826   0.79079   0.00000  Uiso   1.00
C464   C     0.34509   0.54909   0.82001   0.00000  Uiso   1.00
C465   C     0.34379   0.60250   0.86875   0.00000  Uiso   1.00
C466   C     0.48372   0.48900   0.69083   0.00000  Uiso   1.00
C467   C     0.48087   0.50650   0.63894   0.00000  Uiso   1.00
C468   C     0.57571   0.53195   0.59872   0.00000  Uiso   1.00
C469   C     0.70787   0.57540   0.51939   0.00000  Uiso   1.00
C470   C     0.40554   0.40603   0.77252   0.00000  Uiso   1.00
C471   C     0.33698   0.35376   0.78932   0.00000  Uiso   1.00
C472   C     0.36602   0.30935   0.81787   0.00000  Uiso   1.00
C473   C     0.37681   0.22398   0.86539   0.00000  Uiso   1.00
C474   C     0.56287   0.47432   0.76163   0.00000  Uiso   1.00
C475   C     0.49199   0.50302   0.78463   0.00000  Uiso   1.00
C476   C     0.51458   0.53382   0.81383   0.00000  Uiso   1.00
C477   C     0.43949   0.55674   0.83134   0.00000  Uiso   1.00
C478   C     0.57795   0.49664   0.70214   0.00000  Uiso   1.00
C479   C     0.67282   0.52206   0.66198   0.00000  Uiso   1.00
C480   C     0.67012   0.53960   0.61005   0.00000  Uiso   1.00
C481   C     0.49978   0.41366   0.78384   0.00000  Uiso   1.00
C482   C     0.52894   0.36933   0.81236   0.00000  Uiso   1.00
C483   C     0.46042   0.31701   0.82920   0.00000  Uiso   1.00
H484   H     0.31601   0.45431   0.73199   0.00000  Uiso   1.00
H485   H     0.24970   0.51234   0.78202   0.00000  Uiso   1.00
H486   H     0.40793   0.50058   0.63020   0.00000  Uiso   1.00
H487   H     0.26406   0.34787   0.78056   0.00000  Uiso   1.00
H488   H     0.21777   0.58008   0.84246   0.00000  Uiso   1.00
H489   H     0.55139   0.55525   0.52234   0.00000  Uiso   1.00
H490   H     0.24802   0.23323   0.83939   0.00000  Uiso   1.00
H491   H     0.63624   0.48027   0.77043   0.00000  Uiso   1.00
H492   H     0.58751   0.53973   0.82257   0.00000  Uiso   1.00
H493   H     0.74573   0.52796   0.67075   0.00000  Uiso   1.00
H494   H     0.60187   0.37525   0.82110   0.00000  Uiso   1.00
H495   H     0.49195   0.60230   0.87537   0.00000  Uiso   1.00
H496   H     0.82557   0.57747   0.55524   0.00000  Uiso   1.00
H497   H     0.52220   0.25545   0.87230   0.00000  Uiso   1.00
O498   O     0.31704   0.62985   0.89251   0.00000  Uiso   1.00
O499   O     0.75474   0.59727   0.47252   0.00000  Uiso   1.00
O500   O     0.35672   0.17479   0.88849   0.00000  Uiso   1.00
N501   N     0.28898   0.57714   0.84306   0.00000  Uiso   1.00
N502   N     0.60089   0.55393   0.54376   0.00000  Uiso   1.00
N503   N     0.31728   0.25287   0.84017   0.00000  Uiso   1.00
N504   N     0.43651   0.58910   0.86077   0.00000  Uiso   1.00
N505   N     0.74843   0.56589   0.56147   0.00000  Uiso   1.00
N506   N     0.46481   0.26483   0.85788   0.00000  Uiso   1.00
C507   C     0.54344   0.96288   0.62812   0.00000  Uiso   1.00
C508   C     0.52637   0.99171   0.57527   0.00000  Uiso   1.00
C509   C     0.44882   0.01665   0.56852   0.00000  Uiso   1.00
C510   C     0.44629   0.04078   0.51696   0.00000  Uiso   1.00
C511   C     0.40874   0.08564   0.44148   0.00000  Uiso   1.00
C512   C     0.54013   0.90448   0.63263   0.00000  Uiso   1.00
C513   C     0.47415   0.85607   0.67412   0.00000  Uiso   1.00
C514   C     0.48321   0.80677   0.67085   0.00000  Uiso   1.00
C515   C     0.46707   0.71621   0.68444   0.00000  Uiso   1.00
C516   C     0.65523   0.99143   0.62194   0.00000  Uiso   1.00
C517   C     0.68604   0.01613   0.65444   0.00000  Uiso   1.00
C518   C     0.79201   0.04002   0.64218   0.00000  Uiso   1.00
C519   C     0.95458   0.08447   0.63916   0.00000  Uiso   1.00
C520   C     0.67685   0.96140   0.54856   0.00000  Uiso   1.00
C521   C     0.59883   0.99091   0.53206   0.00000  Uiso   1.00
C522   C     0.59642   0.01501   0.48049   0.00000  Uiso   1.00
C523   C     0.51889   0.03998   0.47367   0.00000  Uiso   1.00
C524   C     0.61258   0.90367   0.58942   0.00000  Uiso   1.00
C525   C     0.62175   0.85443   0.58609   0.00000  Uiso   1.00
C526   C     0.55580   0.80597   0.62756   0.00000  Uiso   1.00
C527   C     0.72769   0.99063   0.57872   0.00000  Uiso   1.00
C528   C     0.83364   0.01449   0.56641   0.00000  Uiso   1.00
C529   C     0.86461   0.03922   0.59888   0.00000  Uiso   1.00
H530   H     0.48702   0.96351   0.66177   0.00000  Uiso   1.00
H531   H     0.39275   0.01726   0.60198   0.00000  Uiso   1.00
H532   H     0.41809   0.85671   0.70756   0.00000  Uiso   1.00
H533   H     0.62994   0.01674   0.68788   0.00000  Uiso   1.00
H534   H     0.32017   0.07648   0.51663   0.00000  Uiso   1.00
H535   H     0.37362   0.73796   0.73926   0.00000  Uiso   1.00
H536   H     0.82035   0.07541   0.69777   0.00000  Uiso   1.00
H537   H     0.73326   0.96077   0.51491   0.00000  Uiso   1.00
H538   H     0.65251   0.01438   0.44706   0.00000  Uiso   1.00
H539   H     0.67784   0.85383   0.55264   0.00000  Uiso   1.00
H540   H     0.88969   0.01386   0.53296   0.00000  Uiso   1.00
H541   H     0.53100   0.07414   0.39089   0.00000  Uiso   1.00
H542   H     0.58444   0.73561   0.61353   0.00000  Uiso   1.00
H543   H     0.03118   0.07307   0.57203   0.00000  Uiso   1.00
O544   O     0.36800   0.11060   0.41178   0.00000  Uiso   1.00
O545   O     0.43813   0.66648   0.70387   0.00000  Uiso   1.00
O546   O     0.02423   0.10921   0.64943   0.00000  Uiso   1.00
N547   N     0.38089   0.06858   0.49635   0.00000  Uiso   1.00
N548   N     0.43084   0.75208   0.70449   0.00000  Uiso   1.00
N549   N     0.84850   0.06756   0.66571   0.00000  Uiso   1.00
N550   N     0.49433   0.06732   0.42869   0.00000  Uiso   1.00
N551   N     0.54429   0.75082   0.63683   0.00000  Uiso   1.00
N552   N     0.96195   0.06630   0.59805   0.00000  Uiso   1.00
