data_job_04695
_audit_creation_date              2018-12-19
_audit_creation_method            'Materials Studio'
_symmetry_space_group_name_H-M    'P1'
_symmetry_Int_Tables_number       1
_symmetry_cell_setting            triclinic
loop_
_symmetry_equiv_pos_as_xyz
  x,y,z
_cell_length_a                    7.0681
_cell_length_b                    12.2330
_cell_length_c                    27.5607
_cell_angle_alpha                 90.0000
_cell_angle_beta                  104.4983
_cell_angle_gamma                 90.0000
loop_
_atom_site_label
_atom_site_type_symbol
_atom_site_fract_x
_atom_site_fract_y
_atom_site_fract_z
_atom_site_U_iso_or_equiv
_atom_site_adp_type
_atom_site_occupancy
C1     C     0.23592   0.30642   0.13955   0.00000  Uiso   1.00
C2     C     0.07924   0.38366   0.11018   0.00000  Uiso   1.00
C3     C     0.11256   0.47681   0.08479   0.00000  Uiso   1.00
C4     C     0.94972   0.53655   0.06020   0.00000  Uiso   1.00
C5     C     0.73524   0.66142   0.01449   0.00000  Uiso   1.00
C6     C     0.20628   0.30159   0.19244   0.00000  Uiso   1.00
C7     C     0.34642   0.32574   0.23623   0.00000  Uiso   1.00
C8     C     0.29052   0.31638   0.28089   0.00000  Uiso   1.00
C9     C     0.27331   0.31377   0.36290   0.00000  Uiso   1.00
C10    C     0.18344   0.19322   0.11704   0.00000  Uiso   1.00
C11    C     0.30440   0.12622   0.09743   0.00000  Uiso   1.00
C12    C     0.22929   0.02560   0.07861   0.00000  Uiso   1.00
C13    C     0.17663   0.85472   0.04354   0.00000  Uiso   1.00
C14    C     0.88747   0.24687   0.14101   0.00000  Uiso   1.00
C15    C     0.88998   0.35131   0.11097   0.00000  Uiso   1.00
C16    C     0.72704   0.41092   0.08641   0.00000  Uiso   1.00
C17    C     0.76011   0.50414   0.06099   0.00000  Uiso   1.00
C18    C     0.01702   0.26925   0.19324   0.00000  Uiso   1.00
C19    C     0.96091   0.25985   0.23785   0.00000  Uiso   1.00
C20    C     0.10092   0.28398   0.28169   0.00000  Uiso   1.00
C21    C     0.99418   0.16087   0.11783   0.00000  Uiso   1.00
C22    C     0.91888   0.06033   0.09904   0.00000  Uiso   1.00
C23    C     0.03969   0.99320   0.07941   0.00000  Uiso   1.00
H24    H     0.38327   0.33161   0.13894   0.00000  Uiso   1.00
H25    H     0.25905   0.50182   0.08419   0.00000  Uiso   1.00
H26    H     0.49288   0.35076   0.23560   0.00000  Uiso   1.00
H27    H     0.45085   0.15128   0.09682   0.00000  Uiso   1.00
H28    H     0.03787   0.67629   0.02387   0.00000  Uiso   1.00
H29    H     0.53093   0.35773   0.34312   0.00000  Uiso   1.00
H30    H     0.44233   0.93708   0.05048   0.00000  Uiso   1.00
H31    H     0.74011   0.22168   0.14163   0.00000  Uiso   1.00
H32    H     0.58060   0.38587   0.08703   0.00000  Uiso   1.00
H33    H     0.81443   0.23481   0.23844   0.00000  Uiso   1.00
H34    H     0.77241   0.03533   0.09966   0.00000  Uiso   1.00
H35    H     0.48722   0.58218   0.02617   0.00000  Uiso   1.00
H36    H     0.98028   0.26362   0.34543   0.00000  Uiso   1.00
H37    H     0.89167   0.84297   0.05278   0.00000  Uiso   1.00
O38    O     0.66922   0.73924   0.98907   0.00000  Uiso   1.00
O39    O     0.31611   0.32129   0.40792   0.00000  Uiso   1.00
O40    O     0.19986   0.76941   0.02398   0.00000  Uiso   1.00
N41    N     0.93016   0.63160   0.03189   0.00000  Uiso   1.00
N42    N     0.39114   0.33378   0.33038   0.00000  Uiso   1.00
N43    N     0.30832   0.94050   0.05679   0.00000  Uiso   1.00
N44    N     0.63386   0.58096   0.03313   0.00000  Uiso   1.00
N45    N     0.09483   0.28314   0.33162   0.00000  Uiso   1.00
N46    N     0.01202   0.88986   0.05803   0.00000  Uiso   1.00
C47    C     0.76408   0.80642   0.36045   0.00000  Uiso   1.00
C48    C     0.92076   0.88366   0.38982   0.00000  Uiso   1.00
C49    C     0.88744   0.97681   0.41521   0.00000  Uiso   1.00
C50    C     0.05028   0.03655   0.43980   0.00000  Uiso   1.00
C51    C     0.26476   0.16142   0.48551   0.00000  Uiso   1.00
C52    C     0.79372   0.80159   0.30756   0.00000  Uiso   1.00
C53    C     0.65358   0.82574   0.26377   0.00000  Uiso   1.00
C54    C     0.70948   0.81638   0.21911   0.00000  Uiso   1.00
C55    C     0.72669   0.81377   0.13710   0.00000  Uiso   1.00
C56    C     0.81656   0.69322   0.38296   0.00000  Uiso   1.00
C57    C     0.69560   0.62622   0.40257   0.00000  Uiso   1.00
C58    C     0.77071   0.52560   0.42139   0.00000  Uiso   1.00
C59    C     0.82337   0.35472   0.45646   0.00000  Uiso   1.00
C60    C     0.11253   0.74687   0.35899   0.00000  Uiso   1.00
C61    C     0.11002   0.85131   0.38903   0.00000  Uiso   1.00
C62    C     0.27296   0.91092   0.41359   0.00000  Uiso   1.00
C63    C     0.23989   0.00414   0.43901   0.00000  Uiso   1.00
C64    C     0.98298   0.76925   0.30676   0.00000  Uiso   1.00
C65    C     0.03909   0.75985   0.26215   0.00000  Uiso   1.00
C66    C     0.89908   0.78398   0.21831   0.00000  Uiso   1.00
C67    C     0.00582   0.66087   0.38217   0.00000  Uiso   1.00
C68    C     0.08112   0.56033   0.40096   0.00000  Uiso   1.00
C69    C     0.96031   0.49320   0.42059   0.00000  Uiso   1.00
H70    H     0.61673   0.83161   0.36106   0.00000  Uiso   1.00
H71    H     0.74095   0.00182   0.41581   0.00000  Uiso   1.00
H72    H     0.50712   0.85076   0.26440   0.00000  Uiso   1.00
H73    H     0.54915   0.65128   0.40318   0.00000  Uiso   1.00
H74    H     0.96213   0.17629   0.47613   0.00000  Uiso   1.00
H75    H     0.46907   0.85773   0.15688   0.00000  Uiso   1.00
H76    H     0.55767   0.43708   0.44952   0.00000  Uiso   1.00
H77    H     0.25989   0.72168   0.35837   0.00000  Uiso   1.00
H78    H     0.41940   0.88587   0.41297   0.00000  Uiso   1.00
H79    H     0.18557   0.73481   0.26156   0.00000  Uiso   1.00
H80    H     0.22759   0.53533   0.40034   0.00000  Uiso   1.00
H81    H     0.51278   0.08218   0.47383   0.00000  Uiso   1.00
H82    H     0.01972   0.76362   0.15457   0.00000  Uiso   1.00
H83    H     0.10833   0.34297   0.44722   0.00000  Uiso   1.00
O84    O     0.33078   0.23924   0.51093   0.00000  Uiso   1.00
O85    O     0.68389   0.82129   0.09208   0.00000  Uiso   1.00
O86    O     0.80014   0.26941   0.47602   0.00000  Uiso   1.00
N87    N     0.06984   0.13160   0.46811   0.00000  Uiso   1.00
N88    N     0.60886   0.83378   0.16962   0.00000  Uiso   1.00
N89    N     0.69168   0.44050   0.44321   0.00000  Uiso   1.00
N90    N     0.36614   0.08096   0.46687   0.00000  Uiso   1.00
N91    N     0.90517   0.78314   0.16838   0.00000  Uiso   1.00
N92    N     0.98798   0.38986   0.44197   0.00000  Uiso   1.00
C93    C     0.76408   0.69358   0.86045   0.00000  Uiso   1.00
C94    C     0.92076   0.61634   0.88982   0.00000  Uiso   1.00
C95    C     0.88744   0.52319   0.91521   0.00000  Uiso   1.00
C96    C     0.05028   0.46345   0.93980   0.00000  Uiso   1.00
C97    C     0.26476   0.33858   0.98551   0.00000  Uiso   1.00
C98    C     0.79372   0.69841   0.80756   0.00000  Uiso   1.00
C99    C     0.65358   0.67426   0.76377   0.00000  Uiso   1.00
C100   C     0.70948   0.68362   0.71911   0.00000  Uiso   1.00
C101   C     0.72669   0.68623   0.63710   0.00000  Uiso   1.00
C102   C     0.81656   0.80678   0.88296   0.00000  Uiso   1.00
C103   C     0.69560   0.87378   0.90257   0.00000  Uiso   1.00
C104   C     0.77071   0.97440   0.92139   0.00000  Uiso   1.00
C105   C     0.82337   0.14528   0.95646   0.00000  Uiso   1.00
C106   C     0.11253   0.75313   0.85899   0.00000  Uiso   1.00
C107   C     0.11002   0.64869   0.88903   0.00000  Uiso   1.00
C108   C     0.27296   0.58908   0.91359   0.00000  Uiso   1.00
C109   C     0.23989   0.49586   0.93901   0.00000  Uiso   1.00
C110   C     0.98298   0.73075   0.80676   0.00000  Uiso   1.00
C111   C     0.03909   0.74015   0.76215   0.00000  Uiso   1.00
C112   C     0.89908   0.71602   0.71831   0.00000  Uiso   1.00
C113   C     0.00582   0.83913   0.88217   0.00000  Uiso   1.00
C114   C     0.08112   0.93967   0.90096   0.00000  Uiso   1.00
C115   C     0.96031   0.00680   0.92059   0.00000  Uiso   1.00
H116   H     0.61673   0.66839   0.86106   0.00000  Uiso   1.00
H117   H     0.74095   0.49818   0.91581   0.00000  Uiso   1.00
H118   H     0.50712   0.64924   0.76440   0.00000  Uiso   1.00
H119   H     0.54915   0.84872   0.90318   0.00000  Uiso   1.00
H120   H     0.96213   0.32371   0.97613   0.00000  Uiso   1.00
H121   H     0.46907   0.64227   0.65688   0.00000  Uiso   1.00
H122   H     0.55767   0.06292   0.94952   0.00000  Uiso   1.00
H123   H     0.25989   0.77832   0.85837   0.00000  Uiso   1.00
H124   H     0.41940   0.61413   0.91297   0.00000  Uiso   1.00
H125   H     0.18557   0.76519   0.76156   0.00000  Uiso   1.00
H126   H     0.22759   0.96467   0.90034   0.00000  Uiso   1.00
H127   H     0.51278   0.41782   0.97383   0.00000  Uiso   1.00
H128   H     0.01972   0.73638   0.65457   0.00000  Uiso   1.00
H129   H     0.10833   0.15703   0.94722   0.00000  Uiso   1.00
O130   O     0.33078   0.26076   0.01093   0.00000  Uiso   1.00
O131   O     0.68389   0.67871   0.59208   0.00000  Uiso   1.00
O132   O     0.80014   0.23059   0.97602   0.00000  Uiso   1.00
N133   N     0.06984   0.36840   0.96811   0.00000  Uiso   1.00
N134   N     0.60886   0.66622   0.66962   0.00000  Uiso   1.00
N135   N     0.69168   0.05950   0.94321   0.00000  Uiso   1.00
N136   N     0.36614   0.41904   0.96687   0.00000  Uiso   1.00
N137   N     0.90517   0.71686   0.66838   0.00000  Uiso   1.00
N138   N     0.98798   0.11014   0.94197   0.00000  Uiso   1.00
C139   C     0.23592   0.19358   0.63955   0.00000  Uiso   1.00
C140   C     0.07924   0.11634   0.61018   0.00000  Uiso   1.00
C141   C     0.11256   0.02319   0.58479   0.00000  Uiso   1.00
C142   C     0.94972   0.96345   0.56020   0.00000  Uiso   1.00
C143   C     0.73524   0.83858   0.51449   0.00000  Uiso   1.00
C144   C     0.20628   0.19841   0.69244   0.00000  Uiso   1.00
C145   C     0.34642   0.17426   0.73623   0.00000  Uiso   1.00
C146   C     0.29052   0.18362   0.78089   0.00000  Uiso   1.00
C147   C     0.27331   0.18623   0.86290   0.00000  Uiso   1.00
C148   C     0.18344   0.30678   0.61704   0.00000  Uiso   1.00
C149   C     0.30440   0.37378   0.59743   0.00000  Uiso   1.00
C150   C     0.22929   0.47440   0.57861   0.00000  Uiso   1.00
C151   C     0.17663   0.64528   0.54354   0.00000  Uiso   1.00
C152   C     0.88747   0.25313   0.64101   0.00000  Uiso   1.00
C153   C     0.88998   0.14869   0.61097   0.00000  Uiso   1.00
C154   C     0.72704   0.08908   0.58641   0.00000  Uiso   1.00
C155   C     0.76011   0.99586   0.56099   0.00000  Uiso   1.00
C156   C     0.01702   0.23075   0.69324   0.00000  Uiso   1.00
C157   C     0.96091   0.24015   0.73785   0.00000  Uiso   1.00
C158   C     0.10092   0.21602   0.78169   0.00000  Uiso   1.00
C159   C     0.99418   0.33913   0.61783   0.00000  Uiso   1.00
C160   C     0.91888   0.43967   0.59904   0.00000  Uiso   1.00
C161   C     0.03969   0.50680   0.57941   0.00000  Uiso   1.00
H162   H     0.38327   0.16839   0.63894   0.00000  Uiso   1.00
H163   H     0.25905   0.99818   0.58419   0.00000  Uiso   1.00
H164   H     0.49288   0.14924   0.73560   0.00000  Uiso   1.00
H165   H     0.45085   0.34872   0.59682   0.00000  Uiso   1.00
H166   H     0.03787   0.82371   0.52387   0.00000  Uiso   1.00
H167   H     0.53093   0.14227   0.84312   0.00000  Uiso   1.00
H168   H     0.44233   0.56292   0.55048   0.00000  Uiso   1.00
H169   H     0.74011   0.27832   0.64163   0.00000  Uiso   1.00
H170   H     0.58060   0.11413   0.58703   0.00000  Uiso   1.00
H171   H     0.81443   0.26519   0.73844   0.00000  Uiso   1.00
H172   H     0.77241   0.46467   0.59966   0.00000  Uiso   1.00
H173   H     0.48722   0.91782   0.52617   0.00000  Uiso   1.00
H174   H     0.98028   0.23638   0.84543   0.00000  Uiso   1.00
H175   H     0.89167   0.65703   0.55278   0.00000  Uiso   1.00
O176   O     0.66922   0.76076   0.48907   0.00000  Uiso   1.00
O177   O     0.31611   0.17871   0.90792   0.00000  Uiso   1.00
O178   O     0.19986   0.73059   0.52398   0.00000  Uiso   1.00
N179   N     0.93016   0.86840   0.53189   0.00000  Uiso   1.00
N180   N     0.39114   0.16622   0.83038   0.00000  Uiso   1.00
N181   N     0.30832   0.55950   0.55679   0.00000  Uiso   1.00
N182   N     0.63386   0.91904   0.53313   0.00000  Uiso   1.00
N183   N     0.09483   0.21686   0.83162   0.00000  Uiso   1.00
N184   N     0.01202   0.61014   0.55803   0.00000  Uiso   1.00
