data_job_05791
_audit_creation_date              2018-12-19
_audit_creation_method            'Materials Studio'
_symmetry_space_group_name_H-M    'P1'
_symmetry_Int_Tables_number       1
_symmetry_cell_setting            triclinic
loop_
_symmetry_equiv_pos_as_xyz
  x,y,z
_cell_length_a                    13.6557
_cell_length_b                    19.5685
_cell_length_c                    24.4570
_cell_angle_alpha                 90.0000
_cell_angle_beta                  76.3941
_cell_angle_gamma                 90.0000
loop_
_atom_site_label
_atom_site_type_symbol
_atom_site_fract_x
_atom_site_fract_y
_atom_site_fract_z
_atom_site_U_iso_or_equiv
_atom_site_adp_type
_atom_site_occupancy
C1     C     0.80157   0.31320   0.50349   0.00000  Uiso   1.00
C2     C     0.74214   0.24737   0.50271   0.00000  Uiso   1.00
C3     C     0.77904   0.18159   0.50483   0.00000  Uiso   1.00
C4     C     0.71273   0.12813   0.50364   0.00000  Uiso   1.00
C5     C     0.63561   0.02411   0.50289   0.00000  Uiso   1.00
C6     C     0.79463   0.35250   0.45069   0.00000  Uiso   1.00
C7     C     0.87567   0.37512   0.40909   0.00000  Uiso   1.00
C8     C     0.85354   0.41017   0.36411   0.00000  Uiso   1.00
C9     C     0.85793   0.46940   0.28263   0.00000  Uiso   1.00
C10    C     0.74226   0.35481   0.55302   0.00000  Uiso   1.00
C11    C     0.77927   0.37940   0.59746   0.00000  Uiso   1.00
C12    C     0.71306   0.41640   0.63863   0.00000  Uiso   1.00
C13    C     0.63614   0.47922   0.71603   0.00000  Uiso   1.00
C14    C     0.61818   0.33523   0.49760   0.00000  Uiso   1.00
C15    C     0.64253   0.25934   0.49951   0.00000  Uiso   1.00
C16    C     0.57614   0.20597   0.49832   0.00000  Uiso   1.00
C17    C     0.61294   0.14012   0.50044   0.00000  Uiso   1.00
C18    C     0.69503   0.36447   0.44749   0.00000  Uiso   1.00
C19    C     0.67278   0.39950   0.40257   0.00000  Uiso   1.00
C20    C     0.75376   0.42216   0.36091   0.00000  Uiso   1.00
C21    C     0.64265   0.36678   0.54983   0.00000  Uiso   1.00
C22    C     0.57638   0.40377   0.59094   0.00000  Uiso   1.00
C23    C     0.61328   0.42839   0.63543   0.00000  Uiso   1.00
H24    H     0.87912   0.30388   0.50597   0.00000  Uiso   1.00
H25    H     0.85613   0.17235   0.50730   0.00000  Uiso   1.00
H26    H     0.95274   0.36586   0.41158   0.00000  Uiso   1.00
H27    H     0.85636   0.37012   0.59992   0.00000  Uiso   1.00
H28    H     0.78673   0.03180   0.50734   0.00000  Uiso   1.00
H29    H     0.99044   0.43984   0.30551   0.00000  Uiso   1.00
H30    H     0.78720   0.44884   0.70266   0.00000  Uiso   1.00
H31    H     0.54063   0.34455   0.49511   0.00000  Uiso   1.00
H32    H     0.49907   0.21525   0.49584   0.00000  Uiso   1.00
H33    H     0.59569   0.40876   0.40011   0.00000  Uiso   1.00
H34    H     0.49930   0.41302   0.58846   0.00000  Uiso   1.00
H35    H     0.49692   0.06662   0.49803   0.00000  Uiso   1.00
H36    H     0.70064   0.47466   0.29620   0.00000  Uiso   1.00
H37    H     0.49740   0.48366   0.69336   0.00000  Uiso   1.00
O38    O     0.62060   0.96342   0.50334   0.00000  Uiso   1.00
O39    O     0.88787   0.49876   0.23856   0.00000  Uiso   1.00
O40    O     0.62122   0.51056   0.75961   0.00000  Uiso   1.00
N41    N     0.72422   0.05774   0.50506   0.00000  Uiso   1.00
N42    N     0.91469   0.43922   0.31636   0.00000  Uiso   1.00
N43    N     0.72468   0.44765   0.68765   0.00000  Uiso   1.00
N44    N     0.56828   0.07648   0.50005   0.00000  Uiso   1.00
N45    N     0.75874   0.45796   0.31135   0.00000  Uiso   1.00
N46    N     0.56874   0.46639   0.68265   0.00000  Uiso   1.00
C47    C     0.19843   0.31320   0.99651   0.00000  Uiso   1.00
C48    C     0.25786   0.24737   0.99729   0.00000  Uiso   1.00
C49    C     0.22096   0.18159   0.99517   0.00000  Uiso   1.00
C50    C     0.28727   0.12813   0.99636   0.00000  Uiso   1.00
C51    C     0.36439   0.02411   0.99711   0.00000  Uiso   1.00
C52    C     0.20537   0.35250   0.04931   0.00000  Uiso   1.00
C53    C     0.12433   0.37512   0.09091   0.00000  Uiso   1.00
C54    C     0.14646   0.41017   0.13589   0.00000  Uiso   1.00
C55    C     0.14207   0.46940   0.21737   0.00000  Uiso   1.00
C56    C     0.25774   0.35481   0.94698   0.00000  Uiso   1.00
C57    C     0.22073   0.37940   0.90254   0.00000  Uiso   1.00
C58    C     0.28694   0.41640   0.86137   0.00000  Uiso   1.00
C59    C     0.36386   0.47922   0.78397   0.00000  Uiso   1.00
C60    C     0.38182   0.33523   0.00240   0.00000  Uiso   1.00
C61    C     0.35747   0.25934   0.00049   0.00000  Uiso   1.00
C62    C     0.42386   0.20597   0.00168   0.00000  Uiso   1.00
C63    C     0.38706   0.14012   0.99956   0.00000  Uiso   1.00
C64    C     0.30497   0.36447   0.05251   0.00000  Uiso   1.00
C65    C     0.32722   0.39950   0.09743   0.00000  Uiso   1.00
C66    C     0.24624   0.42216   0.13909   0.00000  Uiso   1.00
C67    C     0.35735   0.36678   0.95017   0.00000  Uiso   1.00
C68    C     0.42362   0.40377   0.90906   0.00000  Uiso   1.00
C69    C     0.38672   0.42839   0.86457   0.00000  Uiso   1.00
H70    H     0.12088   0.30388   0.99403   0.00000  Uiso   1.00
H71    H     0.14387   0.17235   0.99270   0.00000  Uiso   1.00
H72    H     0.04726   0.36586   0.08842   0.00000  Uiso   1.00
H73    H     0.14364   0.37012   0.90008   0.00000  Uiso   1.00
H74    H     0.21327   0.03180   0.99266   0.00000  Uiso   1.00
H75    H     0.00956   0.43984   0.19449   0.00000  Uiso   1.00
H76    H     0.21280   0.44884   0.79734   0.00000  Uiso   1.00
H77    H     0.45937   0.34455   0.00489   0.00000  Uiso   1.00
H78    H     0.50093   0.21525   0.00416   0.00000  Uiso   1.00
H79    H     0.40431   0.40876   0.09989   0.00000  Uiso   1.00
H80    H     0.50070   0.41302   0.91154   0.00000  Uiso   1.00
H81    H     0.50308   0.06662   0.00197   0.00000  Uiso   1.00
H82    H     0.29936   0.47466   0.20380   0.00000  Uiso   1.00
H83    H     0.50260   0.48366   0.80664   0.00000  Uiso   1.00
O84    O     0.37940   0.96342   0.99666   0.00000  Uiso   1.00
O85    O     0.11213   0.49876   0.26144   0.00000  Uiso   1.00
O86    O     0.37878   0.51056   0.74039   0.00000  Uiso   1.00
N87    N     0.27578   0.05774   0.99494   0.00000  Uiso   1.00
N88    N     0.08531   0.43922   0.18364   0.00000  Uiso   1.00
N89    N     0.27532   0.44765   0.81235   0.00000  Uiso   1.00
N90    N     0.43172   0.07648   0.99995   0.00000  Uiso   1.00
N91    N     0.24126   0.45796   0.18865   0.00000  Uiso   1.00
N92    N     0.43126   0.46639   0.81735   0.00000  Uiso   1.00
C93    C     0.19843   0.68680   0.49651   0.00000  Uiso   1.00
C94    C     0.25786   0.75263   0.49729   0.00000  Uiso   1.00
C95    C     0.22096   0.81841   0.49517   0.00000  Uiso   1.00
C96    C     0.28727   0.87187   0.49636   0.00000  Uiso   1.00
C97    C     0.36439   0.97589   0.49711   0.00000  Uiso   1.00
C98    C     0.20537   0.64750   0.54931   0.00000  Uiso   1.00
C99    C     0.12433   0.62488   0.59091   0.00000  Uiso   1.00
C100   C     0.14646   0.58983   0.63589   0.00000  Uiso   1.00
C101   C     0.14207   0.53060   0.71737   0.00000  Uiso   1.00
C102   C     0.25774   0.64519   0.44698   0.00000  Uiso   1.00
C103   C     0.22073   0.62060   0.40254   0.00000  Uiso   1.00
C104   C     0.28694   0.58360   0.36137   0.00000  Uiso   1.00
C105   C     0.36386   0.52078   0.28397   0.00000  Uiso   1.00
C106   C     0.38182   0.66477   0.50240   0.00000  Uiso   1.00
C107   C     0.35747   0.74066   0.50049   0.00000  Uiso   1.00
C108   C     0.42386   0.79403   0.50168   0.00000  Uiso   1.00
C109   C     0.38706   0.85988   0.49956   0.00000  Uiso   1.00
C110   C     0.30497   0.63553   0.55251   0.00000  Uiso   1.00
C111   C     0.32722   0.60050   0.59743   0.00000  Uiso   1.00
C112   C     0.24624   0.57784   0.63909   0.00000  Uiso   1.00
C113   C     0.35735   0.63322   0.45017   0.00000  Uiso   1.00
C114   C     0.42362   0.59623   0.40906   0.00000  Uiso   1.00
C115   C     0.38672   0.57161   0.36457   0.00000  Uiso   1.00
H116   H     0.12088   0.69612   0.49403   0.00000  Uiso   1.00
H117   H     0.14387   0.82765   0.49270   0.00000  Uiso   1.00
H118   H     0.04726   0.63414   0.58842   0.00000  Uiso   1.00
H119   H     0.14364   0.62988   0.40008   0.00000  Uiso   1.00
H120   H     0.21327   0.96820   0.49266   0.00000  Uiso   1.00
H121   H     0.00956   0.56016   0.69449   0.00000  Uiso   1.00
H122   H     0.21280   0.55116   0.29734   0.00000  Uiso   1.00
H123   H     0.45937   0.65545   0.50489   0.00000  Uiso   1.00
H124   H     0.50093   0.78475   0.50416   0.00000  Uiso   1.00
H125   H     0.40431   0.59124   0.59989   0.00000  Uiso   1.00
H126   H     0.50070   0.58698   0.41154   0.00000  Uiso   1.00
H127   H     0.50308   0.93338   0.50197   0.00000  Uiso   1.00
H128   H     0.29936   0.52534   0.70380   0.00000  Uiso   1.00
H129   H     0.50260   0.51634   0.30664   0.00000  Uiso   1.00
O130   O     0.37940   0.03658   0.49666   0.00000  Uiso   1.00
O131   O     0.11213   0.50124   0.76144   0.00000  Uiso   1.00
O132   O     0.37878   0.48944   0.24039   0.00000  Uiso   1.00
N133   N     0.27578   0.94226   0.49494   0.00000  Uiso   1.00
N134   N     0.08531   0.56078   0.68364   0.00000  Uiso   1.00
N135   N     0.27532   0.55235   0.31235   0.00000  Uiso   1.00
N136   N     0.43172   0.92352   0.49995   0.00000  Uiso   1.00
N137   N     0.24126   0.54204   0.68865   0.00000  Uiso   1.00
N138   N     0.43126   0.53361   0.31735   0.00000  Uiso   1.00
C139   C     0.80157   0.68680   0.00349   0.00000  Uiso   1.00
C140   C     0.74214   0.75263   0.00271   0.00000  Uiso   1.00
C141   C     0.77904   0.81841   0.00483   0.00000  Uiso   1.00
C142   C     0.71273   0.87187   0.00364   0.00000  Uiso   1.00
C143   C     0.63561   0.97589   0.00289   0.00000  Uiso   1.00
C144   C     0.79463   0.64750   0.95069   0.00000  Uiso   1.00
C145   C     0.87567   0.62488   0.90909   0.00000  Uiso   1.00
C146   C     0.85354   0.58983   0.86411   0.00000  Uiso   1.00
C147   C     0.85793   0.53060   0.78263   0.00000  Uiso   1.00
C148   C     0.74226   0.64519   0.05302   0.00000  Uiso   1.00
C149   C     0.77927   0.62060   0.09746   0.00000  Uiso   1.00
C150   C     0.71306   0.58360   0.13863   0.00000  Uiso   1.00
C151   C     0.63614   0.52078   0.21603   0.00000  Uiso   1.00
C152   C     0.61818   0.66477   0.99760   0.00000  Uiso   1.00
C153   C     0.64253   0.74066   0.99951   0.00000  Uiso   1.00
C154   C     0.57614   0.79403   0.99832   0.00000  Uiso   1.00
C155   C     0.61294   0.85988   0.00044   0.00000  Uiso   1.00
C156   C     0.69503   0.63553   0.94749   0.00000  Uiso   1.00
C157   C     0.67278   0.60050   0.90257   0.00000  Uiso   1.00
C158   C     0.75376   0.57784   0.86091   0.00000  Uiso   1.00
C159   C     0.64265   0.63322   0.04983   0.00000  Uiso   1.00
C160   C     0.57638   0.59623   0.09094   0.00000  Uiso   1.00
C161   C     0.61328   0.57161   0.13543   0.00000  Uiso   1.00
H162   H     0.87912   0.69612   0.00597   0.00000  Uiso   1.00
H163   H     0.85613   0.82765   0.00730   0.00000  Uiso   1.00
H164   H     0.95274   0.63414   0.91158   0.00000  Uiso   1.00
H165   H     0.85636   0.62988   0.09992   0.00000  Uiso   1.00
H166   H     0.78673   0.96820   0.00734   0.00000  Uiso   1.00
H167   H     0.99044   0.56016   0.80551   0.00000  Uiso   1.00
H168   H     0.78720   0.55116   0.20266   0.00000  Uiso   1.00
H169   H     0.54063   0.65545   0.99511   0.00000  Uiso   1.00
H170   H     0.49907   0.78475   0.99584   0.00000  Uiso   1.00
H171   H     0.59569   0.59124   0.90011   0.00000  Uiso   1.00
H172   H     0.49930   0.58698   0.08846   0.00000  Uiso   1.00
H173   H     0.49692   0.93338   0.99803   0.00000  Uiso   1.00
H174   H     0.70064   0.52534   0.79620   0.00000  Uiso   1.00
H175   H     0.49740   0.51634   0.19336   0.00000  Uiso   1.00
O176   O     0.62060   0.03658   0.00334   0.00000  Uiso   1.00
O177   O     0.88787   0.50124   0.73856   0.00000  Uiso   1.00
O178   O     0.62122   0.48944   0.25961   0.00000  Uiso   1.00
N179   N     0.72422   0.94226   0.00506   0.00000  Uiso   1.00
N180   N     0.91469   0.56078   0.81636   0.00000  Uiso   1.00
N181   N     0.72468   0.55235   0.18765   0.00000  Uiso   1.00
N182   N     0.56828   0.92352   0.00005   0.00000  Uiso   1.00
N183   N     0.75874   0.54204   0.81135   0.00000  Uiso   1.00
N184   N     0.56874   0.53361   0.18265   0.00000  Uiso   1.00
