data_job_05546
_audit_creation_date              2018-12-19
_audit_creation_method            'Materials Studio'
_symmetry_space_group_name_H-M    'P1'
_symmetry_Int_Tables_number       1
_symmetry_cell_setting            triclinic
loop_
_symmetry_equiv_pos_as_xyz
  x,y,z
_cell_length_a                    11.3791
_cell_length_b                    11.3791
_cell_length_c                    37.7404
_cell_angle_alpha                 90.0000
_cell_angle_beta                  90.0000
_cell_angle_gamma                 90.0000
loop_
_atom_site_label
_atom_site_type_symbol
_atom_site_fract_x
_atom_site_fract_y
_atom_site_fract_z
_atom_site_U_iso_or_equiv
_atom_site_adp_type
_atom_site_occupancy
C1     C     0.14348   0.78309   0.40995   0.00000  Uiso   1.00
C2     C     0.13445   0.77311   0.36975   0.00000  Uiso   1.00
C3     C     0.09106   0.85887   0.34712   0.00000  Uiso   1.00
C4     C     0.09015   0.83281   0.31118   0.00000  Uiso   1.00
C5     C     0.06983   0.83371   0.25071   0.00000  Uiso   1.00
C6     C     0.07555   0.67876   0.42491   0.00000  Uiso   1.00
C7     C     0.98265   0.68521   0.44866   0.00000  Uiso   1.00
C8     C     0.93217   0.57973   0.45916   0.00000  Uiso   1.00
C9     C     0.82046   0.43417   0.48434   0.00000  Uiso   1.00
C10    C     0.27220   0.76115   0.41904   0.00000  Uiso   1.00
C11    C     0.34464   0.83685   0.43786   0.00000  Uiso   1.00
C12    C     0.45972   0.80071   0.44343   0.00000  Uiso   1.00
C13    C     0.65333   0.78307   0.45950   0.00000  Uiso   1.00
C14    C     0.21902   0.58429   0.38638   0.00000  Uiso   1.00
C15    C     0.17548   0.66512   0.35695   0.00000  Uiso   1.00
C16    C     0.17464   0.63892   0.32103   0.00000  Uiso   1.00
C17    C     0.13126   0.72464   0.29835   0.00000  Uiso   1.00
C18    C     0.11657   0.57079   0.41211   0.00000  Uiso   1.00
C19    C     0.06622   0.46527   0.42258   0.00000  Uiso   1.00
C20    C     0.97327   0.47155   0.44633   0.00000  Uiso   1.00
C21    C     0.31323   0.65317   0.40624   0.00000  Uiso   1.00
C22    C     0.42821   0.61691   0.41178   0.00000  Uiso   1.00
C23    C     0.50082   0.69254   0.43060   0.00000  Uiso   1.00
H24    H     0.11153   0.86715   0.41992   0.00000  Uiso   1.00
H25    H     0.05931   0.94242   0.35704   0.00000  Uiso   1.00
H26    H     0.95093   0.76879   0.45857   0.00000  Uiso   1.00
H27    H     0.31286   0.92040   0.44777   0.00000  Uiso   1.00
H28    H     0.01946   0.97824   0.28167   0.00000  Uiso   1.00
H29    H     0.79095   0.61212   0.49576   0.00000  Uiso   1.00
H30    H     0.55416   0.93183   0.47299   0.00000  Uiso   1.00
H31    H     0.25096   0.50022   0.37641   0.00000  Uiso   1.00
H32    H     0.20639   0.55536   0.31113   0.00000  Uiso   1.00
H33    H     0.09800   0.38172   0.41266   0.00000  Uiso   1.00
H34    H     0.45993   0.53334   0.40186   0.00000  Uiso   1.00
H35    H     0.13883   0.66408   0.24441   0.00000  Uiso   1.00
H36    H     0.91033   0.29796   0.45850   0.00000  Uiso   1.00
H37    H     0.67353   0.61768   0.43573   0.00000  Uiso   1.00
O38    O     0.04727   0.86403   0.22089   0.00000  Uiso   1.00
O39    O     0.74750   0.38371   0.50177   0.00000  Uiso   1.00
O40    O     0.74880   0.80317   0.47189   0.00000  Uiso   1.00
N41    N     0.05369   0.89674   0.28186   0.00000  Uiso   1.00
N42    N     0.84004   0.55445   0.48202   0.00000  Uiso   1.00
N43    N     0.55356   0.85334   0.46074   0.00000  Uiso   1.00
N44    N     0.11793   0.72770   0.26181   0.00000  Uiso   1.00
N45    N     0.90427   0.38540   0.46197   0.00000  Uiso   1.00
N46    N     0.61780   0.68429   0.44069   0.00000  Uiso   1.00
C47    C     0.85652   0.21691   0.90995   0.00000  Uiso   1.00
C48    C     0.86555   0.22689   0.86975   0.00000  Uiso   1.00
C49    C     0.90894   0.14113   0.84712   0.00000  Uiso   1.00
C50    C     0.90985   0.16719   0.81118   0.00000  Uiso   1.00
C51    C     0.93017   0.16629   0.75071   0.00000  Uiso   1.00
C52    C     0.92445   0.32124   0.92491   0.00000  Uiso   1.00
C53    C     0.01735   0.31479   0.94866   0.00000  Uiso   1.00
C54    C     0.06783   0.42027   0.95916   0.00000  Uiso   1.00
C55    C     0.17954   0.56583   0.98434   0.00000  Uiso   1.00
C56    C     0.72780   0.23885   0.91904   0.00000  Uiso   1.00
C57    C     0.65536   0.16315   0.93786   0.00000  Uiso   1.00
C58    C     0.54028   0.19929   0.94343   0.00000  Uiso   1.00
C59    C     0.34667   0.21693   0.95950   0.00000  Uiso   1.00
C60    C     0.78098   0.41571   0.88638   0.00000  Uiso   1.00
C61    C     0.82452   0.33488   0.85695   0.00000  Uiso   1.00
C62    C     0.82536   0.36108   0.82103   0.00000  Uiso   1.00
C63    C     0.86874   0.27536   0.79835   0.00000  Uiso   1.00
C64    C     0.88343   0.42921   0.91211   0.00000  Uiso   1.00
C65    C     0.93378   0.53473   0.92258   0.00000  Uiso   1.00
C66    C     0.02673   0.52845   0.94633   0.00000  Uiso   1.00
C67    C     0.68677   0.34683   0.90624   0.00000  Uiso   1.00
C68    C     0.57179   0.38309   0.91178   0.00000  Uiso   1.00
C69    C     0.49918   0.30746   0.93060   0.00000  Uiso   1.00
H70    H     0.88847   0.13285   0.91992   0.00000  Uiso   1.00
H71    H     0.94069   0.05758   0.85704   0.00000  Uiso   1.00
H72    H     0.04907   0.23121   0.95857   0.00000  Uiso   1.00
H73    H     0.68714   0.07960   0.94777   0.00000  Uiso   1.00
H74    H     0.98054   0.02176   0.78167   0.00000  Uiso   1.00
H75    H     0.20905   0.38788   0.99576   0.00000  Uiso   1.00
H76    H     0.44584   0.06817   0.97299   0.00000  Uiso   1.00
H77    H     0.74904   0.49978   0.87641   0.00000  Uiso   1.00
H78    H     0.79361   0.44464   0.81113   0.00000  Uiso   1.00
H79    H     0.90200   0.61828   0.91266   0.00000  Uiso   1.00
H80    H     0.54007   0.46666   0.90186   0.00000  Uiso   1.00
H81    H     0.86117   0.33592   0.74441   0.00000  Uiso   1.00
H82    H     0.08967   0.70204   0.95850   0.00000  Uiso   1.00
H83    H     0.32647   0.38232   0.93573   0.00000  Uiso   1.00
O84    O     0.95273   0.13597   0.72089   0.00000  Uiso   1.00
O85    O     0.25250   0.61629   0.00177   0.00000  Uiso   1.00
O86    O     0.25120   0.19683   0.97189   0.00000  Uiso   1.00
N87    N     0.94631   0.10326   0.78186   0.00000  Uiso   1.00
N88    N     0.15996   0.44555   0.98202   0.00000  Uiso   1.00
N89    N     0.44644   0.14666   0.96074   0.00000  Uiso   1.00
N90    N     0.88207   0.27230   0.76181   0.00000  Uiso   1.00
N91    N     0.09573   0.61460   0.96197   0.00000  Uiso   1.00
N92    N     0.38220   0.31571   0.94069   0.00000  Uiso   1.00
C93    C     0.21691   0.14348   0.65995   0.00000  Uiso   1.00
C94    C     0.22689   0.13445   0.61975   0.00000  Uiso   1.00
C95    C     0.14113   0.09106   0.59712   0.00000  Uiso   1.00
C96    C     0.16719   0.09015   0.56118   0.00000  Uiso   1.00
C97    C     0.16629   0.06983   0.50071   0.00000  Uiso   1.00
C98    C     0.32124   0.07555   0.67491   0.00000  Uiso   1.00
C99    C     0.31479   0.98265   0.69866   0.00000  Uiso   1.00
C100   C     0.42027   0.93217   0.70916   0.00000  Uiso   1.00
C101   C     0.56583   0.82046   0.73434   0.00000  Uiso   1.00
C102   C     0.23885   0.27220   0.66904   0.00000  Uiso   1.00
C103   C     0.16315   0.34464   0.68786   0.00000  Uiso   1.00
C104   C     0.19929   0.45972   0.69343   0.00000  Uiso   1.00
C105   C     0.21693   0.65333   0.70950   0.00000  Uiso   1.00
C106   C     0.41571   0.21902   0.63638   0.00000  Uiso   1.00
C107   C     0.33488   0.17548   0.60695   0.00000  Uiso   1.00
C108   C     0.36108   0.17464   0.57103   0.00000  Uiso   1.00
C109   C     0.27536   0.13126   0.54835   0.00000  Uiso   1.00
C110   C     0.42921   0.11657   0.66211   0.00000  Uiso   1.00
C111   C     0.53473   0.06622   0.67258   0.00000  Uiso   1.00
C112   C     0.52845   0.97327   0.69633   0.00000  Uiso   1.00
C113   C     0.34683   0.31323   0.65624   0.00000  Uiso   1.00
C114   C     0.38309   0.42821   0.66178   0.00000  Uiso   1.00
C115   C     0.30746   0.50082   0.68060   0.00000  Uiso   1.00
H116   H     0.13285   0.11153   0.66992   0.00000  Uiso   1.00
H117   H     0.05758   0.05931   0.60704   0.00000  Uiso   1.00
H118   H     0.23121   0.95093   0.70857   0.00000  Uiso   1.00
H119   H     0.07960   0.31286   0.69777   0.00000  Uiso   1.00
H120   H     0.02176   0.01946   0.53167   0.00000  Uiso   1.00
H121   H     0.38788   0.79095   0.74576   0.00000  Uiso   1.00
H122   H     0.06817   0.55416   0.72299   0.00000  Uiso   1.00
H123   H     0.49978   0.25096   0.62641   0.00000  Uiso   1.00
H124   H     0.44464   0.20639   0.56113   0.00000  Uiso   1.00
H125   H     0.61828   0.09800   0.66266   0.00000  Uiso   1.00
H126   H     0.46666   0.45993   0.65186   0.00000  Uiso   1.00
H127   H     0.33592   0.13883   0.49441   0.00000  Uiso   1.00
H128   H     0.70204   0.91033   0.70850   0.00000  Uiso   1.00
H129   H     0.38232   0.67353   0.68573   0.00000  Uiso   1.00
O130   O     0.13597   0.04727   0.47089   0.00000  Uiso   1.00
O131   O     0.61629   0.74750   0.75177   0.00000  Uiso   1.00
O132   O     0.19683   0.74880   0.72189   0.00000  Uiso   1.00
N133   N     0.10326   0.05369   0.53186   0.00000  Uiso   1.00
N134   N     0.44555   0.84004   0.73202   0.00000  Uiso   1.00
N135   N     0.14666   0.55356   0.71074   0.00000  Uiso   1.00
N136   N     0.27230   0.11793   0.51181   0.00000  Uiso   1.00
N137   N     0.61460   0.90427   0.71197   0.00000  Uiso   1.00
N138   N     0.31571   0.61780   0.69069   0.00000  Uiso   1.00
C139   C     0.78309   0.85652   0.15995   0.00000  Uiso   1.00
C140   C     0.77311   0.86555   0.11975   0.00000  Uiso   1.00
C141   C     0.85887   0.90894   0.09712   0.00000  Uiso   1.00
C142   C     0.83281   0.90985   0.06118   0.00000  Uiso   1.00
C143   C     0.83371   0.93017   0.00071   0.00000  Uiso   1.00
C144   C     0.67876   0.92445   0.17491   0.00000  Uiso   1.00
C145   C     0.68521   0.01735   0.19866   0.00000  Uiso   1.00
C146   C     0.57973   0.06783   0.20916   0.00000  Uiso   1.00
C147   C     0.43417   0.17954   0.23434   0.00000  Uiso   1.00
C148   C     0.76115   0.72780   0.16904   0.00000  Uiso   1.00
C149   C     0.83685   0.65536   0.18786   0.00000  Uiso   1.00
C150   C     0.80071   0.54028   0.19343   0.00000  Uiso   1.00
C151   C     0.78307   0.34667   0.20950   0.00000  Uiso   1.00
C152   C     0.58429   0.78098   0.13638   0.00000  Uiso   1.00
C153   C     0.66512   0.82452   0.10695   0.00000  Uiso   1.00
C154   C     0.63892   0.82536   0.07103   0.00000  Uiso   1.00
C155   C     0.72464   0.86874   0.04835   0.00000  Uiso   1.00
C156   C     0.57079   0.88343   0.16211   0.00000  Uiso   1.00
C157   C     0.46527   0.93378   0.17258   0.00000  Uiso   1.00
C158   C     0.47155   0.02673   0.19633   0.00000  Uiso   1.00
C159   C     0.65317   0.68677   0.15624   0.00000  Uiso   1.00
C160   C     0.61691   0.57179   0.16178   0.00000  Uiso   1.00
C161   C     0.69254   0.49918   0.18060   0.00000  Uiso   1.00
H162   H     0.86715   0.88847   0.16992   0.00000  Uiso   1.00
H163   H     0.94242   0.94069   0.10704   0.00000  Uiso   1.00
H164   H     0.76879   0.04907   0.20857   0.00000  Uiso   1.00
H165   H     0.92040   0.68714   0.19777   0.00000  Uiso   1.00
H166   H     0.97824   0.98054   0.03167   0.00000  Uiso   1.00
H167   H     0.61212   0.20905   0.24576   0.00000  Uiso   1.00
H168   H     0.93183   0.44584   0.22299   0.00000  Uiso   1.00
H169   H     0.50022   0.74904   0.12641   0.00000  Uiso   1.00
H170   H     0.55536   0.79361   0.06113   0.00000  Uiso   1.00
H171   H     0.38172   0.90200   0.16266   0.00000  Uiso   1.00
H172   H     0.53334   0.54007   0.15186   0.00000  Uiso   1.00
H173   H     0.66408   0.86117   0.99441   0.00000  Uiso   1.00
H174   H     0.29796   0.08967   0.20850   0.00000  Uiso   1.00
H175   H     0.61768   0.32647   0.18573   0.00000  Uiso   1.00
O176   O     0.86403   0.95273   0.97089   0.00000  Uiso   1.00
O177   O     0.38371   0.25250   0.25177   0.00000  Uiso   1.00
O178   O     0.80317   0.25120   0.22189   0.00000  Uiso   1.00
N179   N     0.89674   0.94631   0.03186   0.00000  Uiso   1.00
N180   N     0.55445   0.15996   0.23202   0.00000  Uiso   1.00
N181   N     0.85334   0.44644   0.21074   0.00000  Uiso   1.00
N182   N     0.72770   0.88207   0.01181   0.00000  Uiso   1.00
N183   N     0.38540   0.09573   0.21197   0.00000  Uiso   1.00
N184   N     0.68429   0.38220   0.19069   0.00000  Uiso   1.00
C185   C     0.85652   0.78309   0.59005   0.00000  Uiso   1.00
C186   C     0.86555   0.77311   0.63025   0.00000  Uiso   1.00
C187   C     0.90894   0.85887   0.65288   0.00000  Uiso   1.00
C188   C     0.90985   0.83281   0.68882   0.00000  Uiso   1.00
C189   C     0.93017   0.83371   0.74929   0.00000  Uiso   1.00
C190   C     0.92445   0.67876   0.57509   0.00000  Uiso   1.00
C191   C     0.01735   0.68521   0.55134   0.00000  Uiso   1.00
C192   C     0.06783   0.57973   0.54084   0.00000  Uiso   1.00
C193   C     0.17954   0.43417   0.51566   0.00000  Uiso   1.00
C194   C     0.72780   0.76115   0.58096   0.00000  Uiso   1.00
C195   C     0.65536   0.83685   0.56214   0.00000  Uiso   1.00
C196   C     0.54028   0.80071   0.55657   0.00000  Uiso   1.00
C197   C     0.34667   0.78307   0.54050   0.00000  Uiso   1.00
C198   C     0.78098   0.58429   0.61362   0.00000  Uiso   1.00
C199   C     0.82452   0.66512   0.64305   0.00000  Uiso   1.00
C200   C     0.82536   0.63892   0.67897   0.00000  Uiso   1.00
C201   C     0.86874   0.72464   0.70165   0.00000  Uiso   1.00
C202   C     0.88343   0.57079   0.58789   0.00000  Uiso   1.00
C203   C     0.93378   0.46527   0.57742   0.00000  Uiso   1.00
C204   C     0.02673   0.47155   0.55367   0.00000  Uiso   1.00
C205   C     0.68677   0.65317   0.59376   0.00000  Uiso   1.00
C206   C     0.57179   0.61691   0.58822   0.00000  Uiso   1.00
C207   C     0.49918   0.69254   0.56940   0.00000  Uiso   1.00
H208   H     0.88847   0.86715   0.58008   0.00000  Uiso   1.00
H209   H     0.94069   0.94242   0.64296   0.00000  Uiso   1.00
H210   H     0.04907   0.76879   0.54143   0.00000  Uiso   1.00
H211   H     0.68714   0.92040   0.55223   0.00000  Uiso   1.00
H212   H     0.98054   0.97824   0.71833   0.00000  Uiso   1.00
H213   H     0.20905   0.61212   0.50424   0.00000  Uiso   1.00
H214   H     0.44584   0.93183   0.52701   0.00000  Uiso   1.00
H215   H     0.74904   0.50022   0.62359   0.00000  Uiso   1.00
H216   H     0.79361   0.55536   0.68887   0.00000  Uiso   1.00
H217   H     0.90200   0.38172   0.58734   0.00000  Uiso   1.00
H218   H     0.54007   0.53334   0.59814   0.00000  Uiso   1.00
H219   H     0.86117   0.66408   0.75559   0.00000  Uiso   1.00
H220   H     0.08967   0.29796   0.54150   0.00000  Uiso   1.00
H221   H     0.32647   0.61768   0.56427   0.00000  Uiso   1.00
O222   O     0.95273   0.86403   0.77911   0.00000  Uiso   1.00
O223   O     0.25250   0.38371   0.49823   0.00000  Uiso   1.00
O224   O     0.25120   0.80317   0.52811   0.00000  Uiso   1.00
N225   N     0.94631   0.89674   0.71814   0.00000  Uiso   1.00
N226   N     0.15996   0.55445   0.51798   0.00000  Uiso   1.00
N227   N     0.44644   0.85334   0.53926   0.00000  Uiso   1.00
N228   N     0.88207   0.72770   0.73819   0.00000  Uiso   1.00
N229   N     0.09573   0.38540   0.53803   0.00000  Uiso   1.00
N230   N     0.38220   0.68429   0.55931   0.00000  Uiso   1.00
C231   C     0.14348   0.21691   0.09005   0.00000  Uiso   1.00
C232   C     0.13445   0.22689   0.13025   0.00000  Uiso   1.00
C233   C     0.09106   0.14113   0.15288   0.00000  Uiso   1.00
C234   C     0.09015   0.16719   0.18882   0.00000  Uiso   1.00
C235   C     0.06983   0.16629   0.24929   0.00000  Uiso   1.00
C236   C     0.07555   0.32124   0.07509   0.00000  Uiso   1.00
C237   C     0.98265   0.31479   0.05134   0.00000  Uiso   1.00
C238   C     0.93217   0.42027   0.04084   0.00000  Uiso   1.00
C239   C     0.82046   0.56583   0.01566   0.00000  Uiso   1.00
C240   C     0.27220   0.23885   0.08096   0.00000  Uiso   1.00
C241   C     0.34464   0.16315   0.06214   0.00000  Uiso   1.00
C242   C     0.45972   0.19929   0.05657   0.00000  Uiso   1.00
C243   C     0.65333   0.21693   0.04050   0.00000  Uiso   1.00
C244   C     0.21902   0.41571   0.11362   0.00000  Uiso   1.00
C245   C     0.17548   0.33488   0.14305   0.00000  Uiso   1.00
C246   C     0.17464   0.36108   0.17897   0.00000  Uiso   1.00
C247   C     0.13126   0.27536   0.20165   0.00000  Uiso   1.00
C248   C     0.11657   0.42921   0.08789   0.00000  Uiso   1.00
C249   C     0.06622   0.53473   0.07742   0.00000  Uiso   1.00
C250   C     0.97327   0.52845   0.05367   0.00000  Uiso   1.00
C251   C     0.31323   0.34683   0.09376   0.00000  Uiso   1.00
C252   C     0.42821   0.38309   0.08822   0.00000  Uiso   1.00
C253   C     0.50082   0.30746   0.06940   0.00000  Uiso   1.00
H254   H     0.11153   0.13285   0.08008   0.00000  Uiso   1.00
H255   H     0.05931   0.05758   0.14296   0.00000  Uiso   1.00
H256   H     0.95093   0.23121   0.04143   0.00000  Uiso   1.00
H257   H     0.31286   0.07960   0.05223   0.00000  Uiso   1.00
H258   H     0.01946   0.02176   0.21833   0.00000  Uiso   1.00
H259   H     0.79095   0.38788   0.00424   0.00000  Uiso   1.00
H260   H     0.55416   0.06817   0.02701   0.00000  Uiso   1.00
H261   H     0.25096   0.49978   0.12359   0.00000  Uiso   1.00
H262   H     0.20639   0.44464   0.18887   0.00000  Uiso   1.00
H263   H     0.09800   0.61828   0.08734   0.00000  Uiso   1.00
H264   H     0.45993   0.46666   0.09814   0.00000  Uiso   1.00
H265   H     0.13883   0.33592   0.25559   0.00000  Uiso   1.00
H266   H     0.91033   0.70204   0.04150   0.00000  Uiso   1.00
H267   H     0.67353   0.38232   0.06427   0.00000  Uiso   1.00
O268   O     0.04727   0.13597   0.27911   0.00000  Uiso   1.00
O269   O     0.74750   0.61629   0.99823   0.00000  Uiso   1.00
O270   O     0.74880   0.19683   0.02811   0.00000  Uiso   1.00
N271   N     0.05369   0.10326   0.21814   0.00000  Uiso   1.00
N272   N     0.84004   0.44555   0.01798   0.00000  Uiso   1.00
N273   N     0.55356   0.14666   0.03926   0.00000  Uiso   1.00
N274   N     0.11793   0.27230   0.23819   0.00000  Uiso   1.00
N275   N     0.90427   0.61460   0.03803   0.00000  Uiso   1.00
N276   N     0.61780   0.31571   0.05931   0.00000  Uiso   1.00
C277   C     0.78309   0.14348   0.34005   0.00000  Uiso   1.00
C278   C     0.77311   0.13445   0.38025   0.00000  Uiso   1.00
C279   C     0.85887   0.09106   0.40288   0.00000  Uiso   1.00
C280   C     0.83281   0.09015   0.43882   0.00000  Uiso   1.00
C281   C     0.83371   0.06983   0.49929   0.00000  Uiso   1.00
C282   C     0.67876   0.07555   0.32509   0.00000  Uiso   1.00
C283   C     0.68521   0.98265   0.30134   0.00000  Uiso   1.00
C284   C     0.57973   0.93217   0.29084   0.00000  Uiso   1.00
C285   C     0.43417   0.82046   0.26566   0.00000  Uiso   1.00
C286   C     0.76115   0.27220   0.33096   0.00000  Uiso   1.00
C287   C     0.83685   0.34464   0.31214   0.00000  Uiso   1.00
C288   C     0.80071   0.45972   0.30657   0.00000  Uiso   1.00
C289   C     0.78307   0.65333   0.29050   0.00000  Uiso   1.00
C290   C     0.58429   0.21902   0.36362   0.00000  Uiso   1.00
C291   C     0.66512   0.17548   0.39305   0.00000  Uiso   1.00
C292   C     0.63892   0.17464   0.42897   0.00000  Uiso   1.00
C293   C     0.72464   0.13126   0.45165   0.00000  Uiso   1.00
C294   C     0.57079   0.11657   0.33789   0.00000  Uiso   1.00
C295   C     0.46527   0.06622   0.32742   0.00000  Uiso   1.00
C296   C     0.47155   0.97327   0.30367   0.00000  Uiso   1.00
C297   C     0.65317   0.31323   0.34376   0.00000  Uiso   1.00
C298   C     0.61691   0.42821   0.33822   0.00000  Uiso   1.00
C299   C     0.69254   0.50082   0.31940   0.00000  Uiso   1.00
H300   H     0.86715   0.11153   0.33008   0.00000  Uiso   1.00
H301   H     0.94242   0.05931   0.39296   0.00000  Uiso   1.00
H302   H     0.76879   0.95093   0.29143   0.00000  Uiso   1.00
H303   H     0.92040   0.31286   0.30223   0.00000  Uiso   1.00
H304   H     0.97824   0.01946   0.46833   0.00000  Uiso   1.00
H305   H     0.61212   0.79095   0.25424   0.00000  Uiso   1.00
H306   H     0.93183   0.55416   0.27701   0.00000  Uiso   1.00
H307   H     0.50022   0.25096   0.37359   0.00000  Uiso   1.00
H308   H     0.55536   0.20639   0.43887   0.00000  Uiso   1.00
H309   H     0.38172   0.09800   0.33734   0.00000  Uiso   1.00
H310   H     0.53334   0.45993   0.34814   0.00000  Uiso   1.00
H311   H     0.66408   0.13883   0.50559   0.00000  Uiso   1.00
H312   H     0.29796   0.91033   0.29150   0.00000  Uiso   1.00
H313   H     0.61768   0.67353   0.31427   0.00000  Uiso   1.00
O314   O     0.86403   0.04727   0.52911   0.00000  Uiso   1.00
O315   O     0.38371   0.74750   0.24823   0.00000  Uiso   1.00
O316   O     0.80317   0.74880   0.27811   0.00000  Uiso   1.00
N317   N     0.89674   0.05369   0.46814   0.00000  Uiso   1.00
N318   N     0.55445   0.84004   0.26798   0.00000  Uiso   1.00
N319   N     0.85334   0.55356   0.28926   0.00000  Uiso   1.00
N320   N     0.72770   0.11793   0.48819   0.00000  Uiso   1.00
N321   N     0.38540   0.90427   0.28803   0.00000  Uiso   1.00
N322   N     0.68429   0.61780   0.30931   0.00000  Uiso   1.00
C323   C     0.21691   0.85652   0.84005   0.00000  Uiso   1.00
C324   C     0.22689   0.86555   0.88025   0.00000  Uiso   1.00
C325   C     0.14113   0.90894   0.90288   0.00000  Uiso   1.00
C326   C     0.16719   0.90985   0.93882   0.00000  Uiso   1.00
C327   C     0.16629   0.93017   0.99929   0.00000  Uiso   1.00
C328   C     0.32124   0.92445   0.82509   0.00000  Uiso   1.00
C329   C     0.31479   0.01735   0.80134   0.00000  Uiso   1.00
C330   C     0.42027   0.06783   0.79084   0.00000  Uiso   1.00
C331   C     0.56583   0.17954   0.76566   0.00000  Uiso   1.00
C332   C     0.23885   0.72780   0.83096   0.00000  Uiso   1.00
C333   C     0.16315   0.65536   0.81214   0.00000  Uiso   1.00
C334   C     0.19929   0.54028   0.80657   0.00000  Uiso   1.00
C335   C     0.21693   0.34667   0.79050   0.00000  Uiso   1.00
C336   C     0.41571   0.78098   0.86362   0.00000  Uiso   1.00
C337   C     0.33488   0.82452   0.89305   0.00000  Uiso   1.00
C338   C     0.36108   0.82536   0.92897   0.00000  Uiso   1.00
C339   C     0.27536   0.86874   0.95165   0.00000  Uiso   1.00
C340   C     0.42921   0.88343   0.83789   0.00000  Uiso   1.00
C341   C     0.53473   0.93378   0.82742   0.00000  Uiso   1.00
C342   C     0.52845   0.02673   0.80367   0.00000  Uiso   1.00
C343   C     0.34683   0.68677   0.84376   0.00000  Uiso   1.00
C344   C     0.38309   0.57179   0.83822   0.00000  Uiso   1.00
C345   C     0.30746   0.49918   0.81940   0.00000  Uiso   1.00
H346   H     0.13285   0.88847   0.83008   0.00000  Uiso   1.00
H347   H     0.05758   0.94069   0.89296   0.00000  Uiso   1.00
H348   H     0.23121   0.04907   0.79143   0.00000  Uiso   1.00
H349   H     0.07960   0.68714   0.80223   0.00000  Uiso   1.00
H350   H     0.02176   0.98054   0.96833   0.00000  Uiso   1.00
H351   H     0.38788   0.20905   0.75424   0.00000  Uiso   1.00
H352   H     0.06817   0.44584   0.77701   0.00000  Uiso   1.00
H353   H     0.49978   0.74904   0.87359   0.00000  Uiso   1.00
H354   H     0.44464   0.79361   0.93887   0.00000  Uiso   1.00
H355   H     0.61828   0.90200   0.83734   0.00000  Uiso   1.00
H356   H     0.46666   0.54007   0.84814   0.00000  Uiso   1.00
H357   H     0.33592   0.86117   0.00559   0.00000  Uiso   1.00
H358   H     0.70204   0.08967   0.79150   0.00000  Uiso   1.00
H359   H     0.38232   0.32647   0.81427   0.00000  Uiso   1.00
O360   O     0.13597   0.95273   0.02911   0.00000  Uiso   1.00
O361   O     0.61629   0.25250   0.74823   0.00000  Uiso   1.00
O362   O     0.19683   0.25120   0.77811   0.00000  Uiso   1.00
N363   N     0.10326   0.94631   0.96814   0.00000  Uiso   1.00
N364   N     0.44555   0.15996   0.76798   0.00000  Uiso   1.00
N365   N     0.14666   0.44644   0.78926   0.00000  Uiso   1.00
N366   N     0.27230   0.88207   0.98819   0.00000  Uiso   1.00
N367   N     0.61460   0.09573   0.78803   0.00000  Uiso   1.00
N368   N     0.31571   0.38220   0.80931   0.00000  Uiso   1.00
