data_job_01542
_audit_creation_date              2018-12-19
_audit_creation_method            'Materials Studio'
_symmetry_space_group_name_H-M    'P1'
_symmetry_Int_Tables_number       1
_symmetry_cell_setting            triclinic
loop_
_symmetry_equiv_pos_as_xyz
  x,y,z
_cell_length_a                    12.5567
_cell_length_b                    14.2826
_cell_length_c                    16.6095
_cell_angle_alpha                 90.0000
_cell_angle_beta                  91.8872
_cell_angle_gamma                 90.0000
loop_
_atom_site_label
_atom_site_type_symbol
_atom_site_fract_x
_atom_site_fract_y
_atom_site_fract_z
_atom_site_U_iso_or_equiv
_atom_site_adp_type
_atom_site_occupancy
C1     C     0.81182   0.63491   0.92828   0.00000  Uiso   1.00
C2     C     0.78687   0.65226   0.83905   0.00000  Uiso   1.00
C3     C     0.79366   0.73782   0.79995   0.00000  Uiso   1.00
C4     C     0.76743   0.73912   0.71810   0.00000  Uiso   1.00
C5     C     0.73349   0.77844   0.58583   0.00000  Uiso   1.00
C6     C     0.71171   0.59128   0.96184   0.00000  Uiso   1.00
C7     C     0.65531   0.62556   0.02599   0.00000  Uiso   1.00
C8     C     0.56582   0.57552   0.04750   0.00000  Uiso   1.00
C9     C     0.41523   0.52013   0.10590   0.00000  Uiso   1.00
C10    C     0.89668   0.55852   0.93198   0.00000  Uiso   1.00
C11    C     0.99580   0.56525   0.97104   0.00000  Uiso   1.00
C12    C     0.06203   0.48762   0.96744   0.00000  Uiso   1.00
C13    C     0.19863   0.38137   0.97947   0.00000  Uiso   1.00
C14    C     0.75317   0.48508   0.85244   0.00000  Uiso   1.00
C15    C     0.75501   0.57087   0.79786   0.00000  Uiso   1.00
C16    C     0.72877   0.57204   0.71605   0.00000  Uiso   1.00
C17    C     0.73552   0.65759   0.67683   0.00000  Uiso   1.00
C18    C     0.67985   0.50990   0.92065   0.00000  Uiso   1.00
C19    C     0.59043   0.45979   0.94208   0.00000  Uiso   1.00
C20    C     0.53391   0.49399   0.00624   0.00000  Uiso   1.00
C21    C     0.86483   0.47714   0.89079   0.00000  Uiso   1.00
C22    C     0.93091   0.39948   0.88713   0.00000  Uiso   1.00
C23    C     0.03012   0.40609   0.92617   0.00000  Uiso   1.00
H24    H     0.83662   0.69827   0.96035   0.00000  Uiso   1.00
H25    H     0.81830   0.80079   0.83186   0.00000  Uiso   1.00
H26    H     0.67999   0.68854   0.05786   0.00000  Uiso   1.00
H27    H     0.02042   0.62824   0.00291   0.00000  Uiso   1.00
H28    H     0.78392   0.87856   0.67123   0.00000  Uiso   1.00
H29    H     0.49230   0.64186   0.14779   0.00000  Uiso   1.00
H30    H     0.21016   0.51471   0.03193   0.00000  Uiso   1.00
H31    H     0.72837   0.42172   0.82037   0.00000  Uiso   1.00
H32    H     0.70413   0.50905   0.68418   0.00000  Uiso   1.00
H33    H     0.56581   0.39681   0.91019   0.00000  Uiso   1.00
H34    H     0.90624   0.33651   0.85525   0.00000  Uiso   1.00
H35    H     0.69124   0.64178   0.55138   0.00000  Uiso   1.00
H36    H     0.39962   0.40508   0.02794   0.00000  Uiso   1.00
H37    H     0.11748   0.27793   0.91208   0.00000  Uiso   1.00
O38    O     0.72355   0.82262   0.52425   0.00000  Uiso   1.00
O39    O     0.34096   0.51207   0.14948   0.00000  Uiso   1.00
O40    O     0.28278   0.34526   0.99748   0.00000  Uiso   1.00
N41    N     0.76546   0.81084   0.66171   0.00000  Uiso   1.00
N42    N     0.49279   0.58955   0.10725   0.00000  Uiso   1.00
N43    N     0.16393   0.47067   0.99896   0.00000  Uiso   1.00
N44    N     0.71559   0.68343   0.59722   0.00000  Uiso   1.00
N45    N     0.44293   0.46215   0.04276   0.00000  Uiso   1.00
N46    N     0.11406   0.34326   0.93446   0.00000  Uiso   1.00
C47    C     0.31182   0.13491   0.92828   0.00000  Uiso   1.00
C48    C     0.28687   0.15226   0.83905   0.00000  Uiso   1.00
C49    C     0.29366   0.23782   0.79995   0.00000  Uiso   1.00
C50    C     0.26743   0.23912   0.71810   0.00000  Uiso   1.00
C51    C     0.23349   0.27844   0.58583   0.00000  Uiso   1.00
C52    C     0.21171   0.09128   0.96184   0.00000  Uiso   1.00
C53    C     0.15531   0.12556   0.02599   0.00000  Uiso   1.00
C54    C     0.06582   0.07552   0.04750   0.00000  Uiso   1.00
C55    C     0.91523   0.02013   0.10590   0.00000  Uiso   1.00
C56    C     0.39668   0.05852   0.93198   0.00000  Uiso   1.00
C57    C     0.49580   0.06525   0.97104   0.00000  Uiso   1.00
C58    C     0.56203   0.98762   0.96744   0.00000  Uiso   1.00
C59    C     0.69863   0.88137   0.97947   0.00000  Uiso   1.00
C60    C     0.25317   0.98508   0.85244   0.00000  Uiso   1.00
C61    C     0.25501   0.07087   0.79786   0.00000  Uiso   1.00
C62    C     0.22877   0.07204   0.71605   0.00000  Uiso   1.00
C63    C     0.23552   0.15759   0.67683   0.00000  Uiso   1.00
C64    C     0.17985   0.00990   0.92065   0.00000  Uiso   1.00
C65    C     0.09043   0.95979   0.94208   0.00000  Uiso   1.00
C66    C     0.03391   0.99399   0.00624   0.00000  Uiso   1.00
C67    C     0.36483   0.97714   0.89079   0.00000  Uiso   1.00
C68    C     0.43091   0.89948   0.88713   0.00000  Uiso   1.00
C69    C     0.53012   0.90609   0.92617   0.00000  Uiso   1.00
H70    H     0.33662   0.19827   0.96035   0.00000  Uiso   1.00
H71    H     0.31830   0.30079   0.83186   0.00000  Uiso   1.00
H72    H     0.17999   0.18854   0.05786   0.00000  Uiso   1.00
H73    H     0.52042   0.12824   0.00291   0.00000  Uiso   1.00
H74    H     0.28392   0.37856   0.67123   0.00000  Uiso   1.00
H75    H     0.99230   0.14186   0.14779   0.00000  Uiso   1.00
H76    H     0.71016   0.01471   0.03193   0.00000  Uiso   1.00
H77    H     0.22837   0.92172   0.82037   0.00000  Uiso   1.00
H78    H     0.20413   0.00905   0.68418   0.00000  Uiso   1.00
H79    H     0.06581   0.89681   0.91019   0.00000  Uiso   1.00
H80    H     0.40624   0.83651   0.85525   0.00000  Uiso   1.00
H81    H     0.19124   0.14178   0.55138   0.00000  Uiso   1.00
H82    H     0.89962   0.90508   0.02794   0.00000  Uiso   1.00
H83    H     0.61748   0.77793   0.91208   0.00000  Uiso   1.00
O84    O     0.22355   0.32262   0.52425   0.00000  Uiso   1.00
O85    O     0.84096   0.01207   0.14948   0.00000  Uiso   1.00
O86    O     0.78278   0.84526   0.99748   0.00000  Uiso   1.00
N87    N     0.26546   0.31084   0.66171   0.00000  Uiso   1.00
N88    N     0.99279   0.08955   0.10725   0.00000  Uiso   1.00
N89    N     0.66393   0.97067   0.99896   0.00000  Uiso   1.00
N90    N     0.21559   0.18343   0.59722   0.00000  Uiso   1.00
N91    N     0.94293   0.96215   0.04276   0.00000  Uiso   1.00
N92    N     0.61406   0.84326   0.93446   0.00000  Uiso   1.00
C93    C     0.81182   0.36509   0.42828   0.00000  Uiso   1.00
C94    C     0.78687   0.34774   0.33905   0.00000  Uiso   1.00
C95    C     0.79366   0.26218   0.29995   0.00000  Uiso   1.00
C96    C     0.76743   0.26088   0.21810   0.00000  Uiso   1.00
C97    C     0.73349   0.22156   0.08583   0.00000  Uiso   1.00
C98    C     0.71171   0.40872   0.46184   0.00000  Uiso   1.00
C99    C     0.65531   0.37444   0.52599   0.00000  Uiso   1.00
C100   C     0.56582   0.42448   0.54750   0.00000  Uiso   1.00
C101   C     0.41523   0.47987   0.60590   0.00000  Uiso   1.00
C102   C     0.89668   0.44148   0.43198   0.00000  Uiso   1.00
C103   C     0.99580   0.43475   0.47104   0.00000  Uiso   1.00
C104   C     0.06203   0.51238   0.46744   0.00000  Uiso   1.00
C105   C     0.19863   0.61863   0.47947   0.00000  Uiso   1.00
C106   C     0.75317   0.51492   0.35244   0.00000  Uiso   1.00
C107   C     0.75501   0.42913   0.29786   0.00000  Uiso   1.00
C108   C     0.72877   0.42796   0.21605   0.00000  Uiso   1.00
C109   C     0.73552   0.34241   0.17683   0.00000  Uiso   1.00
C110   C     0.67985   0.49010   0.42065   0.00000  Uiso   1.00
C111   C     0.59043   0.54021   0.44208   0.00000  Uiso   1.00
C112   C     0.53391   0.50601   0.50624   0.00000  Uiso   1.00
C113   C     0.86483   0.52286   0.39079   0.00000  Uiso   1.00
C114   C     0.93091   0.60052   0.38713   0.00000  Uiso   1.00
C115   C     0.03012   0.59391   0.42617   0.00000  Uiso   1.00
H116   H     0.83662   0.30173   0.46035   0.00000  Uiso   1.00
H117   H     0.81830   0.19921   0.33186   0.00000  Uiso   1.00
H118   H     0.67999   0.31146   0.55786   0.00000  Uiso   1.00
H119   H     0.02042   0.37176   0.50291   0.00000  Uiso   1.00
H120   H     0.78392   0.12144   0.17123   0.00000  Uiso   1.00
H121   H     0.49230   0.35814   0.64779   0.00000  Uiso   1.00
H122   H     0.21016   0.48529   0.53193   0.00000  Uiso   1.00
H123   H     0.72837   0.57828   0.32037   0.00000  Uiso   1.00
H124   H     0.70413   0.49095   0.18418   0.00000  Uiso   1.00
H125   H     0.56581   0.60319   0.41019   0.00000  Uiso   1.00
H126   H     0.90624   0.66349   0.35525   0.00000  Uiso   1.00
H127   H     0.69124   0.35822   0.05138   0.00000  Uiso   1.00
H128   H     0.39962   0.59492   0.52794   0.00000  Uiso   1.00
H129   H     0.11748   0.72207   0.41208   0.00000  Uiso   1.00
O130   O     0.72355   0.17738   0.02425   0.00000  Uiso   1.00
O131   O     0.34096   0.48793   0.64948   0.00000  Uiso   1.00
O132   O     0.28278   0.65474   0.49748   0.00000  Uiso   1.00
N133   N     0.76546   0.18916   0.16171   0.00000  Uiso   1.00
N134   N     0.49279   0.41045   0.60725   0.00000  Uiso   1.00
N135   N     0.16393   0.52933   0.49896   0.00000  Uiso   1.00
N136   N     0.71559   0.31657   0.09722   0.00000  Uiso   1.00
N137   N     0.44293   0.53785   0.54276   0.00000  Uiso   1.00
N138   N     0.11406   0.65674   0.43446   0.00000  Uiso   1.00
C139   C     0.31182   0.86509   0.42828   0.00000  Uiso   1.00
C140   C     0.28687   0.84774   0.33905   0.00000  Uiso   1.00
C141   C     0.29366   0.76218   0.29995   0.00000  Uiso   1.00
C142   C     0.26743   0.76088   0.21810   0.00000  Uiso   1.00
C143   C     0.23349   0.72156   0.08583   0.00000  Uiso   1.00
C144   C     0.21171   0.90872   0.46184   0.00000  Uiso   1.00
C145   C     0.15531   0.87444   0.52599   0.00000  Uiso   1.00
C146   C     0.06582   0.92448   0.54750   0.00000  Uiso   1.00
C147   C     0.91523   0.97987   0.60590   0.00000  Uiso   1.00
C148   C     0.39668   0.94148   0.43198   0.00000  Uiso   1.00
C149   C     0.49580   0.93475   0.47104   0.00000  Uiso   1.00
C150   C     0.56203   0.01238   0.46744   0.00000  Uiso   1.00
C151   C     0.69863   0.11863   0.47947   0.00000  Uiso   1.00
C152   C     0.25317   0.01492   0.35244   0.00000  Uiso   1.00
C153   C     0.25501   0.92913   0.29786   0.00000  Uiso   1.00
C154   C     0.22877   0.92796   0.21605   0.00000  Uiso   1.00
C155   C     0.23552   0.84241   0.17683   0.00000  Uiso   1.00
C156   C     0.17985   0.99010   0.42065   0.00000  Uiso   1.00
C157   C     0.09043   0.04021   0.44208   0.00000  Uiso   1.00
C158   C     0.03391   0.00601   0.50624   0.00000  Uiso   1.00
C159   C     0.36483   0.02286   0.39079   0.00000  Uiso   1.00
C160   C     0.43091   0.10052   0.38713   0.00000  Uiso   1.00
C161   C     0.53012   0.09391   0.42617   0.00000  Uiso   1.00
H162   H     0.33662   0.80173   0.46035   0.00000  Uiso   1.00
H163   H     0.31830   0.69921   0.33186   0.00000  Uiso   1.00
H164   H     0.17999   0.81146   0.55786   0.00000  Uiso   1.00
H165   H     0.52042   0.87176   0.50291   0.00000  Uiso   1.00
H166   H     0.28392   0.62144   0.17123   0.00000  Uiso   1.00
H167   H     0.99230   0.85814   0.64779   0.00000  Uiso   1.00
H168   H     0.71016   0.98529   0.53193   0.00000  Uiso   1.00
H169   H     0.22837   0.07828   0.32037   0.00000  Uiso   1.00
H170   H     0.20413   0.99095   0.18418   0.00000  Uiso   1.00
H171   H     0.06581   0.10319   0.41019   0.00000  Uiso   1.00
H172   H     0.40624   0.16349   0.35525   0.00000  Uiso   1.00
H173   H     0.19124   0.85822   0.05138   0.00000  Uiso   1.00
H174   H     0.89962   0.09492   0.52794   0.00000  Uiso   1.00
H175   H     0.61748   0.22207   0.41208   0.00000  Uiso   1.00
O176   O     0.22355   0.67738   0.02425   0.00000  Uiso   1.00
O177   O     0.84096   0.98793   0.64948   0.00000  Uiso   1.00
O178   O     0.78278   0.15474   0.49748   0.00000  Uiso   1.00
N179   N     0.26546   0.68916   0.16171   0.00000  Uiso   1.00
N180   N     0.99279   0.91045   0.60725   0.00000  Uiso   1.00
N181   N     0.66393   0.02933   0.49896   0.00000  Uiso   1.00
N182   N     0.21559   0.81657   0.09722   0.00000  Uiso   1.00
N183   N     0.94293   0.03785   0.54276   0.00000  Uiso   1.00
N184   N     0.61406   0.15674   0.43446   0.00000  Uiso   1.00
