data_job_05300
_audit_creation_date              2018-12-19
_audit_creation_method            'Materials Studio'
_symmetry_space_group_name_H-M    'P1'
_symmetry_Int_Tables_number       1
_symmetry_cell_setting            triclinic
loop_
_symmetry_equiv_pos_as_xyz
  x,y,z
_cell_length_a                    21.6272
_cell_length_b                    17.8079
_cell_length_c                    7.1168
_cell_angle_alpha                 90.0000
_cell_angle_beta                  90.0000
_cell_angle_gamma                 90.0000
loop_
_atom_site_label
_atom_site_type_symbol
_atom_site_fract_x
_atom_site_fract_y
_atom_site_fract_z
_atom_site_U_iso_or_equiv
_atom_site_adp_type
_atom_site_occupancy
C1     C     0.73538   0.40568   0.05119   0.00000  Uiso   1.00
C2     C     0.76093   0.48100   0.98508   0.00000  Uiso   1.00
C3     C     0.79495   0.53091   0.09342   0.00000  Uiso   1.00
C4     C     0.81410   0.59684   0.00704   0.00000  Uiso   1.00
C5     C     0.85593   0.71146   0.93301   0.00000  Uiso   1.00
C6     C     0.66592   0.40848   0.01508   0.00000  Uiso   1.00
C7     C     0.62005   0.39742   0.14863   0.00000  Uiso   1.00
C8     C     0.55922   0.40229   0.08749   0.00000  Uiso   1.00
C9     C     0.45355   0.40428   0.06000   0.00000  Uiso   1.00
C10    C     0.76114   0.34697   0.91628   0.00000  Uiso   1.00
C11    C     0.79532   0.28418   0.96676   0.00000  Uiso   1.00
C12    C     0.81465   0.23726   0.82244   0.00000  Uiso   1.00
C13    C     0.85682   0.14374   0.64155   0.00000  Uiso   1.00
C14    C     0.70890   0.43399   0.70514   0.00000  Uiso   1.00
C15    C     0.74654   0.49637   0.79712   0.00000  Uiso   1.00
C16    C     0.76565   0.56224   0.71055   0.00000  Uiso   1.00
C17    C     0.79969   0.61224   0.81874   0.00000  Uiso   1.00
C18    C     0.65153   0.42386   0.82712   0.00000  Uiso   1.00
C19    C     0.59075   0.42875   0.76576   0.00000  Uiso   1.00
C20    C     0.54481   0.41770   0.89919   0.00000  Uiso   1.00
C21    C     0.74675   0.36235   0.72831   0.00000  Uiso   1.00
C22    C     0.76602   0.31551   0.58389   0.00000  Uiso   1.00
C23    C     0.80023   0.25266   0.63414   0.00000  Uiso   1.00
H24    H     0.74657   0.39371   0.19753   0.00000  Uiso   1.00
H25    H     0.80607   0.51899   0.23888   0.00000  Uiso   1.00
H26    H     0.63120   0.38551   0.29407   0.00000  Uiso   1.00
H27    H     0.80644   0.27230   0.11223   0.00000  Uiso   1.00
H28    H     0.86566   0.66469   0.20185   0.00000  Uiso   1.00
H29    H     0.49694   0.38322   0.31822   0.00000  Uiso   1.00
H30    H     0.86648   0.14447   0.93477   0.00000  Uiso   1.00
H31    H     0.69770   0.44597   0.55879   0.00000  Uiso   1.00
H32    H     0.75451   0.57412   0.56509   0.00000  Uiso   1.00
H33    H     0.57964   0.44064   0.62029   0.00000  Uiso   1.00
H34    H     0.75488   0.32743   0.43845   0.00000  Uiso   1.00
H35    H     0.82381   0.70944   0.65499   0.00000  Uiso   1.00
H36    H     0.45509   0.42796   0.77136   0.00000  Uiso   1.00
H37    H     0.82463   0.18922   0.38790   0.00000  Uiso   1.00
O38    O     0.88297   0.77044   0.94411   0.00000  Uiso   1.00
O39    O     0.39923   0.40114   0.09677   0.00000  Uiso   1.00
O40    O     0.88406   0.08792   0.59369   0.00000  Uiso   1.00
N41    N     0.84802   0.65763   0.07227   0.00000  Uiso   1.00
N42    N     0.50330   0.39448   0.18108   0.00000  Uiso   1.00
N43    N     0.84877   0.17126   0.82259   0.00000  Uiso   1.00
N44    N     0.82551   0.68170   0.77801   0.00000  Uiso   1.00
N45    N     0.48078   0.41855   0.88681   0.00000  Uiso   1.00
N46    N     0.82625   0.19534   0.52832   0.00000  Uiso   1.00
C47    C     0.26462   0.59432   0.55119   0.00000  Uiso   1.00
C48    C     0.23907   0.51900   0.48508   0.00000  Uiso   1.00
C49    C     0.20505   0.46909   0.59342   0.00000  Uiso   1.00
C50    C     0.18590   0.40316   0.50704   0.00000  Uiso   1.00
C51    C     0.14407   0.28854   0.43301   0.00000  Uiso   1.00
C52    C     0.33408   0.59152   0.51508   0.00000  Uiso   1.00
C53    C     0.37995   0.60258   0.64863   0.00000  Uiso   1.00
C54    C     0.44078   0.59771   0.58749   0.00000  Uiso   1.00
C55    C     0.54645   0.59572   0.56000   0.00000  Uiso   1.00
C56    C     0.23886   0.65303   0.41628   0.00000  Uiso   1.00
C57    C     0.20468   0.71582   0.46676   0.00000  Uiso   1.00
C58    C     0.18535   0.76274   0.32244   0.00000  Uiso   1.00
C59    C     0.14318   0.85626   0.14155   0.00000  Uiso   1.00
C60    C     0.29110   0.56601   0.20514   0.00000  Uiso   1.00
C61    C     0.25346   0.50363   0.29712   0.00000  Uiso   1.00
C62    C     0.23435   0.43776   0.21055   0.00000  Uiso   1.00
C63    C     0.20031   0.38776   0.31874   0.00000  Uiso   1.00
C64    C     0.34847   0.57614   0.32712   0.00000  Uiso   1.00
C65    C     0.40925   0.57125   0.26576   0.00000  Uiso   1.00
C66    C     0.45519   0.58230   0.39919   0.00000  Uiso   1.00
C67    C     0.25325   0.63765   0.22831   0.00000  Uiso   1.00
C68    C     0.23398   0.68449   0.08389   0.00000  Uiso   1.00
C69    C     0.19977   0.74734   0.13414   0.00000  Uiso   1.00
H70    H     0.25343   0.60629   0.69753   0.00000  Uiso   1.00
H71    H     0.19393   0.48101   0.73888   0.00000  Uiso   1.00
H72    H     0.36880   0.61449   0.79407   0.00000  Uiso   1.00
H73    H     0.19356   0.72770   0.61223   0.00000  Uiso   1.00
H74    H     0.13434   0.33531   0.70185   0.00000  Uiso   1.00
H75    H     0.50306   0.61678   0.81822   0.00000  Uiso   1.00
H76    H     0.13352   0.85553   0.43477   0.00000  Uiso   1.00
H77    H     0.30230   0.55403   0.05879   0.00000  Uiso   1.00
H78    H     0.24549   0.42588   0.06509   0.00000  Uiso   1.00
H79    H     0.42036   0.55936   0.12029   0.00000  Uiso   1.00
H80    H     0.24512   0.67257   0.93845   0.00000  Uiso   1.00
H81    H     0.17619   0.29056   0.15499   0.00000  Uiso   1.00
H82    H     0.54491   0.57204   0.27136   0.00000  Uiso   1.00
H83    H     0.17537   0.81078   0.88790   0.00000  Uiso   1.00
O84    O     0.11703   0.22956   0.44411   0.00000  Uiso   1.00
O85    O     0.60077   0.59886   0.59677   0.00000  Uiso   1.00
O86    O     0.11594   0.91208   0.09369   0.00000  Uiso   1.00
N87    N     0.15198   0.34237   0.57227   0.00000  Uiso   1.00
N88    N     0.49670   0.60552   0.68108   0.00000  Uiso   1.00
N89    N     0.15123   0.82874   0.32259   0.00000  Uiso   1.00
N90    N     0.17449   0.31830   0.27801   0.00000  Uiso   1.00
N91    N     0.51922   0.58145   0.38681   0.00000  Uiso   1.00
N92    N     0.17375   0.80466   0.02832   0.00000  Uiso   1.00
C93    C     0.23538   0.09432   0.05119   0.00000  Uiso   1.00
C94    C     0.26093   0.01900   0.98508   0.00000  Uiso   1.00
C95    C     0.29495   0.96909   0.09342   0.00000  Uiso   1.00
C96    C     0.31410   0.90316   0.00704   0.00000  Uiso   1.00
C97    C     0.35593   0.78854   0.93301   0.00000  Uiso   1.00
C98    C     0.16592   0.09152   0.01508   0.00000  Uiso   1.00
C99    C     0.12005   0.10258   0.14863   0.00000  Uiso   1.00
C100   C     0.05922   0.09771   0.08749   0.00000  Uiso   1.00
C101   C     0.95355   0.09572   0.06000   0.00000  Uiso   1.00
C102   C     0.26114   0.15303   0.91628   0.00000  Uiso   1.00
C103   C     0.29532   0.21582   0.96676   0.00000  Uiso   1.00
C104   C     0.31465   0.26274   0.82244   0.00000  Uiso   1.00
C105   C     0.35682   0.35626   0.64155   0.00000  Uiso   1.00
C106   C     0.20890   0.06601   0.70514   0.00000  Uiso   1.00
C107   C     0.24654   0.00363   0.79712   0.00000  Uiso   1.00
C108   C     0.26565   0.93776   0.71055   0.00000  Uiso   1.00
C109   C     0.29969   0.88776   0.81874   0.00000  Uiso   1.00
C110   C     0.15153   0.07614   0.82712   0.00000  Uiso   1.00
C111   C     0.09075   0.07125   0.76576   0.00000  Uiso   1.00
C112   C     0.04481   0.08230   0.89919   0.00000  Uiso   1.00
C113   C     0.24675   0.13765   0.72831   0.00000  Uiso   1.00
C114   C     0.26602   0.18449   0.58389   0.00000  Uiso   1.00
C115   C     0.30023   0.24734   0.63414   0.00000  Uiso   1.00
H116   H     0.24657   0.10629   0.19753   0.00000  Uiso   1.00
H117   H     0.30607   0.98101   0.23888   0.00000  Uiso   1.00
H118   H     0.13120   0.11449   0.29407   0.00000  Uiso   1.00
H119   H     0.30644   0.22770   0.11223   0.00000  Uiso   1.00
H120   H     0.36566   0.83531   0.20185   0.00000  Uiso   1.00
H121   H     0.99694   0.11678   0.31822   0.00000  Uiso   1.00
H122   H     0.36648   0.35553   0.93477   0.00000  Uiso   1.00
H123   H     0.19770   0.05403   0.55879   0.00000  Uiso   1.00
H124   H     0.25451   0.92588   0.56509   0.00000  Uiso   1.00
H125   H     0.07964   0.05936   0.62029   0.00000  Uiso   1.00
H126   H     0.25488   0.17257   0.43845   0.00000  Uiso   1.00
H127   H     0.32381   0.79056   0.65499   0.00000  Uiso   1.00
H128   H     0.95509   0.07204   0.77136   0.00000  Uiso   1.00
H129   H     0.32463   0.31078   0.38790   0.00000  Uiso   1.00
O130   O     0.38297   0.72956   0.94411   0.00000  Uiso   1.00
O131   O     0.89923   0.09886   0.09677   0.00000  Uiso   1.00
O132   O     0.38406   0.41208   0.59369   0.00000  Uiso   1.00
N133   N     0.34802   0.84237   0.07227   0.00000  Uiso   1.00
N134   N     0.00330   0.10552   0.18108   0.00000  Uiso   1.00
N135   N     0.34877   0.32874   0.82259   0.00000  Uiso   1.00
N136   N     0.32551   0.81830   0.77801   0.00000  Uiso   1.00
N137   N     0.98078   0.08145   0.88681   0.00000  Uiso   1.00
N138   N     0.32625   0.30466   0.52832   0.00000  Uiso   1.00
C139   C     0.76462   0.90568   0.55119   0.00000  Uiso   1.00
C140   C     0.73907   0.98100   0.48508   0.00000  Uiso   1.00
C141   C     0.70505   0.03091   0.59342   0.00000  Uiso   1.00
C142   C     0.68590   0.09684   0.50704   0.00000  Uiso   1.00
C143   C     0.64407   0.21146   0.43301   0.00000  Uiso   1.00
C144   C     0.83408   0.90848   0.51508   0.00000  Uiso   1.00
C145   C     0.87995   0.89742   0.64863   0.00000  Uiso   1.00
C146   C     0.94078   0.90229   0.58749   0.00000  Uiso   1.00
C147   C     0.04645   0.90428   0.56000   0.00000  Uiso   1.00
C148   C     0.73886   0.84697   0.41628   0.00000  Uiso   1.00
C149   C     0.70468   0.78418   0.46676   0.00000  Uiso   1.00
C150   C     0.68535   0.73726   0.32244   0.00000  Uiso   1.00
C151   C     0.64318   0.64374   0.14155   0.00000  Uiso   1.00
C152   C     0.79110   0.93399   0.20514   0.00000  Uiso   1.00
C153   C     0.75346   0.99637   0.29712   0.00000  Uiso   1.00
C154   C     0.73435   0.06224   0.21055   0.00000  Uiso   1.00
C155   C     0.70031   0.11224   0.31874   0.00000  Uiso   1.00
C156   C     0.84847   0.92386   0.32712   0.00000  Uiso   1.00
C157   C     0.90925   0.92875   0.26576   0.00000  Uiso   1.00
C158   C     0.95519   0.91770   0.39919   0.00000  Uiso   1.00
C159   C     0.75325   0.86235   0.22831   0.00000  Uiso   1.00
C160   C     0.73398   0.81551   0.08389   0.00000  Uiso   1.00
C161   C     0.69977   0.75266   0.13414   0.00000  Uiso   1.00
H162   H     0.75343   0.89371   0.69753   0.00000  Uiso   1.00
H163   H     0.69393   0.01899   0.73888   0.00000  Uiso   1.00
H164   H     0.86880   0.88551   0.79407   0.00000  Uiso   1.00
H165   H     0.69356   0.77230   0.61223   0.00000  Uiso   1.00
H166   H     0.63434   0.16469   0.70185   0.00000  Uiso   1.00
H167   H     0.00306   0.88322   0.81822   0.00000  Uiso   1.00
H168   H     0.63352   0.64447   0.43477   0.00000  Uiso   1.00
H169   H     0.80230   0.94597   0.05879   0.00000  Uiso   1.00
H170   H     0.74549   0.07412   0.06509   0.00000  Uiso   1.00
H171   H     0.92036   0.94064   0.12029   0.00000  Uiso   1.00
H172   H     0.74512   0.82743   0.93845   0.00000  Uiso   1.00
H173   H     0.67619   0.20944   0.15499   0.00000  Uiso   1.00
H174   H     0.04491   0.92796   0.27136   0.00000  Uiso   1.00
H175   H     0.67537   0.68922   0.88790   0.00000  Uiso   1.00
O176   O     0.61703   0.27044   0.44411   0.00000  Uiso   1.00
O177   O     0.10077   0.90114   0.59677   0.00000  Uiso   1.00
O178   O     0.61594   0.58792   0.09369   0.00000  Uiso   1.00
N179   N     0.65198   0.15763   0.57227   0.00000  Uiso   1.00
N180   N     0.99670   0.89448   0.68108   0.00000  Uiso   1.00
N181   N     0.65123   0.67126   0.32259   0.00000  Uiso   1.00
N182   N     0.67449   0.18170   0.27801   0.00000  Uiso   1.00
N183   N     0.01922   0.91855   0.38681   0.00000  Uiso   1.00
N184   N     0.67375   0.69534   0.02832   0.00000  Uiso   1.00
