data_job_00826
_audit_creation_date              2018-12-19
_audit_creation_method            'Materials Studio'
_symmetry_space_group_name_H-M    'P1'
_symmetry_Int_Tables_number       1
_symmetry_cell_setting            triclinic
loop_
_symmetry_equiv_pos_as_xyz
  x,y,z
_cell_length_a                    21.9206
_cell_length_b                    21.9206
_cell_length_c                    9.1790
_cell_angle_alpha                 90.0000
_cell_angle_beta                  90.0000
_cell_angle_gamma                 90.0000
loop_
_atom_site_label
_atom_site_type_symbol
_atom_site_fract_x
_atom_site_fract_y
_atom_site_fract_z
_atom_site_U_iso_or_equiv
_atom_site_adp_type
_atom_site_occupancy
C1     C     0.72424   0.97094   0.49575   0.00000  Uiso   1.00
C2     C     0.68015   0.02150   0.53976   0.00000  Uiso   1.00
C3     C     0.62193   0.03011   0.48405   0.00000  Uiso   1.00
C4     C     0.58878   0.07903   0.53845   0.00000  Uiso   1.00
C5     C     0.51664   0.15164   0.59056   0.00000  Uiso   1.00
C6     C     0.78238   0.00286   0.44560   0.00000  Uiso   1.00
C7     C     0.81011   0.99578   0.31074   0.00000  Uiso   1.00
C8     C     0.86302   0.02901   0.28590   0.00000  Uiso   1.00
C9     C     0.94962   0.07264   0.19187   0.00000  Uiso   1.00
C10    C     0.74080   0.93753   0.63599   0.00000  Uiso   1.00
C11    C     0.73359   0.87552   0.66119   0.00000  Uiso   1.00
C12    C     0.75151   0.85375   0.79664   0.00000  Uiso   1.00
C13    C     0.77355   0.79595   0.99821   0.00000  Uiso   1.00
C14    C     0.76890   0.04253   0.69145   0.00000  Uiso   1.00
C15    C     0.70441   0.06038   0.64605   0.00000  Uiso   1.00
C16    C     0.67134   0.10931   0.70057   0.00000  Uiso   1.00
C17    C     0.61308   0.11798   0.64495   0.00000  Uiso   1.00
C18    C     0.80664   0.04174   0.55189   0.00000  Uiso   1.00
C19    C     0.85952   0.07498   0.52726   0.00000  Uiso   1.00
C20    C     0.88733   0.06796   0.39239   0.00000  Uiso   1.00
C21    C     0.76506   0.97641   0.74229   0.00000  Uiso   1.00
C22    C     0.78300   0.95473   0.87771   0.00000  Uiso   1.00
C23    C     0.77582   0.89270   0.90312   0.00000  Uiso   1.00
H24    H     0.70536   0.94067   0.41299   0.00000  Uiso   1.00
H25    H     0.60317   0.00001   0.40177   0.00000  Uiso   1.00
H26    H     0.79133   0.96569   0.22851   0.00000  Uiso   1.00
H27    H     0.71482   0.84545   0.57891   0.00000  Uiso   1.00
H28    H     0.50059   0.08296   0.43618   0.00000  Uiso   1.00
H29    H     0.89734   0.01056   0.07085   0.00000  Uiso   1.00
H30    H     0.73600   0.75702   0.80974   0.00000  Uiso   1.00
H31    H     0.78779   0.07280   0.77421   0.00000  Uiso   1.00
H32    H     0.69013   0.13939   0.78282   0.00000  Uiso   1.00
H33    H     0.87828   0.10506   0.60954   0.00000  Uiso   1.00
H34    H     0.80177   0.98483   0.95995   0.00000  Uiso   1.00
H35    H     0.57117   0.19608   0.74545   0.00000  Uiso   1.00
H36    H     0.96792   0.12369   0.38011   0.00000  Uiso   1.00
H37    H     0.80658   0.87015   0.11900   0.00000  Uiso   1.00
O38    O     0.47016   0.18095   0.58993   0.00000  Uiso   1.00
O39    O     0.99068   0.08596   0.11063   0.00000  Uiso   1.00
O40    O     0.77900   0.75333   0.08004   0.00000  Uiso   1.00
N41    N     0.53060   0.10044   0.50781   0.00000  Uiso   1.00
N42    N     0.90153   0.03276   0.16623   0.00000  Uiso   1.00
N43    N     0.75071   0.79572   0.85702   0.00000  Uiso   1.00
N44    N     0.56858   0.16131   0.67422   0.00000  Uiso   1.00
N45    N     0.93951   0.09363   0.33265   0.00000  Uiso   1.00
N46    N     0.78868   0.85659   0.02343   0.00000  Uiso   1.00
C47    C     0.27576   0.02906   0.49575   0.00000  Uiso   1.00
C48    C     0.31985   0.97850   0.53976   0.00000  Uiso   1.00
C49    C     0.37807   0.96989   0.48405   0.00000  Uiso   1.00
C50    C     0.41122   0.92097   0.53845   0.00000  Uiso   1.00
C51    C     0.48336   0.84836   0.59056   0.00000  Uiso   1.00
C52    C     0.21762   0.99714   0.44560   0.00000  Uiso   1.00
C53    C     0.18989   0.00422   0.31074   0.00000  Uiso   1.00
C54    C     0.13698   0.97099   0.28590   0.00000  Uiso   1.00
C55    C     0.05038   0.92736   0.19187   0.00000  Uiso   1.00
C56    C     0.25920   0.06247   0.63599   0.00000  Uiso   1.00
C57    C     0.26641   0.12448   0.66119   0.00000  Uiso   1.00
C58    C     0.24849   0.14625   0.79664   0.00000  Uiso   1.00
C59    C     0.22645   0.20405   0.99821   0.00000  Uiso   1.00
C60    C     0.23110   0.95747   0.69145   0.00000  Uiso   1.00
C61    C     0.29559   0.93962   0.64605   0.00000  Uiso   1.00
C62    C     0.32866   0.89069   0.70057   0.00000  Uiso   1.00
C63    C     0.38692   0.88202   0.64495   0.00000  Uiso   1.00
C64    C     0.19336   0.95826   0.55189   0.00000  Uiso   1.00
C65    C     0.14048   0.92502   0.52726   0.00000  Uiso   1.00
C66    C     0.11267   0.93204   0.39239   0.00000  Uiso   1.00
C67    C     0.23494   0.02359   0.74229   0.00000  Uiso   1.00
C68    C     0.21700   0.04527   0.87771   0.00000  Uiso   1.00
C69    C     0.22418   0.10730   0.90312   0.00000  Uiso   1.00
H70    H     0.29464   0.05933   0.41299   0.00000  Uiso   1.00
H71    H     0.39683   0.99999   0.40177   0.00000  Uiso   1.00
H72    H     0.20867   0.03431   0.22851   0.00000  Uiso   1.00
H73    H     0.28518   0.15455   0.57891   0.00000  Uiso   1.00
H74    H     0.49941   0.91704   0.43618   0.00000  Uiso   1.00
H75    H     0.10266   0.98944   0.07085   0.00000  Uiso   1.00
H76    H     0.26400   0.24298   0.80974   0.00000  Uiso   1.00
H77    H     0.21221   0.92720   0.77421   0.00000  Uiso   1.00
H78    H     0.30987   0.86061   0.78282   0.00000  Uiso   1.00
H79    H     0.12172   0.89494   0.60954   0.00000  Uiso   1.00
H80    H     0.19823   0.01517   0.95995   0.00000  Uiso   1.00
H81    H     0.42883   0.80392   0.74545   0.00000  Uiso   1.00
H82    H     0.03208   0.87631   0.38011   0.00000  Uiso   1.00
H83    H     0.19342   0.12985   0.11900   0.00000  Uiso   1.00
O84    O     0.52984   0.81905   0.58993   0.00000  Uiso   1.00
O85    O     0.00932   0.91404   0.11063   0.00000  Uiso   1.00
O86    O     0.22100   0.24667   0.08004   0.00000  Uiso   1.00
N87    N     0.46940   0.89956   0.50781   0.00000  Uiso   1.00
N88    N     0.09847   0.96724   0.16623   0.00000  Uiso   1.00
N89    N     0.24929   0.20428   0.85702   0.00000  Uiso   1.00
N90    N     0.43142   0.83869   0.67422   0.00000  Uiso   1.00
N91    N     0.06049   0.90637   0.33265   0.00000  Uiso   1.00
N92    N     0.21132   0.14341   0.02343   0.00000  Uiso   1.00
C93    C     0.97094   0.27576   0.50425   0.00000  Uiso   1.00
C94    C     0.02150   0.31985   0.46024   0.00000  Uiso   1.00
C95    C     0.03011   0.37807   0.51595   0.00000  Uiso   1.00
C96    C     0.07903   0.41122   0.46155   0.00000  Uiso   1.00
C97    C     0.15164   0.48336   0.40944   0.00000  Uiso   1.00
C98    C     0.00286   0.21762   0.55440   0.00000  Uiso   1.00
C99    C     0.99578   0.18989   0.68926   0.00000  Uiso   1.00
C100   C     0.02901   0.13698   0.71410   0.00000  Uiso   1.00
C101   C     0.07264   0.05038   0.80813   0.00000  Uiso   1.00
C102   C     0.93753   0.25920   0.36401   0.00000  Uiso   1.00
C103   C     0.87552   0.26641   0.33881   0.00000  Uiso   1.00
C104   C     0.85375   0.24849   0.20336   0.00000  Uiso   1.00
C105   C     0.79595   0.22645   0.00179   0.00000  Uiso   1.00
C106   C     0.04253   0.23110   0.30855   0.00000  Uiso   1.00
C107   C     0.06038   0.29559   0.35395   0.00000  Uiso   1.00
C108   C     0.10931   0.32866   0.29943   0.00000  Uiso   1.00
C109   C     0.11798   0.38692   0.35505   0.00000  Uiso   1.00
C110   C     0.04174   0.19336   0.44811   0.00000  Uiso   1.00
C111   C     0.07498   0.14048   0.47274   0.00000  Uiso   1.00
C112   C     0.06796   0.11267   0.60761   0.00000  Uiso   1.00
C113   C     0.97641   0.23494   0.25771   0.00000  Uiso   1.00
C114   C     0.95473   0.21700   0.12229   0.00000  Uiso   1.00
C115   C     0.89270   0.22418   0.09688   0.00000  Uiso   1.00
H116   H     0.94067   0.29464   0.58701   0.00000  Uiso   1.00
H117   H     0.00001   0.39683   0.59823   0.00000  Uiso   1.00
H118   H     0.96569   0.20867   0.77149   0.00000  Uiso   1.00
H119   H     0.84545   0.28518   0.42109   0.00000  Uiso   1.00
H120   H     0.08296   0.49941   0.56382   0.00000  Uiso   1.00
H121   H     0.01056   0.10266   0.92915   0.00000  Uiso   1.00
H122   H     0.75702   0.26400   0.19026   0.00000  Uiso   1.00
H123   H     0.07280   0.21221   0.22579   0.00000  Uiso   1.00
H124   H     0.13939   0.30987   0.21718   0.00000  Uiso   1.00
H125   H     0.10506   0.12172   0.39046   0.00000  Uiso   1.00
H126   H     0.98483   0.19823   0.04005   0.00000  Uiso   1.00
H127   H     0.19608   0.42883   0.25455   0.00000  Uiso   1.00
H128   H     0.12369   0.03208   0.61989   0.00000  Uiso   1.00
H129   H     0.87015   0.19342   0.88100   0.00000  Uiso   1.00
O130   O     0.18095   0.52984   0.41007   0.00000  Uiso   1.00
O131   O     0.08596   0.00932   0.88937   0.00000  Uiso   1.00
O132   O     0.75333   0.22100   0.91996   0.00000  Uiso   1.00
N133   N     0.10044   0.46940   0.49219   0.00000  Uiso   1.00
N134   N     0.03276   0.09847   0.83377   0.00000  Uiso   1.00
N135   N     0.79572   0.24929   0.14298   0.00000  Uiso   1.00
N136   N     0.16131   0.43142   0.32578   0.00000  Uiso   1.00
N137   N     0.09363   0.06049   0.66735   0.00000  Uiso   1.00
N138   N     0.85659   0.21132   0.97657   0.00000  Uiso   1.00
C139   C     0.02906   0.72424   0.50425   0.00000  Uiso   1.00
C140   C     0.97850   0.68015   0.46024   0.00000  Uiso   1.00
C141   C     0.96989   0.62193   0.51595   0.00000  Uiso   1.00
C142   C     0.92097   0.58878   0.46155   0.00000  Uiso   1.00
C143   C     0.84836   0.51664   0.40944   0.00000  Uiso   1.00
C144   C     0.99714   0.78238   0.55440   0.00000  Uiso   1.00
C145   C     0.00422   0.81011   0.68926   0.00000  Uiso   1.00
C146   C     0.97099   0.86302   0.71410   0.00000  Uiso   1.00
C147   C     0.92736   0.94962   0.80813   0.00000  Uiso   1.00
C148   C     0.06247   0.74080   0.36401   0.00000  Uiso   1.00
C149   C     0.12448   0.73359   0.33881   0.00000  Uiso   1.00
C150   C     0.14625   0.75151   0.20336   0.00000  Uiso   1.00
C151   C     0.20405   0.77355   0.00179   0.00000  Uiso   1.00
C152   C     0.95747   0.76890   0.30855   0.00000  Uiso   1.00
C153   C     0.93962   0.70441   0.35395   0.00000  Uiso   1.00
C154   C     0.89069   0.67134   0.29943   0.00000  Uiso   1.00
C155   C     0.88202   0.61308   0.35505   0.00000  Uiso   1.00
C156   C     0.95826   0.80664   0.44811   0.00000  Uiso   1.00
C157   C     0.92502   0.85952   0.47274   0.00000  Uiso   1.00
C158   C     0.93204   0.88733   0.60761   0.00000  Uiso   1.00
C159   C     0.02359   0.76506   0.25771   0.00000  Uiso   1.00
C160   C     0.04527   0.78300   0.12229   0.00000  Uiso   1.00
C161   C     0.10730   0.77582   0.09688   0.00000  Uiso   1.00
H162   H     0.05933   0.70536   0.58701   0.00000  Uiso   1.00
H163   H     0.99999   0.60317   0.59823   0.00000  Uiso   1.00
H164   H     0.03431   0.79133   0.77149   0.00000  Uiso   1.00
H165   H     0.15455   0.71482   0.42109   0.00000  Uiso   1.00
H166   H     0.91704   0.50059   0.56382   0.00000  Uiso   1.00
H167   H     0.98944   0.89734   0.92915   0.00000  Uiso   1.00
H168   H     0.24298   0.73600   0.19026   0.00000  Uiso   1.00
H169   H     0.92720   0.78779   0.22579   0.00000  Uiso   1.00
H170   H     0.86061   0.69013   0.21718   0.00000  Uiso   1.00
H171   H     0.89494   0.87828   0.39046   0.00000  Uiso   1.00
H172   H     0.01517   0.80177   0.04005   0.00000  Uiso   1.00
H173   H     0.80392   0.57117   0.25455   0.00000  Uiso   1.00
H174   H     0.87631   0.96792   0.61989   0.00000  Uiso   1.00
H175   H     0.12985   0.80658   0.88100   0.00000  Uiso   1.00
O176   O     0.81905   0.47016   0.41007   0.00000  Uiso   1.00
O177   O     0.91404   0.99068   0.88937   0.00000  Uiso   1.00
O178   O     0.24667   0.77900   0.91996   0.00000  Uiso   1.00
N179   N     0.89956   0.53060   0.49219   0.00000  Uiso   1.00
N180   N     0.96724   0.90153   0.83377   0.00000  Uiso   1.00
N181   N     0.20428   0.75071   0.14298   0.00000  Uiso   1.00
N182   N     0.83869   0.56858   0.32578   0.00000  Uiso   1.00
N183   N     0.90637   0.93951   0.66735   0.00000  Uiso   1.00
N184   N     0.14341   0.78868   0.97657   0.00000  Uiso   1.00
C185   C     0.77576   0.47094   0.00425   0.00000  Uiso   1.00
C186   C     0.81985   0.52150   0.96024   0.00000  Uiso   1.00
C187   C     0.87807   0.53011   0.01595   0.00000  Uiso   1.00
C188   C     0.91122   0.57903   0.96155   0.00000  Uiso   1.00
C189   C     0.98336   0.65164   0.90944   0.00000  Uiso   1.00
C190   C     0.71762   0.50286   0.05440   0.00000  Uiso   1.00
C191   C     0.68989   0.49578   0.18926   0.00000  Uiso   1.00
C192   C     0.63698   0.52901   0.21410   0.00000  Uiso   1.00
C193   C     0.55038   0.57264   0.30813   0.00000  Uiso   1.00
C194   C     0.75920   0.43753   0.86401   0.00000  Uiso   1.00
C195   C     0.76641   0.37552   0.83881   0.00000  Uiso   1.00
C196   C     0.74849   0.35375   0.70336   0.00000  Uiso   1.00
C197   C     0.72645   0.29595   0.50179   0.00000  Uiso   1.00
C198   C     0.73110   0.54253   0.80855   0.00000  Uiso   1.00
C199   C     0.79559   0.56038   0.85395   0.00000  Uiso   1.00
C200   C     0.82866   0.60931   0.79943   0.00000  Uiso   1.00
C201   C     0.88692   0.61798   0.85505   0.00000  Uiso   1.00
C202   C     0.69336   0.54174   0.94811   0.00000  Uiso   1.00
C203   C     0.64048   0.57498   0.97274   0.00000  Uiso   1.00
C204   C     0.61267   0.56796   0.10761   0.00000  Uiso   1.00
C205   C     0.73494   0.47641   0.75771   0.00000  Uiso   1.00
C206   C     0.71700   0.45473   0.62229   0.00000  Uiso   1.00
C207   C     0.72418   0.39270   0.59688   0.00000  Uiso   1.00
H208   H     0.79464   0.44067   0.08701   0.00000  Uiso   1.00
H209   H     0.89683   0.50001   0.09823   0.00000  Uiso   1.00
H210   H     0.70867   0.46569   0.27149   0.00000  Uiso   1.00
H211   H     0.78518   0.34545   0.92109   0.00000  Uiso   1.00
H212   H     0.99941   0.58296   0.06382   0.00000  Uiso   1.00
H213   H     0.60266   0.51056   0.42915   0.00000  Uiso   1.00
H214   H     0.76400   0.25702   0.69026   0.00000  Uiso   1.00
H215   H     0.71221   0.57280   0.72579   0.00000  Uiso   1.00
H216   H     0.80987   0.63939   0.71718   0.00000  Uiso   1.00
H217   H     0.62172   0.60506   0.89046   0.00000  Uiso   1.00
H218   H     0.69823   0.48483   0.54005   0.00000  Uiso   1.00
H219   H     0.92883   0.69608   0.75455   0.00000  Uiso   1.00
H220   H     0.53208   0.62369   0.11989   0.00000  Uiso   1.00
H221   H     0.69342   0.37015   0.38100   0.00000  Uiso   1.00
O222   O     0.02984   0.68095   0.91007   0.00000  Uiso   1.00
O223   O     0.50932   0.58596   0.38937   0.00000  Uiso   1.00
O224   O     0.72100   0.25333   0.41996   0.00000  Uiso   1.00
N225   N     0.96940   0.60044   0.99219   0.00000  Uiso   1.00
N226   N     0.59847   0.53276   0.33377   0.00000  Uiso   1.00
N227   N     0.74929   0.29572   0.64298   0.00000  Uiso   1.00
N228   N     0.93142   0.66131   0.82578   0.00000  Uiso   1.00
N229   N     0.56049   0.59363   0.16735   0.00000  Uiso   1.00
N230   N     0.71132   0.35659   0.47657   0.00000  Uiso   1.00
C231   C     0.22424   0.52906   0.00425   0.00000  Uiso   1.00
C232   C     0.18015   0.47850   0.96024   0.00000  Uiso   1.00
C233   C     0.12193   0.46989   0.01595   0.00000  Uiso   1.00
C234   C     0.08878   0.42097   0.96155   0.00000  Uiso   1.00
C235   C     0.01664   0.34836   0.90944   0.00000  Uiso   1.00
C236   C     0.28238   0.49714   0.05440   0.00000  Uiso   1.00
C237   C     0.31011   0.50422   0.18926   0.00000  Uiso   1.00
C238   C     0.36302   0.47099   0.21410   0.00000  Uiso   1.00
C239   C     0.44962   0.42736   0.30813   0.00000  Uiso   1.00
C240   C     0.24080   0.56247   0.86401   0.00000  Uiso   1.00
C241   C     0.23359   0.62448   0.83881   0.00000  Uiso   1.00
C242   C     0.25151   0.64625   0.70336   0.00000  Uiso   1.00
C243   C     0.27355   0.70405   0.50179   0.00000  Uiso   1.00
C244   C     0.26890   0.45747   0.80855   0.00000  Uiso   1.00
C245   C     0.20441   0.43962   0.85395   0.00000  Uiso   1.00
C246   C     0.17134   0.39069   0.79943   0.00000  Uiso   1.00
C247   C     0.11308   0.38202   0.85505   0.00000  Uiso   1.00
C248   C     0.30664   0.45826   0.94811   0.00000  Uiso   1.00
C249   C     0.35952   0.42502   0.97274   0.00000  Uiso   1.00
C250   C     0.38733   0.43204   0.10761   0.00000  Uiso   1.00
C251   C     0.26506   0.52359   0.75771   0.00000  Uiso   1.00
C252   C     0.28300   0.54527   0.62229   0.00000  Uiso   1.00
C253   C     0.27582   0.60730   0.59688   0.00000  Uiso   1.00
H254   H     0.20536   0.55933   0.08701   0.00000  Uiso   1.00
H255   H     0.10317   0.49999   0.09823   0.00000  Uiso   1.00
H256   H     0.29133   0.53431   0.27149   0.00000  Uiso   1.00
H257   H     0.21482   0.65455   0.92109   0.00000  Uiso   1.00
H258   H     0.00059   0.41704   0.06382   0.00000  Uiso   1.00
H259   H     0.39734   0.48944   0.42915   0.00000  Uiso   1.00
H260   H     0.23600   0.74298   0.69026   0.00000  Uiso   1.00
H261   H     0.28779   0.42720   0.72579   0.00000  Uiso   1.00
H262   H     0.19013   0.36061   0.71718   0.00000  Uiso   1.00
H263   H     0.37828   0.39494   0.89046   0.00000  Uiso   1.00
H264   H     0.30177   0.51517   0.54005   0.00000  Uiso   1.00
H265   H     0.07117   0.30392   0.75455   0.00000  Uiso   1.00
H266   H     0.46792   0.37631   0.11989   0.00000  Uiso   1.00
H267   H     0.30658   0.62985   0.38100   0.00000  Uiso   1.00
O268   O     0.97016   0.31905   0.91007   0.00000  Uiso   1.00
O269   O     0.49068   0.41404   0.38937   0.00000  Uiso   1.00
O270   O     0.27900   0.74667   0.41996   0.00000  Uiso   1.00
N271   N     0.03060   0.39956   0.99219   0.00000  Uiso   1.00
N272   N     0.40153   0.46724   0.33377   0.00000  Uiso   1.00
N273   N     0.25071   0.70428   0.64298   0.00000  Uiso   1.00
N274   N     0.06858   0.33869   0.82578   0.00000  Uiso   1.00
N275   N     0.43951   0.40637   0.16735   0.00000  Uiso   1.00
N276   N     0.28868   0.64341   0.47657   0.00000  Uiso   1.00
C277   C     0.52906   0.77576   0.99575   0.00000  Uiso   1.00
C278   C     0.47850   0.81985   0.03976   0.00000  Uiso   1.00
C279   C     0.46989   0.87807   0.98405   0.00000  Uiso   1.00
C280   C     0.42097   0.91122   0.03845   0.00000  Uiso   1.00
C281   C     0.34836   0.98336   0.09056   0.00000  Uiso   1.00
C282   C     0.49714   0.71762   0.94560   0.00000  Uiso   1.00
C283   C     0.50422   0.68989   0.81074   0.00000  Uiso   1.00
C284   C     0.47099   0.63698   0.78590   0.00000  Uiso   1.00
C285   C     0.42736   0.55038   0.69187   0.00000  Uiso   1.00
C286   C     0.56247   0.75920   0.13599   0.00000  Uiso   1.00
C287   C     0.62448   0.76641   0.16119   0.00000  Uiso   1.00
C288   C     0.64625   0.74849   0.29664   0.00000  Uiso   1.00
C289   C     0.70405   0.72645   0.49821   0.00000  Uiso   1.00
C290   C     0.45747   0.73110   0.19145   0.00000  Uiso   1.00
C291   C     0.43962   0.79559   0.14605   0.00000  Uiso   1.00
C292   C     0.39069   0.82866   0.20057   0.00000  Uiso   1.00
C293   C     0.38202   0.88692   0.14495   0.00000  Uiso   1.00
C294   C     0.45826   0.69336   0.05189   0.00000  Uiso   1.00
C295   C     0.42502   0.64048   0.02726   0.00000  Uiso   1.00
C296   C     0.43204   0.61267   0.89239   0.00000  Uiso   1.00
C297   C     0.52359   0.73494   0.24229   0.00000  Uiso   1.00
C298   C     0.54527   0.71700   0.37771   0.00000  Uiso   1.00
C299   C     0.60730   0.72418   0.40312   0.00000  Uiso   1.00
H300   H     0.55933   0.79464   0.91299   0.00000  Uiso   1.00
H301   H     0.49999   0.89683   0.90177   0.00000  Uiso   1.00
H302   H     0.53431   0.70867   0.72851   0.00000  Uiso   1.00
H303   H     0.65455   0.78518   0.07891   0.00000  Uiso   1.00
H304   H     0.41704   0.99941   0.93618   0.00000  Uiso   1.00
H305   H     0.48944   0.60266   0.57085   0.00000  Uiso   1.00
H306   H     0.74298   0.76400   0.30974   0.00000  Uiso   1.00
H307   H     0.42720   0.71221   0.27421   0.00000  Uiso   1.00
H308   H     0.36061   0.80987   0.28282   0.00000  Uiso   1.00
H309   H     0.39494   0.62172   0.10954   0.00000  Uiso   1.00
H310   H     0.51517   0.69823   0.45995   0.00000  Uiso   1.00
H311   H     0.30392   0.92883   0.24545   0.00000  Uiso   1.00
H312   H     0.37631   0.53208   0.88011   0.00000  Uiso   1.00
H313   H     0.62985   0.69342   0.61900   0.00000  Uiso   1.00
O314   O     0.31905   0.02984   0.08993   0.00000  Uiso   1.00
O315   O     0.41404   0.50932   0.61063   0.00000  Uiso   1.00
O316   O     0.74667   0.72100   0.58004   0.00000  Uiso   1.00
N317   N     0.39956   0.96940   0.00781   0.00000  Uiso   1.00
N318   N     0.46724   0.59847   0.66623   0.00000  Uiso   1.00
N319   N     0.70428   0.74929   0.35702   0.00000  Uiso   1.00
N320   N     0.33869   0.93142   0.17422   0.00000  Uiso   1.00
N321   N     0.40637   0.56049   0.83265   0.00000  Uiso   1.00
N322   N     0.64341   0.71132   0.52343   0.00000  Uiso   1.00
C323   C     0.47094   0.22424   0.99575   0.00000  Uiso   1.00
C324   C     0.52150   0.18015   0.03976   0.00000  Uiso   1.00
C325   C     0.53011   0.12193   0.98405   0.00000  Uiso   1.00
C326   C     0.57903   0.08878   0.03845   0.00000  Uiso   1.00
C327   C     0.65164   0.01664   0.09056   0.00000  Uiso   1.00
C328   C     0.50286   0.28238   0.94560   0.00000  Uiso   1.00
C329   C     0.49578   0.31011   0.81074   0.00000  Uiso   1.00
C330   C     0.52901   0.36302   0.78590   0.00000  Uiso   1.00
C331   C     0.57264   0.44962   0.69187   0.00000  Uiso   1.00
C332   C     0.43753   0.24080   0.13599   0.00000  Uiso   1.00
C333   C     0.37552   0.23359   0.16119   0.00000  Uiso   1.00
C334   C     0.35375   0.25151   0.29664   0.00000  Uiso   1.00
C335   C     0.29595   0.27355   0.49821   0.00000  Uiso   1.00
C336   C     0.54253   0.26890   0.19145   0.00000  Uiso   1.00
C337   C     0.56038   0.20441   0.14605   0.00000  Uiso   1.00
C338   C     0.60931   0.17134   0.20057   0.00000  Uiso   1.00
C339   C     0.61798   0.11308   0.14495   0.00000  Uiso   1.00
C340   C     0.54174   0.30664   0.05189   0.00000  Uiso   1.00
C341   C     0.57498   0.35952   0.02726   0.00000  Uiso   1.00
C342   C     0.56796   0.38733   0.89239   0.00000  Uiso   1.00
C343   C     0.47641   0.26506   0.24229   0.00000  Uiso   1.00
C344   C     0.45473   0.28300   0.37771   0.00000  Uiso   1.00
C345   C     0.39270   0.27582   0.40312   0.00000  Uiso   1.00
H346   H     0.44067   0.20536   0.91299   0.00000  Uiso   1.00
H347   H     0.50001   0.10317   0.90177   0.00000  Uiso   1.00
H348   H     0.46569   0.29133   0.72851   0.00000  Uiso   1.00
H349   H     0.34545   0.21482   0.07891   0.00000  Uiso   1.00
H350   H     0.58296   0.00059   0.93618   0.00000  Uiso   1.00
H351   H     0.51056   0.39734   0.57085   0.00000  Uiso   1.00
H352   H     0.25702   0.23600   0.30974   0.00000  Uiso   1.00
H353   H     0.57280   0.28779   0.27421   0.00000  Uiso   1.00
H354   H     0.63939   0.19013   0.28282   0.00000  Uiso   1.00
H355   H     0.60506   0.37828   0.10954   0.00000  Uiso   1.00
H356   H     0.48483   0.30177   0.45995   0.00000  Uiso   1.00
H357   H     0.69608   0.07117   0.24545   0.00000  Uiso   1.00
H358   H     0.62369   0.46792   0.88011   0.00000  Uiso   1.00
H359   H     0.37015   0.30658   0.61900   0.00000  Uiso   1.00
O360   O     0.68095   0.97016   0.08993   0.00000  Uiso   1.00
O361   O     0.58596   0.49068   0.61063   0.00000  Uiso   1.00
O362   O     0.25333   0.27900   0.58004   0.00000  Uiso   1.00
N363   N     0.60044   0.03060   0.00781   0.00000  Uiso   1.00
N364   N     0.53276   0.40153   0.66623   0.00000  Uiso   1.00
N365   N     0.29572   0.25071   0.35702   0.00000  Uiso   1.00
N366   N     0.66131   0.06858   0.17422   0.00000  Uiso   1.00
N367   N     0.59363   0.43951   0.83265   0.00000  Uiso   1.00
N368   N     0.35659   0.28868   0.52343   0.00000  Uiso   1.00
