data_job_04022
_audit_creation_date              2018-12-19
_audit_creation_method            'Materials Studio'
_symmetry_space_group_name_H-M    'P1'
_symmetry_Int_Tables_number       1
_symmetry_cell_setting            triclinic
loop_
_symmetry_equiv_pos_as_xyz
  x,y,z
_cell_length_a                    20.0631
_cell_length_b                    16.1230
_cell_length_c                    26.0494
_cell_angle_alpha                 90.0000
_cell_angle_beta                  125.7469
_cell_angle_gamma                 90.0000
loop_
_atom_site_label
_atom_site_type_symbol
_atom_site_fract_x
_atom_site_fract_y
_atom_site_fract_z
_atom_site_U_iso_or_equiv
_atom_site_adp_type
_atom_site_occupancy
C1     C     0.91832   0.82162   0.80875   0.00000  Uiso   1.00
C2     C     0.89813   0.76199   0.84331   0.00000  Uiso   1.00
C3     C     0.94717   0.69684   0.88187   0.00000  Uiso   1.00
C4     C     0.91779   0.64944   0.90918   0.00000  Uiso   1.00
C5     C     0.89793   0.55421   0.96449   0.00000  Uiso   1.00
C6     C     0.84664   0.81613   0.73898   0.00000  Uiso   1.00
C7     C     0.85239   0.79651   0.68982   0.00000  Uiso   1.00
C8     C     0.77966   0.79470   0.62929   0.00000  Uiso   1.00
C9     C     0.67986   0.78358   0.52261   0.00000  Uiso   1.00
C10    C     0.91467   0.90846   0.83019   0.00000  Uiso   1.00
C11    C     0.97762   0.96647   0.85771   0.00000  Uiso   1.00
C12    C     0.96216   0.04240   0.87397   0.00000  Uiso   1.00
C13    C     0.96801   0.17462   0.90891   0.00000  Uiso   1.00
C14    C     0.77893   0.85332   0.78868   0.00000  Uiso   1.00
C15    C     0.82241   0.77921   0.83241   0.00000  Uiso   1.00
C16    C     0.79295   0.73190   0.85967   0.00000  Uiso   1.00
C17    C     0.84194   0.66669   0.89827   0.00000  Uiso   1.00
C18    C     0.77092   0.83335   0.72807   0.00000  Uiso   1.00
C19    C     0.69816   0.83158   0.66761   0.00000  Uiso   1.00
C20    C     0.70380   0.81195   0.61837   0.00000  Uiso   1.00
C21    C     0.83896   0.92567   0.81929   0.00000  Uiso   1.00
C22    C     0.82340   0.00153   0.83551   0.00000  Uiso   1.00
C23    C     0.88631   0.05965   0.86305   0.00000  Uiso   1.00
H24    H     0.97726   0.80822   0.81723   0.00000  Uiso   1.00
H25    H     0.00576   0.68353   0.89029   0.00000  Uiso   1.00
H26    H     0.91099   0.78320   0.69827   0.00000  Uiso   1.00
H27    H     0.03620   0.95313   0.86614   0.00000  Uiso   1.00
H28    H     0.00394   0.55286   0.96647   0.00000  Uiso   1.00
H29    H     0.80413   0.76304   0.56157   0.00000  Uiso   1.00
H30    H     0.06816   0.12137   0.91556   0.00000  Uiso   1.00
H31    H     0.71998   0.86672   0.78019   0.00000  Uiso   1.00
H32    H     0.73435   0.74524   0.85122   0.00000  Uiso   1.00
H33    H     0.63958   0.84490   0.65919   0.00000  Uiso   1.00
H34    H     0.76480   0.01483   0.82706   0.00000  Uiso   1.00
H35    H     0.78366   0.60294   0.93476   0.00000  Uiso   1.00
H36    H     0.58384   0.81313   0.52985   0.00000  Uiso   1.00
H37    H     0.84788   0.17145   0.88384   0.00000  Uiso   1.00
O38    O     0.90788   0.49692   0.99800   0.00000  Uiso   1.00
O39    O     0.64574   0.77268   0.46678   0.00000  Uiso   1.00
O40    O     0.99215   0.24280   0.93121   0.00000  Uiso   1.00
N41    N     0.95013   0.58133   0.94927   0.00000  Uiso   1.00
N42    N     0.76331   0.77783   0.57071   0.00000  Uiso   1.00
N43    N     0.01016   0.11284   0.90164   0.00000  Uiso   1.00
N44    N     0.83160   0.60828   0.93221   0.00000  Uiso   1.00
N45    N     0.64478   0.80477   0.55365   0.00000  Uiso   1.00
N46    N     0.89163   0.13979   0.88458   0.00000  Uiso   1.00
C47    C     0.41832   0.32162   0.80875   0.00000  Uiso   1.00
C48    C     0.39813   0.26199   0.84331   0.00000  Uiso   1.00
C49    C     0.44717   0.19684   0.88187   0.00000  Uiso   1.00
C50    C     0.41779   0.14944   0.90918   0.00000  Uiso   1.00
C51    C     0.39793   0.05421   0.96449   0.00000  Uiso   1.00
C52    C     0.34664   0.31613   0.73898   0.00000  Uiso   1.00
C53    C     0.35239   0.29651   0.68982   0.00000  Uiso   1.00
C54    C     0.27966   0.29470   0.62929   0.00000  Uiso   1.00
C55    C     0.17986   0.28358   0.52261   0.00000  Uiso   1.00
C56    C     0.41467   0.40846   0.83019   0.00000  Uiso   1.00
C57    C     0.47762   0.46647   0.85771   0.00000  Uiso   1.00
C58    C     0.46216   0.54240   0.87397   0.00000  Uiso   1.00
C59    C     0.46801   0.67462   0.90891   0.00000  Uiso   1.00
C60    C     0.27893   0.35332   0.78868   0.00000  Uiso   1.00
C61    C     0.32241   0.27921   0.83241   0.00000  Uiso   1.00
C62    C     0.29295   0.23190   0.85967   0.00000  Uiso   1.00
C63    C     0.34194   0.16669   0.89827   0.00000  Uiso   1.00
C64    C     0.27092   0.33335   0.72807   0.00000  Uiso   1.00
C65    C     0.19816   0.33158   0.66761   0.00000  Uiso   1.00
C66    C     0.20380   0.31195   0.61837   0.00000  Uiso   1.00
C67    C     0.33896   0.42567   0.81929   0.00000  Uiso   1.00
C68    C     0.32340   0.50153   0.83551   0.00000  Uiso   1.00
C69    C     0.38631   0.55965   0.86305   0.00000  Uiso   1.00
H70    H     0.47726   0.30822   0.81723   0.00000  Uiso   1.00
H71    H     0.50576   0.18353   0.89029   0.00000  Uiso   1.00
H72    H     0.41099   0.28320   0.69827   0.00000  Uiso   1.00
H73    H     0.53620   0.45313   0.86614   0.00000  Uiso   1.00
H74    H     0.50394   0.05286   0.96647   0.00000  Uiso   1.00
H75    H     0.30413   0.26304   0.56157   0.00000  Uiso   1.00
H76    H     0.56816   0.62137   0.91556   0.00000  Uiso   1.00
H77    H     0.21998   0.36672   0.78019   0.00000  Uiso   1.00
H78    H     0.23435   0.24524   0.85122   0.00000  Uiso   1.00
H79    H     0.13958   0.34490   0.65919   0.00000  Uiso   1.00
H80    H     0.26480   0.51483   0.82706   0.00000  Uiso   1.00
H81    H     0.28366   0.10294   0.93476   0.00000  Uiso   1.00
H82    H     0.08384   0.31313   0.52985   0.00000  Uiso   1.00
H83    H     0.34788   0.67145   0.88384   0.00000  Uiso   1.00
O84    O     0.40788   0.99692   0.99800   0.00000  Uiso   1.00
O85    O     0.14574   0.27268   0.46678   0.00000  Uiso   1.00
O86    O     0.49215   0.74280   0.93121   0.00000  Uiso   1.00
N87    N     0.45013   0.08133   0.94927   0.00000  Uiso   1.00
N88    N     0.26331   0.27783   0.57071   0.00000  Uiso   1.00
N89    N     0.51016   0.61284   0.90164   0.00000  Uiso   1.00
N90    N     0.33160   0.10828   0.93221   0.00000  Uiso   1.00
N91    N     0.14478   0.30477   0.55365   0.00000  Uiso   1.00
N92    N     0.39163   0.63979   0.88458   0.00000  Uiso   1.00
C93    C     0.08168   0.82162   0.69125   0.00000  Uiso   1.00
C94    C     0.10187   0.76199   0.65669   0.00000  Uiso   1.00
C95    C     0.05283   0.69684   0.61813   0.00000  Uiso   1.00
C96    C     0.08221   0.64944   0.59082   0.00000  Uiso   1.00
C97    C     0.10207   0.55421   0.53551   0.00000  Uiso   1.00
C98    C     0.15336   0.81613   0.76102   0.00000  Uiso   1.00
C99    C     0.14761   0.79651   0.81018   0.00000  Uiso   1.00
C100   C     0.22034   0.79470   0.87071   0.00000  Uiso   1.00
C101   C     0.32014   0.78358   0.97739   0.00000  Uiso   1.00
C102   C     0.08533   0.90846   0.66981   0.00000  Uiso   1.00
C103   C     0.02238   0.96647   0.64229   0.00000  Uiso   1.00
C104   C     0.03784   0.04240   0.62603   0.00000  Uiso   1.00
C105   C     0.03199   0.17462   0.59109   0.00000  Uiso   1.00
C106   C     0.22107   0.85332   0.71132   0.00000  Uiso   1.00
C107   C     0.17759   0.77921   0.66759   0.00000  Uiso   1.00
C108   C     0.20705   0.73190   0.64033   0.00000  Uiso   1.00
C109   C     0.15806   0.66669   0.60173   0.00000  Uiso   1.00
C110   C     0.22908   0.83335   0.77193   0.00000  Uiso   1.00
C111   C     0.30184   0.83158   0.83239   0.00000  Uiso   1.00
C112   C     0.29620   0.81195   0.88163   0.00000  Uiso   1.00
C113   C     0.16104   0.92567   0.68071   0.00000  Uiso   1.00
C114   C     0.17660   0.00153   0.66449   0.00000  Uiso   1.00
C115   C     0.11369   0.05965   0.63695   0.00000  Uiso   1.00
H116   H     0.02274   0.80822   0.68277   0.00000  Uiso   1.00
H117   H     0.99424   0.68353   0.60971   0.00000  Uiso   1.00
H118   H     0.08901   0.78320   0.80173   0.00000  Uiso   1.00
H119   H     0.96380   0.95313   0.63386   0.00000  Uiso   1.00
H120   H     0.99606   0.55286   0.53353   0.00000  Uiso   1.00
H121   H     0.19587   0.76304   0.93843   0.00000  Uiso   1.00
H122   H     0.93184   0.12137   0.58444   0.00000  Uiso   1.00
H123   H     0.28002   0.86672   0.71981   0.00000  Uiso   1.00
H124   H     0.26565   0.74524   0.64878   0.00000  Uiso   1.00
H125   H     0.36042   0.84490   0.84081   0.00000  Uiso   1.00
H126   H     0.23520   0.01483   0.67294   0.00000  Uiso   1.00
H127   H     0.21634   0.60294   0.56524   0.00000  Uiso   1.00
H128   H     0.41616   0.81313   0.97015   0.00000  Uiso   1.00
H129   H     0.15212   0.17145   0.61616   0.00000  Uiso   1.00
O130   O     0.09212   0.49692   0.50200   0.00000  Uiso   1.00
O131   O     0.35426   0.77268   0.03322   0.00000  Uiso   1.00
O132   O     0.00785   0.24280   0.56879   0.00000  Uiso   1.00
N133   N     0.04987   0.58133   0.55073   0.00000  Uiso   1.00
N134   N     0.23669   0.77783   0.92929   0.00000  Uiso   1.00
N135   N     0.98984   0.11284   0.59836   0.00000  Uiso   1.00
N136   N     0.16840   0.60828   0.56779   0.00000  Uiso   1.00
N137   N     0.35522   0.80477   0.94635   0.00000  Uiso   1.00
N138   N     0.10837   0.13979   0.61542   0.00000  Uiso   1.00
C139   C     0.58168   0.32162   0.69125   0.00000  Uiso   1.00
C140   C     0.60187   0.26199   0.65669   0.00000  Uiso   1.00
C141   C     0.55283   0.19684   0.61813   0.00000  Uiso   1.00
C142   C     0.58221   0.14944   0.59082   0.00000  Uiso   1.00
C143   C     0.60207   0.05421   0.53551   0.00000  Uiso   1.00
C144   C     0.65336   0.31613   0.76102   0.00000  Uiso   1.00
C145   C     0.64761   0.29651   0.81018   0.00000  Uiso   1.00
C146   C     0.72034   0.29470   0.87071   0.00000  Uiso   1.00
C147   C     0.82014   0.28358   0.97739   0.00000  Uiso   1.00
C148   C     0.58533   0.40846   0.66981   0.00000  Uiso   1.00
C149   C     0.52238   0.46647   0.64229   0.00000  Uiso   1.00
C150   C     0.53784   0.54240   0.62603   0.00000  Uiso   1.00
C151   C     0.53199   0.67462   0.59109   0.00000  Uiso   1.00
C152   C     0.72107   0.35332   0.71132   0.00000  Uiso   1.00
C153   C     0.67759   0.27921   0.66759   0.00000  Uiso   1.00
C154   C     0.70705   0.23190   0.64033   0.00000  Uiso   1.00
C155   C     0.65806   0.16669   0.60173   0.00000  Uiso   1.00
C156   C     0.72908   0.33335   0.77193   0.00000  Uiso   1.00
C157   C     0.80184   0.33158   0.83239   0.00000  Uiso   1.00
C158   C     0.79620   0.31195   0.88163   0.00000  Uiso   1.00
C159   C     0.66104   0.42567   0.68071   0.00000  Uiso   1.00
C160   C     0.67660   0.50153   0.66449   0.00000  Uiso   1.00
C161   C     0.61369   0.55965   0.63695   0.00000  Uiso   1.00
H162   H     0.52274   0.30822   0.68277   0.00000  Uiso   1.00
H163   H     0.49424   0.18353   0.60971   0.00000  Uiso   1.00
H164   H     0.58901   0.28320   0.80173   0.00000  Uiso   1.00
H165   H     0.46380   0.45313   0.63386   0.00000  Uiso   1.00
H166   H     0.49606   0.05286   0.53353   0.00000  Uiso   1.00
H167   H     0.69587   0.26304   0.93843   0.00000  Uiso   1.00
H168   H     0.43184   0.62137   0.58444   0.00000  Uiso   1.00
H169   H     0.78002   0.36672   0.71981   0.00000  Uiso   1.00
H170   H     0.76565   0.24524   0.64878   0.00000  Uiso   1.00
H171   H     0.86042   0.34490   0.84081   0.00000  Uiso   1.00
H172   H     0.73520   0.51483   0.67294   0.00000  Uiso   1.00
H173   H     0.71634   0.10294   0.56524   0.00000  Uiso   1.00
H174   H     0.91616   0.31313   0.97015   0.00000  Uiso   1.00
H175   H     0.65212   0.67145   0.61616   0.00000  Uiso   1.00
O176   O     0.59212   0.99692   0.50200   0.00000  Uiso   1.00
O177   O     0.85426   0.27268   0.03322   0.00000  Uiso   1.00
O178   O     0.50785   0.74280   0.56879   0.00000  Uiso   1.00
N179   N     0.54987   0.08133   0.55073   0.00000  Uiso   1.00
N180   N     0.73669   0.27783   0.92929   0.00000  Uiso   1.00
N181   N     0.48984   0.61284   0.59836   0.00000  Uiso   1.00
N182   N     0.66840   0.10828   0.56779   0.00000  Uiso   1.00
N183   N     0.85522   0.30477   0.94635   0.00000  Uiso   1.00
N184   N     0.60837   0.63979   0.61542   0.00000  Uiso   1.00
C185   C     0.08168   0.17838   0.19125   0.00000  Uiso   1.00
C186   C     0.10187   0.23801   0.15669   0.00000  Uiso   1.00
C187   C     0.05283   0.30316   0.11813   0.00000  Uiso   1.00
C188   C     0.08221   0.35056   0.09082   0.00000  Uiso   1.00
C189   C     0.10207   0.44579   0.03551   0.00000  Uiso   1.00
C190   C     0.15336   0.18387   0.26102   0.00000  Uiso   1.00
C191   C     0.14761   0.20349   0.31018   0.00000  Uiso   1.00
C192   C     0.22034   0.20530   0.37071   0.00000  Uiso   1.00
C193   C     0.32014   0.21642   0.47739   0.00000  Uiso   1.00
C194   C     0.08533   0.09154   0.16981   0.00000  Uiso   1.00
C195   C     0.02238   0.03353   0.14229   0.00000  Uiso   1.00
C196   C     0.03784   0.95760   0.12603   0.00000  Uiso   1.00
C197   C     0.03199   0.82538   0.09109   0.00000  Uiso   1.00
C198   C     0.22107   0.14668   0.21132   0.00000  Uiso   1.00
C199   C     0.17759   0.22079   0.16759   0.00000  Uiso   1.00
C200   C     0.20705   0.26810   0.14033   0.00000  Uiso   1.00
C201   C     0.15806   0.33331   0.10173   0.00000  Uiso   1.00
C202   C     0.22908   0.16665   0.27193   0.00000  Uiso   1.00
C203   C     0.30184   0.16842   0.33239   0.00000  Uiso   1.00
C204   C     0.29620   0.18805   0.38163   0.00000  Uiso   1.00
C205   C     0.16104   0.07433   0.18071   0.00000  Uiso   1.00
C206   C     0.17660   0.99847   0.16449   0.00000  Uiso   1.00
C207   C     0.11369   0.94035   0.13695   0.00000  Uiso   1.00
H208   H     0.02274   0.19178   0.18277   0.00000  Uiso   1.00
H209   H     0.99424   0.31647   0.10971   0.00000  Uiso   1.00
H210   H     0.08901   0.21680   0.30173   0.00000  Uiso   1.00
H211   H     0.96380   0.04687   0.13386   0.00000  Uiso   1.00
H212   H     0.99606   0.44714   0.03353   0.00000  Uiso   1.00
H213   H     0.19587   0.23696   0.43843   0.00000  Uiso   1.00
H214   H     0.93184   0.87863   0.08444   0.00000  Uiso   1.00
H215   H     0.28002   0.13328   0.21981   0.00000  Uiso   1.00
H216   H     0.26565   0.25476   0.14878   0.00000  Uiso   1.00
H217   H     0.36042   0.15510   0.34081   0.00000  Uiso   1.00
H218   H     0.23520   0.98517   0.17294   0.00000  Uiso   1.00
H219   H     0.21634   0.39706   0.06524   0.00000  Uiso   1.00
H220   H     0.41616   0.18687   0.47015   0.00000  Uiso   1.00
H221   H     0.15212   0.82855   0.11616   0.00000  Uiso   1.00
O222   O     0.09212   0.50308   0.00200   0.00000  Uiso   1.00
O223   O     0.35426   0.22732   0.53322   0.00000  Uiso   1.00
O224   O     0.00785   0.75720   0.06879   0.00000  Uiso   1.00
N225   N     0.04987   0.41867   0.05073   0.00000  Uiso   1.00
N226   N     0.23669   0.22217   0.42929   0.00000  Uiso   1.00
N227   N     0.98984   0.88716   0.09836   0.00000  Uiso   1.00
N228   N     0.16840   0.39172   0.06779   0.00000  Uiso   1.00
N229   N     0.35522   0.19523   0.44635   0.00000  Uiso   1.00
N230   N     0.10837   0.86021   0.11542   0.00000  Uiso   1.00
C231   C     0.58168   0.67838   0.19125   0.00000  Uiso   1.00
C232   C     0.60187   0.73801   0.15669   0.00000  Uiso   1.00
C233   C     0.55283   0.80316   0.11813   0.00000  Uiso   1.00
C234   C     0.58221   0.85056   0.09082   0.00000  Uiso   1.00
C235   C     0.60207   0.94579   0.03551   0.00000  Uiso   1.00
C236   C     0.65336   0.68387   0.26102   0.00000  Uiso   1.00
C237   C     0.64761   0.70349   0.31018   0.00000  Uiso   1.00
C238   C     0.72034   0.70530   0.37071   0.00000  Uiso   1.00
C239   C     0.82014   0.71642   0.47739   0.00000  Uiso   1.00
C240   C     0.58533   0.59154   0.16981   0.00000  Uiso   1.00
C241   C     0.52238   0.53353   0.14229   0.00000  Uiso   1.00
C242   C     0.53784   0.45760   0.12603   0.00000  Uiso   1.00
C243   C     0.53199   0.32538   0.09109   0.00000  Uiso   1.00
C244   C     0.72107   0.64668   0.21132   0.00000  Uiso   1.00
C245   C     0.67759   0.72079   0.16759   0.00000  Uiso   1.00
C246   C     0.70705   0.76810   0.14033   0.00000  Uiso   1.00
C247   C     0.65806   0.83331   0.10173   0.00000  Uiso   1.00
C248   C     0.72908   0.66665   0.27193   0.00000  Uiso   1.00
C249   C     0.80184   0.66842   0.33239   0.00000  Uiso   1.00
C250   C     0.79620   0.68805   0.38163   0.00000  Uiso   1.00
C251   C     0.66104   0.57433   0.18071   0.00000  Uiso   1.00
C252   C     0.67660   0.49847   0.16449   0.00000  Uiso   1.00
C253   C     0.61369   0.44035   0.13695   0.00000  Uiso   1.00
H254   H     0.52274   0.69178   0.18277   0.00000  Uiso   1.00
H255   H     0.49424   0.81647   0.10971   0.00000  Uiso   1.00
H256   H     0.58901   0.71680   0.30173   0.00000  Uiso   1.00
H257   H     0.46380   0.54687   0.13386   0.00000  Uiso   1.00
H258   H     0.49606   0.94714   0.03353   0.00000  Uiso   1.00
H259   H     0.69587   0.73696   0.43843   0.00000  Uiso   1.00
H260   H     0.43184   0.37863   0.08444   0.00000  Uiso   1.00
H261   H     0.78002   0.63328   0.21981   0.00000  Uiso   1.00
H262   H     0.76565   0.75476   0.14878   0.00000  Uiso   1.00
H263   H     0.86042   0.65510   0.34081   0.00000  Uiso   1.00
H264   H     0.73520   0.48517   0.17294   0.00000  Uiso   1.00
H265   H     0.71634   0.89706   0.06524   0.00000  Uiso   1.00
H266   H     0.91616   0.68687   0.47015   0.00000  Uiso   1.00
H267   H     0.65212   0.32855   0.11616   0.00000  Uiso   1.00
O268   O     0.59212   0.00308   0.00200   0.00000  Uiso   1.00
O269   O     0.85426   0.72732   0.53322   0.00000  Uiso   1.00
O270   O     0.50785   0.25720   0.06879   0.00000  Uiso   1.00
N271   N     0.54987   0.91867   0.05073   0.00000  Uiso   1.00
N272   N     0.73669   0.72217   0.42929   0.00000  Uiso   1.00
N273   N     0.48984   0.38716   0.09836   0.00000  Uiso   1.00
N274   N     0.66840   0.89172   0.06779   0.00000  Uiso   1.00
N275   N     0.85522   0.69523   0.44635   0.00000  Uiso   1.00
N276   N     0.60837   0.36021   0.11542   0.00000  Uiso   1.00
C277   C     0.91832   0.17838   0.30875   0.00000  Uiso   1.00
C278   C     0.89813   0.23801   0.34331   0.00000  Uiso   1.00
C279   C     0.94717   0.30316   0.38187   0.00000  Uiso   1.00
C280   C     0.91779   0.35056   0.40918   0.00000  Uiso   1.00
C281   C     0.89793   0.44579   0.46449   0.00000  Uiso   1.00
C282   C     0.84664   0.18387   0.23898   0.00000  Uiso   1.00
C283   C     0.85239   0.20349   0.18982   0.00000  Uiso   1.00
C284   C     0.77966   0.20530   0.12929   0.00000  Uiso   1.00
C285   C     0.67986   0.21642   0.02261   0.00000  Uiso   1.00
C286   C     0.91467   0.09154   0.33019   0.00000  Uiso   1.00
C287   C     0.97762   0.03353   0.35771   0.00000  Uiso   1.00
C288   C     0.96216   0.95760   0.37397   0.00000  Uiso   1.00
C289   C     0.96801   0.82538   0.40891   0.00000  Uiso   1.00
C290   C     0.77893   0.14668   0.28868   0.00000  Uiso   1.00
C291   C     0.82241   0.22079   0.33241   0.00000  Uiso   1.00
C292   C     0.79295   0.26810   0.35967   0.00000  Uiso   1.00
C293   C     0.84194   0.33331   0.39827   0.00000  Uiso   1.00
C294   C     0.77092   0.16665   0.22807   0.00000  Uiso   1.00
C295   C     0.69816   0.16842   0.16761   0.00000  Uiso   1.00
C296   C     0.70380   0.18805   0.11837   0.00000  Uiso   1.00
C297   C     0.83896   0.07433   0.31929   0.00000  Uiso   1.00
C298   C     0.82340   0.99847   0.33551   0.00000  Uiso   1.00
C299   C     0.88631   0.94035   0.36305   0.00000  Uiso   1.00
H300   H     0.97726   0.19178   0.31723   0.00000  Uiso   1.00
H301   H     0.00576   0.31647   0.39029   0.00000  Uiso   1.00
H302   H     0.91099   0.21680   0.19827   0.00000  Uiso   1.00
H303   H     0.03620   0.04687   0.36614   0.00000  Uiso   1.00
H304   H     0.00394   0.44714   0.46647   0.00000  Uiso   1.00
H305   H     0.80413   0.23696   0.06157   0.00000  Uiso   1.00
H306   H     0.06816   0.87863   0.41556   0.00000  Uiso   1.00
H307   H     0.71998   0.13328   0.28019   0.00000  Uiso   1.00
H308   H     0.73435   0.25476   0.35122   0.00000  Uiso   1.00
H309   H     0.63958   0.15510   0.15919   0.00000  Uiso   1.00
H310   H     0.76480   0.98517   0.32706   0.00000  Uiso   1.00
H311   H     0.78366   0.39706   0.43476   0.00000  Uiso   1.00
H312   H     0.58384   0.18687   0.02985   0.00000  Uiso   1.00
H313   H     0.84788   0.82855   0.38384   0.00000  Uiso   1.00
O314   O     0.90788   0.50308   0.49800   0.00000  Uiso   1.00
O315   O     0.64574   0.22732   0.96678   0.00000  Uiso   1.00
O316   O     0.99215   0.75720   0.43121   0.00000  Uiso   1.00
N317   N     0.95013   0.41867   0.44927   0.00000  Uiso   1.00
N318   N     0.76331   0.22217   0.07071   0.00000  Uiso   1.00
N319   N     0.01016   0.88716   0.40164   0.00000  Uiso   1.00
N320   N     0.83160   0.39172   0.43221   0.00000  Uiso   1.00
N321   N     0.64478   0.19523   0.05365   0.00000  Uiso   1.00
N322   N     0.89163   0.86021   0.38458   0.00000  Uiso   1.00
C323   C     0.41832   0.67838   0.30875   0.00000  Uiso   1.00
C324   C     0.39813   0.73801   0.34331   0.00000  Uiso   1.00
C325   C     0.44717   0.80316   0.38187   0.00000  Uiso   1.00
C326   C     0.41779   0.85056   0.40918   0.00000  Uiso   1.00
C327   C     0.39793   0.94579   0.46449   0.00000  Uiso   1.00
C328   C     0.34664   0.68387   0.23898   0.00000  Uiso   1.00
C329   C     0.35239   0.70349   0.18982   0.00000  Uiso   1.00
C330   C     0.27966   0.70530   0.12929   0.00000  Uiso   1.00
C331   C     0.17986   0.71642   0.02261   0.00000  Uiso   1.00
C332   C     0.41467   0.59154   0.33019   0.00000  Uiso   1.00
C333   C     0.47762   0.53353   0.35771   0.00000  Uiso   1.00
C334   C     0.46216   0.45760   0.37397   0.00000  Uiso   1.00
C335   C     0.46801   0.32538   0.40891   0.00000  Uiso   1.00
C336   C     0.27893   0.64668   0.28868   0.00000  Uiso   1.00
C337   C     0.32241   0.72079   0.33241   0.00000  Uiso   1.00
C338   C     0.29295   0.76810   0.35967   0.00000  Uiso   1.00
C339   C     0.34194   0.83331   0.39827   0.00000  Uiso   1.00
C340   C     0.27092   0.66665   0.22807   0.00000  Uiso   1.00
C341   C     0.19816   0.66842   0.16761   0.00000  Uiso   1.00
C342   C     0.20380   0.68805   0.11837   0.00000  Uiso   1.00
C343   C     0.33896   0.57433   0.31929   0.00000  Uiso   1.00
C344   C     0.32340   0.49847   0.33551   0.00000  Uiso   1.00
C345   C     0.38631   0.44035   0.36305   0.00000  Uiso   1.00
H346   H     0.47726   0.69178   0.31723   0.00000  Uiso   1.00
H347   H     0.50576   0.81647   0.39029   0.00000  Uiso   1.00
H348   H     0.41099   0.71680   0.19827   0.00000  Uiso   1.00
H349   H     0.53620   0.54687   0.36614   0.00000  Uiso   1.00
H350   H     0.50394   0.94714   0.46647   0.00000  Uiso   1.00
H351   H     0.30413   0.73696   0.06157   0.00000  Uiso   1.00
H352   H     0.56816   0.37863   0.41556   0.00000  Uiso   1.00
H353   H     0.21998   0.63328   0.28019   0.00000  Uiso   1.00
H354   H     0.23435   0.75476   0.35122   0.00000  Uiso   1.00
H355   H     0.13958   0.65510   0.15919   0.00000  Uiso   1.00
H356   H     0.26480   0.48517   0.32706   0.00000  Uiso   1.00
H357   H     0.28366   0.89706   0.43476   0.00000  Uiso   1.00
H358   H     0.08384   0.68687   0.02985   0.00000  Uiso   1.00
H359   H     0.34788   0.32855   0.38384   0.00000  Uiso   1.00
O360   O     0.40788   0.00308   0.49800   0.00000  Uiso   1.00
O361   O     0.14574   0.72732   0.96678   0.00000  Uiso   1.00
O362   O     0.49215   0.25720   0.43121   0.00000  Uiso   1.00
N363   N     0.45013   0.91867   0.44927   0.00000  Uiso   1.00
N364   N     0.26331   0.72217   0.07071   0.00000  Uiso   1.00
N365   N     0.51016   0.38716   0.40164   0.00000  Uiso   1.00
N366   N     0.33160   0.89172   0.43221   0.00000  Uiso   1.00
N367   N     0.14478   0.69523   0.05365   0.00000  Uiso   1.00
N368   N     0.39163   0.36021   0.38458   0.00000  Uiso   1.00
