data_job_03094
_audit_creation_date              2018-12-19
_audit_creation_method            'Materials Studio'
_symmetry_space_group_name_H-M    'P1'
_symmetry_Int_Tables_number       1
_symmetry_cell_setting            triclinic
loop_
_symmetry_equiv_pos_as_xyz
  x,y,z
_cell_length_a                    12.5021
_cell_length_b                    12.5021
_cell_length_c                    18.4337
_cell_angle_alpha                 90.0000
_cell_angle_beta                  90.0000
_cell_angle_gamma                 120.0000
loop_
_atom_site_label
_atom_site_type_symbol
_atom_site_fract_x
_atom_site_fract_y
_atom_site_fract_z
_atom_site_U_iso_or_equiv
_atom_site_adp_type
_atom_site_occupancy
C1     C     0.69881   0.56565   0.73995   0.00000  Uiso   1.00
C2     C     0.76521   0.65440   0.80243   0.00000  Uiso   1.00
C3     C     0.82080   0.78211   0.79940   0.00000  Uiso   1.00
C4     C     0.87677   0.84687   0.86241   0.00000  Uiso   1.00
C5     C     0.97988   0.99394   0.94972   0.00000  Uiso   1.00
C6     C     0.76256   0.48967   0.73043   0.00000  Uiso   1.00
C7     C     0.81592   0.47888   0.66687   0.00000  Uiso   1.00
C8     C     0.86964   0.40496   0.66927   0.00000  Uiso   1.00
C9     C     0.96856   0.29622   0.64479   0.00000  Uiso   1.00
C10    C     0.56903   0.47606   0.76737   0.00000  Uiso   1.00
C11    C     0.45965   0.45379   0.73485   0.00000  Uiso   1.00
C12    C     0.35043   0.36839   0.76834   0.00000  Uiso   1.00
C13    C     0.14886   0.23851   0.80121   0.00000  Uiso   1.00
C14    C     0.69933   0.45355   0.85724   0.00000  Uiso   1.00
C15    C     0.76549   0.59350   0.86613   0.00000  Uiso   1.00
C16    C     0.82138   0.65809   0.92916   0.00000  Uiso   1.00
C17    C     0.87705   0.78588   0.92623   0.00000  Uiso   1.00
C18    C     0.76285   0.42879   0.79414   0.00000  Uiso   1.00
C19    C     0.81650   0.35486   0.79663   0.00000  Uiso   1.00
C20    C     0.86992   0.34396   0.73309   0.00000  Uiso   1.00
C21    C     0.56931   0.41517   0.83108   0.00000  Uiso   1.00
C22    C     0.46024   0.32978   0.86462   0.00000  Uiso   1.00
C23    C     0.35071   0.30739   0.83216   0.00000  Uiso   1.00
H24    H     0.69859   0.61305   0.69035   0.00000  Uiso   1.00
H25    H     0.82057   0.82920   0.75009   0.00000  Uiso   1.00
H26    H     0.81567   0.52600   0.61758   0.00000  Uiso   1.00
H27    H     0.45947   0.50093   0.68556   0.00000  Uiso   1.00
H28    H     0.95598   0.04199   0.84440   0.00000  Uiso   1.00
H29    H     0.94561   0.40265   0.56498   0.00000  Uiso   1.00
H30    H     0.19448   0.34977   0.70833   0.00000  Uiso   1.00
H31    H     0.69956   0.40614   0.90684   0.00000  Uiso   1.00
H32    H     0.82159   0.61095   0.97845   0.00000  Uiso   1.00
H33    H     0.81669   0.30775   0.84594   0.00000  Uiso   1.00
H34    H     0.46049   0.28267   0.91392   0.00000  Uiso   1.00
H35    H     0.95681   0.86485   0.02975   0.00000  Uiso   1.00
H36    H     0.94643   0.22551   0.75033   0.00000  Uiso   1.00
H37    H     0.19531   0.17263   0.89368   0.00000  Uiso   1.00
O38    O     0.03669   0.09188   0.98027   0.00000  Uiso   1.00
O39    O     0.02306   0.25308   0.61368   0.00000  Uiso   1.00
O40    O     0.03760   0.18370   0.80175   0.00000  Uiso   1.00
N41    N     0.93940   0.97219   0.87820   0.00000  Uiso   1.00
N42    N     0.92973   0.37447   0.61696   0.00000  Uiso   1.00
N43    N     0.22748   0.32500   0.75097   0.00000  Uiso   1.00
N44    N     0.93985   0.87688   0.97793   0.00000  Uiso   1.00
N45    N     0.93017   0.27915   0.71670   0.00000  Uiso   1.00
N46    N     0.22793   0.22968   0.85070   0.00000  Uiso   1.00
C47    C     0.43435   0.13316   0.40662   0.00000  Uiso   1.00
C48    C     0.34560   0.11081   0.46910   0.00000  Uiso   1.00
C49    C     0.21789   0.03869   0.46607   0.00000  Uiso   1.00
C50    C     0.15313   0.02989   0.52908   0.00000  Uiso   1.00
C51    C     0.00606   0.98594   0.61638   0.00000  Uiso   1.00
C52    C     0.51033   0.27289   0.39710   0.00000  Uiso   1.00
C53    C     0.52112   0.33704   0.33353   0.00000  Uiso   1.00
C54    C     0.59504   0.46468   0.33594   0.00000  Uiso   1.00
C55    C     0.70378   0.67234   0.31145   0.00000  Uiso   1.00
C56    C     0.52394   0.09297   0.43404   0.00000  Uiso   1.00
C57    C     0.54621   0.00586   0.40152   0.00000  Uiso   1.00
C58    C     0.63161   0.98204   0.43501   0.00000  Uiso   1.00
C59    C     0.76149   0.91035   0.46788   0.00000  Uiso   1.00
C60    C     0.54645   0.24578   0.52391   0.00000  Uiso   1.00
C61    C     0.40650   0.17199   0.53280   0.00000  Uiso   1.00
C62    C     0.34191   0.16329   0.59583   0.00000  Uiso   1.00
C63    C     0.21412   0.09117   0.59290   0.00000  Uiso   1.00
C64    C     0.57121   0.33406   0.46080   0.00000  Uiso   1.00
C65    C     0.64514   0.46164   0.46330   0.00000  Uiso   1.00
C66    C     0.65604   0.52596   0.39975   0.00000  Uiso   1.00
C67    C     0.58483   0.15414   0.49774   0.00000  Uiso   1.00
C68    C     0.67022   0.13046   0.53129   0.00000  Uiso   1.00
C69    C     0.69261   0.04333   0.49883   0.00000  Uiso   1.00
H70    H     0.38695   0.08554   0.35702   0.00000  Uiso   1.00
H71    H     0.17080   0.99138   0.41675   0.00000  Uiso   1.00
H72    H     0.47400   0.28967   0.28424   0.00000  Uiso   1.00
H73    H     0.49907   0.95854   0.35222   0.00000  Uiso   1.00
H74    H     0.95801   0.91398   0.51107   0.00000  Uiso   1.00
H75    H     0.59735   0.54295   0.23165   0.00000  Uiso   1.00
H76    H     0.65023   0.84471   0.37499   0.00000  Uiso   1.00
H77    H     0.59386   0.29341   0.57350   0.00000  Uiso   1.00
H78    H     0.38905   0.21064   0.64512   0.00000  Uiso   1.00
H79    H     0.69225   0.50894   0.51260   0.00000  Uiso   1.00
H80    H     0.71733   0.17782   0.58058   0.00000  Uiso   1.00
H81    H     0.13515   0.09196   0.69642   0.00000  Uiso   1.00
H82    H     0.77449   0.72093   0.41700   0.00000  Uiso   1.00
H83    H     0.82737   0.02268   0.56034   0.00000  Uiso   1.00
O84    O     0.90812   0.94481   0.64694   0.00000  Uiso   1.00
O85    O     0.74692   0.76998   0.28035   0.00000  Uiso   1.00
O86    O     0.81630   0.85390   0.46842   0.00000  Uiso   1.00
N87    N     0.02781   0.96721   0.54487   0.00000  Uiso   1.00
N88    N     0.62553   0.55526   0.28363   0.00000  Uiso   1.00
N89    N     0.67500   0.90248   0.41763   0.00000  Uiso   1.00
N90    N     0.12312   0.06297   0.64460   0.00000  Uiso   1.00
N91    N     0.72085   0.65102   0.38336   0.00000  Uiso   1.00
N92    N     0.77032   0.99825   0.51737   0.00000  Uiso   1.00
C93    C     0.86684   0.30119   0.07329   0.00000  Uiso   1.00
C94    C     0.88919   0.23479   0.13576   0.00000  Uiso   1.00
C95    C     0.96131   0.17920   0.13273   0.00000  Uiso   1.00
C96    C     0.97011   0.12323   0.19574   0.00000  Uiso   1.00
C97    C     0.01406   0.02012   0.28305   0.00000  Uiso   1.00
C98    C     0.72711   0.23744   0.06377   0.00000  Uiso   1.00
C99    C     0.66296   0.18408   0.00020   0.00000  Uiso   1.00
C100   C     0.53532   0.13036   0.00260   0.00000  Uiso   1.00
C101   C     0.32766   0.03144   0.97812   0.00000  Uiso   1.00
C102   C     0.90703   0.43097   0.10070   0.00000  Uiso   1.00
C103   C     0.99414   0.54035   0.06819   0.00000  Uiso   1.00
C104   C     0.01796   0.64957   0.10168   0.00000  Uiso   1.00
C105   C     0.08965   0.85114   0.13455   0.00000  Uiso   1.00
C106   C     0.75422   0.30067   0.19057   0.00000  Uiso   1.00
C107   C     0.82801   0.23451   0.19947   0.00000  Uiso   1.00
C108   C     0.83671   0.17862   0.26250   0.00000  Uiso   1.00
C109   C     0.90883   0.12295   0.25956   0.00000  Uiso   1.00
C110   C     0.66594   0.23715   0.12747   0.00000  Uiso   1.00
C111   C     0.53836   0.18350   0.12996   0.00000  Uiso   1.00
C112   C     0.47404   0.13008   0.06642   0.00000  Uiso   1.00
C113   C     0.84586   0.43069   0.16441   0.00000  Uiso   1.00
C114   C     0.86954   0.53976   0.19795   0.00000  Uiso   1.00
C115   C     0.95667   0.64929   0.16550   0.00000  Uiso   1.00
H116   H     0.91446   0.30141   0.02369   0.00000  Uiso   1.00
H117   H     0.00862   0.17943   0.08342   0.00000  Uiso   1.00
H118   H     0.71033   0.18433   0.95091   0.00000  Uiso   1.00
H119   H     0.04146   0.54053   0.01889   0.00000  Uiso   1.00
H120   H     0.08602   0.04402   0.17773   0.00000  Uiso   1.00
H121   H     0.45705   0.05439   0.89832   0.00000  Uiso   1.00
H122   H     0.15529   0.80552   0.04166   0.00000  Uiso   1.00
H123   H     0.70659   0.30044   0.24017   0.00000  Uiso   1.00
H124   H     0.78936   0.17841   0.31179   0.00000  Uiso   1.00
H125   H     0.49106   0.18331   0.17927   0.00000  Uiso   1.00
H126   H     0.82218   0.53951   0.24725   0.00000  Uiso   1.00
H127   H     0.90804   0.04319   0.36308   0.00000  Uiso   1.00
H128   H     0.27907   0.05357   0.08366   0.00000  Uiso   1.00
H129   H     0.97732   0.80469   0.22701   0.00000  Uiso   1.00
O130   O     0.05519   0.96331   0.31361   0.00000  Uiso   1.00
O131   O     0.23002   0.97694   0.94702   0.00000  Uiso   1.00
O132   O     0.14610   0.96240   0.13508   0.00000  Uiso   1.00
N133   N     0.03279   0.06060   0.21153   0.00000  Uiso   1.00
N134   N     0.44474   0.07027   0.95030   0.00000  Uiso   1.00
N135   N     0.09752   0.77252   0.08430   0.00000  Uiso   1.00
N136   N     0.93703   0.06015   0.31127   0.00000  Uiso   1.00
N137   N     0.34898   0.06983   0.05003   0.00000  Uiso   1.00
N138   N     0.00175   0.77207   0.18403   0.00000  Uiso   1.00
