data_job_03095
_audit_creation_date              2018-12-19
_audit_creation_method            'Materials Studio'
_symmetry_space_group_name_H-M    'P1'
_symmetry_Int_Tables_number       1
_symmetry_cell_setting            triclinic
loop_
_symmetry_equiv_pos_as_xyz
  x,y,z
_cell_length_a                    18.8715
_cell_length_b                    18.8715
_cell_length_c                    12.7944
_cell_angle_alpha                 90.0000
_cell_angle_beta                  90.0000
_cell_angle_gamma                 120.0000
loop_
_atom_site_label
_atom_site_type_symbol
_atom_site_fract_x
_atom_site_fract_y
_atom_site_fract_z
_atom_site_U_iso_or_equiv
_atom_site_adp_type
_atom_site_occupancy
C1     C     0.45840   0.28331   0.71315   0.00000  Uiso   1.00
C2     C     0.42314   0.33812   0.68560   0.00000  Uiso   1.00
C3     C     0.46799   0.41959   0.65567   0.00000  Uiso   1.00
C4     C     0.42433   0.45911   0.63376   0.00000  Uiso   1.00
C5     C     0.38257   0.55039   0.58985   0.00000  Uiso   1.00
C6     C     0.42782   0.25115   0.82297   0.00000  Uiso   1.00
C7     C     0.47662   0.25951   0.90854   0.00000  Uiso   1.00
C8     C     0.43690   0.22580   0.00227   0.00000  Uiso   1.00
C9     C     0.40242   0.18203   0.17161   0.00000  Uiso   1.00
C10    C     0.41646   0.20945   0.64070   0.00000  Uiso   1.00
C11    C     0.45570   0.18272   0.57303   0.00000  Uiso   1.00
C12    C     0.40641   0.11388   0.51332   0.00000  Uiso   1.00
C13    C     0.35428   0.00536   0.39966   0.00000  Uiso   1.00
C14    C     0.30111   0.20859   0.72747   0.00000  Uiso   1.00
C15    C     0.33770   0.29753   0.69338   0.00000  Uiso   1.00
C16    C     0.29396   0.33692   0.67151   0.00000  Uiso   1.00
C17    C     0.33874   0.41845   0.64154   0.00000  Uiso   1.00
C18    C     0.34239   0.21057   0.83075   0.00000  Uiso   1.00
C19    C     0.30259   0.17684   0.92438   0.00000  Uiso   1.00
C20    C     0.35131   0.18514   0.01006   0.00000  Uiso   1.00
C21    C     0.33102   0.16886   0.64848   0.00000  Uiso   1.00
C22    C     0.28167   0.10005   0.58887   0.00000  Uiso   1.00
C23    C     0.32082   0.07323   0.52111   0.00000  Uiso   1.00
H24    H     0.52492   0.31490   0.70710   0.00000  Uiso   1.00
H25    H     0.53411   0.45098   0.64967   0.00000  Uiso   1.00
H26    H     0.54273   0.29091   0.90249   0.00000  Uiso   1.00
H27    H     0.52181   0.21414   0.56703   0.00000  Uiso   1.00
H28    H     0.50662   0.58396   0.58945   0.00000  Uiso   1.00
H29    H     0.52481   0.24642   0.12254   0.00000  Uiso   1.00
H30    H     0.48070   0.08453   0.41516   0.00000  Uiso   1.00
H31    H     0.23459   0.17699   0.73353   0.00000  Uiso   1.00
H32    H     0.22784   0.30550   0.67753   0.00000  Uiso   1.00
H33    H     0.23647   0.14543   0.93036   0.00000  Uiso   1.00
H34    H     0.21555   0.06866   0.59490   0.00000  Uiso   1.00
H35    H     0.25805   0.46589   0.61208   0.00000  Uiso   1.00
H36    H     0.27624   0.12834   0.14517   0.00000  Uiso   1.00
H37    H     0.23212   0.96645   0.43779   0.00000  Uiso   1.00
O38    O     0.38314   0.61196   0.56349   0.00000  Uiso   1.00
O39    O     0.40700   0.16911   0.26288   0.00000  Uiso   1.00
O40    O     0.34913   0.95671   0.33481   0.00000  Uiso   1.00
N41    N     0.44904   0.53853   0.60244   0.00000  Uiso   1.00
N42    N     0.46605   0.22296   0.10085   0.00000  Uiso   1.00
N43    N     0.42481   0.07159   0.43953   0.00000  Uiso   1.00
N44    N     0.31529   0.47500   0.61461   0.00000  Uiso   1.00
N45    N     0.33229   0.15943   0.11303   0.00000  Uiso   1.00
N46    N     0.29105   0.00806   0.45170   0.00000  Uiso   1.00
C47    C     0.71669   0.17510   0.37982   0.00000  Uiso   1.00
C48    C     0.66188   0.08502   0.35226   0.00000  Uiso   1.00
C49    C     0.58041   0.04840   0.32233   0.00000  Uiso   1.00
C50    C     0.54089   0.96523   0.30043   0.00000  Uiso   1.00
C51    C     0.44961   0.83218   0.25651   0.00000  Uiso   1.00
C52    C     0.74885   0.17667   0.48964   0.00000  Uiso   1.00
C53    C     0.74049   0.21711   0.57520   0.00000  Uiso   1.00
C54    C     0.77420   0.21110   0.66893   0.00000  Uiso   1.00
C55    C     0.81797   0.22039   0.83828   0.00000  Uiso   1.00
C56    C     0.79055   0.20701   0.30737   0.00000  Uiso   1.00
C57    C     0.81728   0.27298   0.23969   0.00000  Uiso   1.00
C58    C     0.88612   0.29253   0.17998   0.00000  Uiso   1.00
C59    C     0.99464   0.34892   0.06633   0.00000  Uiso   1.00
C60    C     0.79141   0.09252   0.39413   0.00000  Uiso   1.00
C61    C     0.70247   0.04017   0.36005   0.00000  Uiso   1.00
C62    C     0.66308   0.95704   0.33817   0.00000  Uiso   1.00
C63    C     0.58155   0.92030   0.30821   0.00000  Uiso   1.00
C64    C     0.78943   0.13182   0.49742   0.00000  Uiso   1.00
C65    C     0.82316   0.12575   0.59104   0.00000  Uiso   1.00
C66    C     0.81486   0.16617   0.67673   0.00000  Uiso   1.00
C67    C     0.83114   0.16216   0.31514   0.00000  Uiso   1.00
C68    C     0.89995   0.18161   0.25553   0.00000  Uiso   1.00
C69    C     0.92677   0.24760   0.18778   0.00000  Uiso   1.00
H70    H     0.68510   0.21002   0.37377   0.00000  Uiso   1.00
H71    H     0.54902   0.08313   0.31633   0.00000  Uiso   1.00
H72    H     0.70909   0.25182   0.56916   0.00000  Uiso   1.00
H73    H     0.78586   0.30767   0.23370   0.00000  Uiso   1.00
H74    H     0.41604   0.92266   0.25612   0.00000  Uiso   1.00
H75    H     0.75358   0.27839   0.78921   0.00000  Uiso   1.00
H76    H     0.91547   0.39617   0.08183   0.00000  Uiso   1.00
H77    H     0.82301   0.05760   0.40019   0.00000  Uiso   1.00
H78    H     0.69450   0.92234   0.34420   0.00000  Uiso   1.00
H79    H     0.85457   0.09104   0.59703   0.00000  Uiso   1.00
H80    H     0.93134   0.14689   0.26157   0.00000  Uiso   1.00
H81    H     0.53411   0.79216   0.27874   0.00000  Uiso   1.00
H82    H     0.87166   0.14789   0.81184   0.00000  Uiso   1.00
H83    H     0.03355   0.26567   0.10445   0.00000  Uiso   1.00
O84    O     0.38804   0.77118   0.23016   0.00000  Uiso   1.00
O85    O     0.83089   0.23789   0.92954   0.00000  Uiso   1.00
O86    O     0.04329   0.39241   0.00147   0.00000  Uiso   1.00
N87    N     0.46147   0.91051   0.26911   0.00000  Uiso   1.00
N88    N     0.77704   0.24309   0.76752   0.00000  Uiso   1.00
N89    N     0.92841   0.35321   0.10620   0.00000  Uiso   1.00
N90    N     0.52500   0.84029   0.28128   0.00000  Uiso   1.00
N91    N     0.84057   0.17287   0.77969   0.00000  Uiso   1.00
N92    N     0.99194   0.28299   0.11837   0.00000  Uiso   1.00
C93    C     0.82490   0.54160   0.04648   0.00000  Uiso   1.00
C94    C     0.91498   0.57686   0.01893   0.00000  Uiso   1.00
C95    C     0.95160   0.53201   0.98900   0.00000  Uiso   1.00
C96    C     0.03477   0.57567   0.96709   0.00000  Uiso   1.00
C97    C     0.16782   0.61743   0.92318   0.00000  Uiso   1.00
C98    C     0.82333   0.57218   0.15631   0.00000  Uiso   1.00
C99    C     0.78289   0.52338   0.24187   0.00000  Uiso   1.00
C100   C     0.78890   0.56310   0.33560   0.00000  Uiso   1.00
C101   C     0.77961   0.59758   0.50495   0.00000  Uiso   1.00
C102   C     0.79299   0.58354   0.97404   0.00000  Uiso   1.00
C103   C     0.72702   0.54430   0.90636   0.00000  Uiso   1.00
C104   C     0.70747   0.59359   0.84665   0.00000  Uiso   1.00
C105   C     0.65108   0.64572   0.73299   0.00000  Uiso   1.00
C106   C     0.90748   0.69889   0.06080   0.00000  Uiso   1.00
C107   C     0.95983   0.66230   0.02671   0.00000  Uiso   1.00
C108   C     0.04296   0.70604   0.00484   0.00000  Uiso   1.00
C109   C     0.07970   0.66126   0.97488   0.00000  Uiso   1.00
C110   C     0.86818   0.65761   0.16409   0.00000  Uiso   1.00
C111   C     0.87425   0.69741   0.25771   0.00000  Uiso   1.00
C112   C     0.83383   0.64869   0.34339   0.00000  Uiso   1.00
C113   C     0.83784   0.66898   0.98181   0.00000  Uiso   1.00
C114   C     0.81839   0.71833   0.92220   0.00000  Uiso   1.00
C115   C     0.75240   0.67918   0.85444   0.00000  Uiso   1.00
H116   H     0.78998   0.47508   0.04044   0.00000  Uiso   1.00
H117   H     0.91687   0.46589   0.98300   0.00000  Uiso   1.00
H118   H     0.74818   0.45727   0.23582   0.00000  Uiso   1.00
H119   H     0.69233   0.47819   0.90037   0.00000  Uiso   1.00
H120   H     0.07734   0.49338   0.92279   0.00000  Uiso   1.00
H121   H     0.72161   0.47519   0.45588   0.00000  Uiso   1.00
H122   H     0.60383   0.51930   0.74850   0.00000  Uiso   1.00
H123   H     0.94240   0.76541   0.06686   0.00000  Uiso   1.00
H124   H     0.07766   0.77216   0.01087   0.00000  Uiso   1.00
H125   H     0.90896   0.76353   0.26370   0.00000  Uiso   1.00
H126   H     0.85311   0.78445   0.92824   0.00000  Uiso   1.00
H127   H     0.20784   0.74195   0.94541   0.00000  Uiso   1.00
H128   H     0.85211   0.72376   0.47850   0.00000  Uiso   1.00
H129   H     0.73433   0.76788   0.77112   0.00000  Uiso   1.00
O130   O     0.22882   0.61686   0.89682   0.00000  Uiso   1.00
O131   O     0.76211   0.59300   0.59621   0.00000  Uiso   1.00
O132   O     0.60759   0.65087   0.66814   0.00000  Uiso   1.00
N133   N     0.08949   0.55096   0.93578   0.00000  Uiso   1.00
N134   N     0.75691   0.53395   0.43419   0.00000  Uiso   1.00
N135   N     0.64679   0.57519   0.77287   0.00000  Uiso   1.00
N136   N     0.15971   0.68471   0.94795   0.00000  Uiso   1.00
N137   N     0.82713   0.66771   0.44636   0.00000  Uiso   1.00
N138   N     0.71701   0.70895   0.78504   0.00000  Uiso   1.00
C139   C     0.28331   0.45840   0.28685   0.00000  Uiso   1.00
C140   C     0.33812   0.42314   0.31440   0.00000  Uiso   1.00
C141   C     0.41959   0.46799   0.34433   0.00000  Uiso   1.00
C142   C     0.45911   0.42433   0.36624   0.00000  Uiso   1.00
C143   C     0.55039   0.38257   0.41015   0.00000  Uiso   1.00
C144   C     0.25115   0.42782   0.17703   0.00000  Uiso   1.00
C145   C     0.25951   0.47662   0.09146   0.00000  Uiso   1.00
C146   C     0.22580   0.43690   0.99773   0.00000  Uiso   1.00
C147   C     0.18203   0.40242   0.82839   0.00000  Uiso   1.00
C148   C     0.20945   0.41646   0.35930   0.00000  Uiso   1.00
C149   C     0.18272   0.45570   0.42697   0.00000  Uiso   1.00
C150   C     0.11388   0.40641   0.48668   0.00000  Uiso   1.00
C151   C     0.00536   0.35428   0.60034   0.00000  Uiso   1.00
C152   C     0.20859   0.30111   0.27253   0.00000  Uiso   1.00
C153   C     0.29753   0.33770   0.30662   0.00000  Uiso   1.00
C154   C     0.33692   0.29396   0.32849   0.00000  Uiso   1.00
C155   C     0.41845   0.33874   0.35846   0.00000  Uiso   1.00
C156   C     0.21057   0.34239   0.16925   0.00000  Uiso   1.00
C157   C     0.17684   0.30259   0.07562   0.00000  Uiso   1.00
C158   C     0.18514   0.35131   0.98994   0.00000  Uiso   1.00
C159   C     0.16886   0.33102   0.35152   0.00000  Uiso   1.00
C160   C     0.10005   0.28167   0.41113   0.00000  Uiso   1.00
C161   C     0.07323   0.32082   0.47889   0.00000  Uiso   1.00
H162   H     0.31490   0.52492   0.29290   0.00000  Uiso   1.00
H163   H     0.45098   0.53411   0.35033   0.00000  Uiso   1.00
H164   H     0.29091   0.54273   0.09751   0.00000  Uiso   1.00
H165   H     0.21414   0.52181   0.43297   0.00000  Uiso   1.00
H166   H     0.58396   0.50662   0.41055   0.00000  Uiso   1.00
H167   H     0.24642   0.52481   0.87746   0.00000  Uiso   1.00
H168   H     0.08453   0.48070   0.58484   0.00000  Uiso   1.00
H169   H     0.17699   0.23459   0.26647   0.00000  Uiso   1.00
H170   H     0.30550   0.22784   0.32247   0.00000  Uiso   1.00
H171   H     0.14543   0.23647   0.06964   0.00000  Uiso   1.00
H172   H     0.06866   0.21555   0.40510   0.00000  Uiso   1.00
H173   H     0.46589   0.25805   0.38792   0.00000  Uiso   1.00
H174   H     0.12834   0.27624   0.85483   0.00000  Uiso   1.00
H175   H     0.96645   0.23212   0.56221   0.00000  Uiso   1.00
O176   O     0.61196   0.38314   0.43651   0.00000  Uiso   1.00
O177   O     0.16911   0.40700   0.73712   0.00000  Uiso   1.00
O178   O     0.95671   0.34913   0.66519   0.00000  Uiso   1.00
N179   N     0.53853   0.44904   0.39756   0.00000  Uiso   1.00
N180   N     0.22296   0.46605   0.89915   0.00000  Uiso   1.00
N181   N     0.07159   0.42481   0.56047   0.00000  Uiso   1.00
N182   N     0.47500   0.31529   0.38539   0.00000  Uiso   1.00
N183   N     0.15943   0.33229   0.88697   0.00000  Uiso   1.00
N184   N     0.00806   0.29105   0.54830   0.00000  Uiso   1.00
C185   C     0.17510   0.71669   0.62018   0.00000  Uiso   1.00
C186   C     0.08502   0.66188   0.64774   0.00000  Uiso   1.00
C187   C     0.04840   0.58041   0.67767   0.00000  Uiso   1.00
C188   C     0.96523   0.54089   0.69957   0.00000  Uiso   1.00
C189   C     0.83218   0.44961   0.74349   0.00000  Uiso   1.00
C190   C     0.17667   0.74885   0.51036   0.00000  Uiso   1.00
C191   C     0.21711   0.74049   0.42480   0.00000  Uiso   1.00
C192   C     0.21110   0.77420   0.33107   0.00000  Uiso   1.00
C193   C     0.22039   0.81797   0.16172   0.00000  Uiso   1.00
C194   C     0.20701   0.79055   0.69263   0.00000  Uiso   1.00
C195   C     0.27298   0.81728   0.76031   0.00000  Uiso   1.00
C196   C     0.29253   0.88612   0.82002   0.00000  Uiso   1.00
C197   C     0.34892   0.99464   0.93367   0.00000  Uiso   1.00
C198   C     0.09252   0.79141   0.60587   0.00000  Uiso   1.00
C199   C     0.04017   0.70247   0.63995   0.00000  Uiso   1.00
C200   C     0.95704   0.66308   0.66183   0.00000  Uiso   1.00
C201   C     0.92030   0.58155   0.69179   0.00000  Uiso   1.00
C202   C     0.13182   0.78943   0.50258   0.00000  Uiso   1.00
C203   C     0.12575   0.82316   0.40896   0.00000  Uiso   1.00
C204   C     0.16617   0.81486   0.32327   0.00000  Uiso   1.00
C205   C     0.16216   0.83114   0.68486   0.00000  Uiso   1.00
C206   C     0.18161   0.89995   0.74447   0.00000  Uiso   1.00
C207   C     0.24760   0.92677   0.81222   0.00000  Uiso   1.00
H208   H     0.21002   0.68510   0.62623   0.00000  Uiso   1.00
H209   H     0.08313   0.54902   0.68367   0.00000  Uiso   1.00
H210   H     0.25182   0.70909   0.43084   0.00000  Uiso   1.00
H211   H     0.30767   0.78586   0.76630   0.00000  Uiso   1.00
H212   H     0.92266   0.41604   0.74388   0.00000  Uiso   1.00
H213   H     0.27839   0.75358   0.21079   0.00000  Uiso   1.00
H214   H     0.39617   0.91547   0.91817   0.00000  Uiso   1.00
H215   H     0.05760   0.82301   0.59981   0.00000  Uiso   1.00
H216   H     0.92234   0.69450   0.65580   0.00000  Uiso   1.00
H217   H     0.09104   0.85457   0.40297   0.00000  Uiso   1.00
H218   H     0.14689   0.93134   0.73843   0.00000  Uiso   1.00
H219   H     0.79216   0.53411   0.72126   0.00000  Uiso   1.00
H220   H     0.14789   0.87166   0.18816   0.00000  Uiso   1.00
H221   H     0.26567   0.03355   0.89555   0.00000  Uiso   1.00
O222   O     0.77118   0.38804   0.76984   0.00000  Uiso   1.00
O223   O     0.23789   0.83089   0.07046   0.00000  Uiso   1.00
O224   O     0.39241   0.04329   0.99853   0.00000  Uiso   1.00
N225   N     0.91051   0.46147   0.73089   0.00000  Uiso   1.00
N226   N     0.24309   0.77704   0.23248   0.00000  Uiso   1.00
N227   N     0.35321   0.92841   0.89380   0.00000  Uiso   1.00
N228   N     0.84029   0.52500   0.71872   0.00000  Uiso   1.00
N229   N     0.17287   0.84057   0.22031   0.00000  Uiso   1.00
N230   N     0.28299   0.99194   0.88163   0.00000  Uiso   1.00
C231   C     0.54160   0.82490   0.95352   0.00000  Uiso   1.00
C232   C     0.57686   0.91498   0.98107   0.00000  Uiso   1.00
C233   C     0.53201   0.95160   0.01100   0.00000  Uiso   1.00
C234   C     0.57567   0.03477   0.03291   0.00000  Uiso   1.00
C235   C     0.61743   0.16782   0.07682   0.00000  Uiso   1.00
C236   C     0.57218   0.82333   0.84369   0.00000  Uiso   1.00
C237   C     0.52338   0.78289   0.75813   0.00000  Uiso   1.00
C238   C     0.56310   0.78890   0.66440   0.00000  Uiso   1.00
C239   C     0.59758   0.77961   0.49505   0.00000  Uiso   1.00
C240   C     0.58354   0.79299   0.02596   0.00000  Uiso   1.00
C241   C     0.54430   0.72702   0.09364   0.00000  Uiso   1.00
C242   C     0.59359   0.70747   0.15335   0.00000  Uiso   1.00
C243   C     0.64572   0.65108   0.26701   0.00000  Uiso   1.00
C244   C     0.69889   0.90748   0.93920   0.00000  Uiso   1.00
C245   C     0.66230   0.95983   0.97329   0.00000  Uiso   1.00
C246   C     0.70604   0.04296   0.99516   0.00000  Uiso   1.00
C247   C     0.66126   0.07970   0.02512   0.00000  Uiso   1.00
C248   C     0.65761   0.86818   0.83591   0.00000  Uiso   1.00
C249   C     0.69741   0.87425   0.74229   0.00000  Uiso   1.00
C250   C     0.64869   0.83383   0.65661   0.00000  Uiso   1.00
C251   C     0.66898   0.83784   0.01819   0.00000  Uiso   1.00
C252   C     0.71833   0.81839   0.07780   0.00000  Uiso   1.00
C253   C     0.67918   0.75240   0.14556   0.00000  Uiso   1.00
H254   H     0.47508   0.78998   0.95956   0.00000  Uiso   1.00
H255   H     0.46589   0.91687   0.01700   0.00000  Uiso   1.00
H256   H     0.45727   0.74818   0.76418   0.00000  Uiso   1.00
H257   H     0.47819   0.69233   0.09963   0.00000  Uiso   1.00
H258   H     0.49338   0.07734   0.07721   0.00000  Uiso   1.00
H259   H     0.47519   0.72161   0.54412   0.00000  Uiso   1.00
H260   H     0.51930   0.60383   0.25150   0.00000  Uiso   1.00
H261   H     0.76541   0.94240   0.93314   0.00000  Uiso   1.00
H262   H     0.77216   0.07766   0.98913   0.00000  Uiso   1.00
H263   H     0.76353   0.90896   0.73630   0.00000  Uiso   1.00
H264   H     0.78445   0.85311   0.07176   0.00000  Uiso   1.00
H265   H     0.74195   0.20784   0.05459   0.00000  Uiso   1.00
H266   H     0.72376   0.85211   0.52150   0.00000  Uiso   1.00
H267   H     0.76788   0.73433   0.22888   0.00000  Uiso   1.00
O268   O     0.61686   0.22882   0.10318   0.00000  Uiso   1.00
O269   O     0.59300   0.76211   0.40379   0.00000  Uiso   1.00
O270   O     0.65087   0.60759   0.33186   0.00000  Uiso   1.00
N271   N     0.55096   0.08949   0.06422   0.00000  Uiso   1.00
N272   N     0.53395   0.75691   0.56581   0.00000  Uiso   1.00
N273   N     0.57519   0.64679   0.22713   0.00000  Uiso   1.00
N274   N     0.68471   0.15971   0.05205   0.00000  Uiso   1.00
N275   N     0.66771   0.82713   0.55364   0.00000  Uiso   1.00
N276   N     0.70895   0.71701   0.21496   0.00000  Uiso   1.00
