data_job_05630
_audit_creation_date              2018-12-19
_audit_creation_method            'Materials Studio'
_symmetry_space_group_name_H-M    'P1'
_symmetry_Int_Tables_number       1
_symmetry_cell_setting            triclinic
loop_
_symmetry_equiv_pos_as_xyz
  x,y,z
_cell_length_a                    14.6582
_cell_length_b                    14.6582
_cell_length_c                    24.1703
_cell_angle_alpha                 90.0000
_cell_angle_beta                  90.0000
_cell_angle_gamma                 120.0000
loop_
_atom_site_label
_atom_site_type_symbol
_atom_site_fract_x
_atom_site_fract_y
_atom_site_fract_z
_atom_site_U_iso_or_equiv
_atom_site_adp_type
_atom_site_occupancy
C1     C     0.70147   0.61242   0.41223   0.00000  Uiso   1.00
C2     C     0.69289   0.50439   0.41072   0.00000  Uiso   1.00
C3     C     0.77684   0.48575   0.40952   0.00000  Uiso   1.00
C4     C     0.75253   0.38127   0.40822   0.00000  Uiso   1.00
C5     C     0.75510   0.22613   0.40586   0.00000  Uiso   1.00
C6     C     0.63918   0.61592   0.36254   0.00000  Uiso   1.00
C7     C     0.67798   0.69107   0.32084   0.00000  Uiso   1.00
C8     C     0.60844   0.68048   0.27900   0.00000  Uiso   1.00
C9     C     0.52762   0.69853   0.20186   0.00000  Uiso   1.00
C10    C     0.64045   0.61250   0.46330   0.00000  Uiso   1.00
C11    C     0.68029   0.68479   0.50632   0.00000  Uiso   1.00
C12    C     0.61181   0.67133   0.54930   0.00000  Uiso   1.00
C13    C     0.53295   0.68407   0.62862   0.00000  Uiso   1.00
C14    C     0.50901   0.46001   0.41206   0.00000  Uiso   1.00
C15    C     0.58835   0.42161   0.41062   0.00000  Uiso   1.00
C16    C     0.56390   0.31713   0.40933   0.00000  Uiso   1.00
C17    C     0.64780   0.29834   0.40814   0.00000  Uiso   1.00
C18    C     0.53465   0.53314   0.36245   0.00000  Uiso   1.00
C19    C     0.46503   0.52244   0.32066   0.00000  Uiso   1.00
C20    C     0.50371   0.59755   0.27890   0.00000  Uiso   1.00
C21    C     0.53591   0.52971   0.46321   0.00000  Uiso   1.00
C22    C     0.46735   0.51615   0.50613   0.00000  Uiso   1.00
C23    C     0.50708   0.58840   0.54921   0.00000  Uiso   1.00
H24    H     0.78286   0.67687   0.41229   0.00000  Uiso   1.00
H25    H     0.85774   0.54984   0.40958   0.00000  Uiso   1.00
H26    H     0.75888   0.75513   0.32093   0.00000  Uiso   1.00
H27    H     0.76120   0.74884   0.50637   0.00000  Uiso   1.00
H28    H     0.89464   0.37250   0.40652   0.00000  Uiso   1.00
H29    H     0.68619   0.80537   0.21959   0.00000  Uiso   1.00
H30    H     0.69108   0.79212   0.61064   0.00000  Uiso   1.00
H31    H     0.42761   0.39556   0.41199   0.00000  Uiso   1.00
H32    H     0.48299   0.25308   0.40926   0.00000  Uiso   1.00
H33    H     0.38414   0.45837   0.32060   0.00000  Uiso   1.00
H34    H     0.38645   0.45208   0.50605   0.00000  Uiso   1.00
H35    H     0.59049   0.13164   0.40626   0.00000  Uiso   1.00
H36    H     0.38204   0.56452   0.21932   0.00000  Uiso   1.00
H37    H     0.38692   0.55126   0.61038   0.00000  Uiso   1.00
O38    O     0.78540   0.16342   0.40458   0.00000  Uiso   1.00
O39    O     0.51192   0.73135   0.15934   0.00000  Uiso   1.00
O40    O     0.51833   0.71396   0.67240   0.00000  Uiso   1.00
N41    N     0.81546   0.33536   0.40684   0.00000  Uiso   1.00
N42    N     0.62058   0.74007   0.23207   0.00000  Uiso   1.00
N43    N     0.62513   0.72769   0.59766   0.00000  Uiso   1.00
N44    N     0.65180   0.20576   0.40670   0.00000  Uiso   1.00
N45    N     0.45691   0.61046   0.23192   0.00000  Uiso   1.00
N46    N     0.46147   0.59809   0.59752   0.00000  Uiso   1.00
C47    C     0.38758   0.08906   0.07889   0.00000  Uiso   1.00
C48    C     0.49561   0.18850   0.07738   0.00000  Uiso   1.00
C49    C     0.51425   0.29109   0.07619   0.00000  Uiso   1.00
C50    C     0.61873   0.37126   0.07489   0.00000  Uiso   1.00
C51    C     0.77387   0.52898   0.07253   0.00000  Uiso   1.00
C52    C     0.38408   0.02327   0.02921   0.00000  Uiso   1.00
C53    C     0.30893   0.98691   0.98751   0.00000  Uiso   1.00
C54    C     0.31952   0.92796   0.94566   0.00000  Uiso   1.00
C55    C     0.30147   0.82909   0.86853   0.00000  Uiso   1.00
C56    C     0.38750   0.02795   0.12997   0.00000  Uiso   1.00
C57    C     0.31521   0.99551   0.17299   0.00000  Uiso   1.00
C58    C     0.32867   0.94048   0.21597   0.00000  Uiso   1.00
C59    C     0.31593   0.84888   0.29528   0.00000  Uiso   1.00
C60    C     0.53999   0.04900   0.07873   0.00000  Uiso   1.00
C61    C     0.57839   0.16674   0.07729   0.00000  Uiso   1.00
C62    C     0.68287   0.24677   0.07600   0.00000  Uiso   1.00
C63    C     0.70166   0.34946   0.07480   0.00000  Uiso   1.00
C64    C     0.46686   0.00151   0.02911   0.00000  Uiso   1.00
C65    C     0.47756   0.94259   0.98732   0.00000  Uiso   1.00
C66    C     0.40245   0.90617   0.94557   0.00000  Uiso   1.00
C67    C     0.47029   0.00619   0.12988   0.00000  Uiso   1.00
C68    C     0.48385   0.95120   0.17280   0.00000  Uiso   1.00
C69    C     0.41160   0.91868   0.21588   0.00000  Uiso   1.00
H70    H     0.32313   0.10599   0.07896   0.00000  Uiso   1.00
H71    H     0.45016   0.30790   0.07625   0.00000  Uiso   1.00
H72    H     0.24487   0.00375   0.98759   0.00000  Uiso   1.00
H73    H     0.25116   0.01236   0.17304   0.00000  Uiso   1.00
H74    H     0.62750   0.52215   0.07319   0.00000  Uiso   1.00
H75    H     0.19463   0.88082   0.88625   0.00000  Uiso   1.00
H76    H     0.20788   0.89896   0.27731   0.00000  Uiso   1.00
H77    H     0.60444   0.03206   0.07865   0.00000  Uiso   1.00
H78    H     0.74692   0.22991   0.07593   0.00000  Uiso   1.00
H79    H     0.54163   0.92577   0.98727   0.00000  Uiso   1.00
H80    H     0.54792   0.93437   0.17272   0.00000  Uiso   1.00
H81    H     0.86836   0.45885   0.07292   0.00000  Uiso   1.00
H82    H     0.43548   0.81752   0.88599   0.00000  Uiso   1.00
H83    H     0.44874   0.83566   0.27705   0.00000  Uiso   1.00
O84    O     0.83658   0.62199   0.07125   0.00000  Uiso   1.00
O85    O     0.26865   0.78057   0.82601   0.00000  Uiso   1.00
O86    O     0.28604   0.80438   0.33906   0.00000  Uiso   1.00
N87    N     0.66464   0.48010   0.07351   0.00000  Uiso   1.00
N88    N     0.25993   0.88051   0.89873   0.00000  Uiso   1.00
N89    N     0.27231   0.89744   0.26433   0.00000  Uiso   1.00
N90    N     0.79424   0.44604   0.07337   0.00000  Uiso   1.00
N91    N     0.38954   0.84645   0.89859   0.00000  Uiso   1.00
N92    N     0.40191   0.86338   0.26419   0.00000  Uiso   1.00
C93    C     0.91094   0.29853   0.74556   0.00000  Uiso   1.00
C94    C     0.81150   0.30711   0.74405   0.00000  Uiso   1.00
C95    C     0.70891   0.22316   0.74285   0.00000  Uiso   1.00
C96    C     0.62874   0.24747   0.74156   0.00000  Uiso   1.00
C97    C     0.47102   0.24490   0.73920   0.00000  Uiso   1.00
C98    C     0.97673   0.36082   0.69587   0.00000  Uiso   1.00
C99    C     0.01309   0.32202   0.65417   0.00000  Uiso   1.00
C100   C     0.07204   0.39156   0.61233   0.00000  Uiso   1.00
C101   C     0.17091   0.47238   0.53520   0.00000  Uiso   1.00
C102   C     0.97205   0.35955   0.79663   0.00000  Uiso   1.00
C103   C     0.00449   0.31971   0.83965   0.00000  Uiso   1.00
C104   C     0.05952   0.38819   0.88264   0.00000  Uiso   1.00
C105   C     0.15112   0.46705   0.96195   0.00000  Uiso   1.00
C106   C     0.95100   0.49099   0.74539   0.00000  Uiso   1.00
C107   C     0.83326   0.41165   0.74396   0.00000  Uiso   1.00
C108   C     0.75323   0.43610   0.74267   0.00000  Uiso   1.00
C109   C     0.65054   0.35220   0.74147   0.00000  Uiso   1.00
C110   C     0.99849   0.46535   0.69578   0.00000  Uiso   1.00
C111   C     0.05741   0.53497   0.65399   0.00000  Uiso   1.00
C112   C     0.09383   0.49629   0.61224   0.00000  Uiso   1.00
C113   C     0.99381   0.46409   0.79655   0.00000  Uiso   1.00
C114   C     0.04880   0.53265   0.83947   0.00000  Uiso   1.00
C115   C     0.08132   0.49292   0.88254   0.00000  Uiso   1.00
H116   H     0.89401   0.21714   0.74563   0.00000  Uiso   1.00
H117   H     0.69210   0.14226   0.74292   0.00000  Uiso   1.00
H118   H     0.99625   0.24112   0.65426   0.00000  Uiso   1.00
H119   H     0.98764   0.23880   0.83971   0.00000  Uiso   1.00
H120   H     0.47785   0.10536   0.73985   0.00000  Uiso   1.00
H121   H     0.11918   0.31381   0.55292   0.00000  Uiso   1.00
H122   H     0.10104   0.30892   0.94398   0.00000  Uiso   1.00
H123   H     0.96794   0.57239   0.74532   0.00000  Uiso   1.00
H124   H     0.77009   0.51701   0.74260   0.00000  Uiso   1.00
H125   H     0.07423   0.61586   0.65393   0.00000  Uiso   1.00
H126   H     0.06563   0.61355   0.83938   0.00000  Uiso   1.00
H127   H     0.54115   0.40951   0.73959   0.00000  Uiso   1.00
H128   H     0.18248   0.61796   0.55266   0.00000  Uiso   1.00
H129   H     0.16434   0.61308   0.94371   0.00000  Uiso   1.00
O130   O     0.37801   0.21460   0.73791   0.00000  Uiso   1.00
O131   O     0.21943   0.48808   0.49267   0.00000  Uiso   1.00
O132   O     0.19562   0.48167   0.00573   0.00000  Uiso   1.00
N133   N     0.51990   0.18454   0.74018   0.00000  Uiso   1.00
N134   N     0.11949   0.37942   0.56540   0.00000  Uiso   1.00
N135   N     0.10256   0.37487   0.93100   0.00000  Uiso   1.00
N136   N     0.55396   0.34820   0.74003   0.00000  Uiso   1.00
N137   N     0.15355   0.54309   0.56526   0.00000  Uiso   1.00
N138   N     0.13662   0.53853   0.93086   0.00000  Uiso   1.00
C139   C     0.38758   0.29853   0.92111   0.00000  Uiso   1.00
C140   C     0.49561   0.30711   0.92262   0.00000  Uiso   1.00
C141   C     0.51425   0.22316   0.92381   0.00000  Uiso   1.00
C142   C     0.61873   0.24747   0.92511   0.00000  Uiso   1.00
C143   C     0.77387   0.24490   0.92747   0.00000  Uiso   1.00
C144   C     0.38408   0.36082   0.97079   0.00000  Uiso   1.00
C145   C     0.30893   0.32202   0.01249   0.00000  Uiso   1.00
C146   C     0.31952   0.39156   0.05434   0.00000  Uiso   1.00
C147   C     0.30147   0.47238   0.13147   0.00000  Uiso   1.00
C148   C     0.38750   0.35955   0.87003   0.00000  Uiso   1.00
C149   C     0.31521   0.31971   0.82701   0.00000  Uiso   1.00
C150   C     0.32867   0.38819   0.78403   0.00000  Uiso   1.00
C151   C     0.31593   0.46705   0.70472   0.00000  Uiso   1.00
C152   C     0.53999   0.49099   0.92127   0.00000  Uiso   1.00
C153   C     0.57839   0.41165   0.92271   0.00000  Uiso   1.00
C154   C     0.68287   0.43610   0.92400   0.00000  Uiso   1.00
C155   C     0.70166   0.35220   0.92520   0.00000  Uiso   1.00
C156   C     0.46686   0.46535   0.97089   0.00000  Uiso   1.00
C157   C     0.47756   0.53497   0.01268   0.00000  Uiso   1.00
C158   C     0.40245   0.49629   0.05443   0.00000  Uiso   1.00
C159   C     0.47029   0.46409   0.87012   0.00000  Uiso   1.00
C160   C     0.48385   0.53265   0.82720   0.00000  Uiso   1.00
C161   C     0.41160   0.49292   0.78412   0.00000  Uiso   1.00
H162   H     0.32313   0.21714   0.92104   0.00000  Uiso   1.00
H163   H     0.45016   0.14226   0.92375   0.00000  Uiso   1.00
H164   H     0.24487   0.24112   0.01241   0.00000  Uiso   1.00
H165   H     0.25116   0.23880   0.82696   0.00000  Uiso   1.00
H166   H     0.62750   0.10536   0.92681   0.00000  Uiso   1.00
H167   H     0.19463   0.31381   0.11375   0.00000  Uiso   1.00
H168   H     0.20788   0.30892   0.72269   0.00000  Uiso   1.00
H169   H     0.60444   0.57239   0.92135   0.00000  Uiso   1.00
H170   H     0.74692   0.51701   0.92407   0.00000  Uiso   1.00
H171   H     0.54163   0.61586   0.01273   0.00000  Uiso   1.00
H172   H     0.54792   0.61355   0.82728   0.00000  Uiso   1.00
H173   H     0.86836   0.40951   0.92708   0.00000  Uiso   1.00
H174   H     0.43548   0.61796   0.11401   0.00000  Uiso   1.00
H175   H     0.44874   0.61308   0.72295   0.00000  Uiso   1.00
O176   O     0.83658   0.21460   0.92875   0.00000  Uiso   1.00
O177   O     0.26865   0.48808   0.17399   0.00000  Uiso   1.00
O178   O     0.28604   0.48167   0.66094   0.00000  Uiso   1.00
N179   N     0.66464   0.18454   0.92649   0.00000  Uiso   1.00
N180   N     0.25993   0.37942   0.10127   0.00000  Uiso   1.00
N181   N     0.27231   0.37487   0.73567   0.00000  Uiso   1.00
N182   N     0.79424   0.34820   0.92663   0.00000  Uiso   1.00
N183   N     0.38954   0.54309   0.10141   0.00000  Uiso   1.00
N184   N     0.40191   0.53853   0.73581   0.00000  Uiso   1.00
C185   C     0.91094   0.61242   0.25444   0.00000  Uiso   1.00
C186   C     0.81150   0.50439   0.25595   0.00000  Uiso   1.00
C187   C     0.70891   0.48575   0.25715   0.00000  Uiso   1.00
C188   C     0.62874   0.38127   0.25844   0.00000  Uiso   1.00
C189   C     0.47102   0.22613   0.26080   0.00000  Uiso   1.00
C190   C     0.97673   0.61592   0.30413   0.00000  Uiso   1.00
C191   C     0.01309   0.69107   0.34583   0.00000  Uiso   1.00
C192   C     0.07204   0.68048   0.38767   0.00000  Uiso   1.00
C193   C     0.17091   0.69853   0.46480   0.00000  Uiso   1.00
C194   C     0.97205   0.61250   0.20337   0.00000  Uiso   1.00
C195   C     0.00449   0.68479   0.16035   0.00000  Uiso   1.00
C196   C     0.05952   0.67133   0.11736   0.00000  Uiso   1.00
C197   C     0.15112   0.68407   0.03805   0.00000  Uiso   1.00
C198   C     0.95100   0.46001   0.25461   0.00000  Uiso   1.00
C199   C     0.83326   0.42161   0.25604   0.00000  Uiso   1.00
C200   C     0.75323   0.31713   0.25733   0.00000  Uiso   1.00
C201   C     0.65054   0.29834   0.25853   0.00000  Uiso   1.00
C202   C     0.99849   0.53314   0.30422   0.00000  Uiso   1.00
C203   C     0.05741   0.52244   0.34601   0.00000  Uiso   1.00
C204   C     0.09383   0.59755   0.38776   0.00000  Uiso   1.00
C205   C     0.99381   0.52971   0.20345   0.00000  Uiso   1.00
C206   C     0.04880   0.51615   0.16053   0.00000  Uiso   1.00
C207   C     0.08132   0.58840   0.11746   0.00000  Uiso   1.00
H208   H     0.89401   0.67687   0.25437   0.00000  Uiso   1.00
H209   H     0.69210   0.54984   0.25708   0.00000  Uiso   1.00
H210   H     0.99625   0.75513   0.34574   0.00000  Uiso   1.00
H211   H     0.98764   0.74884   0.16029   0.00000  Uiso   1.00
H212   H     0.47785   0.37250   0.26015   0.00000  Uiso   1.00
H213   H     0.11918   0.80537   0.44708   0.00000  Uiso   1.00
H214   H     0.10104   0.79212   0.05602   0.00000  Uiso   1.00
H215   H     0.96794   0.39556   0.25468   0.00000  Uiso   1.00
H216   H     0.77009   0.25308   0.25740   0.00000  Uiso   1.00
H217   H     0.07423   0.45837   0.34607   0.00000  Uiso   1.00
H218   H     0.06563   0.45208   0.16062   0.00000  Uiso   1.00
H219   H     0.54115   0.13164   0.26041   0.00000  Uiso   1.00
H220   H     0.18248   0.56452   0.44734   0.00000  Uiso   1.00
H221   H     0.16434   0.55126   0.05629   0.00000  Uiso   1.00
O222   O     0.37801   0.16342   0.26209   0.00000  Uiso   1.00
O223   O     0.21943   0.73135   0.50733   0.00000  Uiso   1.00
O224   O     0.19562   0.71396   0.99427   0.00000  Uiso   1.00
N225   N     0.51990   0.33536   0.25982   0.00000  Uiso   1.00
N226   N     0.11949   0.74007   0.43460   0.00000  Uiso   1.00
N227   N     0.10256   0.72769   0.06900   0.00000  Uiso   1.00
N228   N     0.55396   0.20576   0.25997   0.00000  Uiso   1.00
N229   N     0.15355   0.61046   0.43474   0.00000  Uiso   1.00
N230   N     0.13662   0.59809   0.06914   0.00000  Uiso   1.00
C231   C     0.70147   0.08906   0.58777   0.00000  Uiso   1.00
C232   C     0.69289   0.18850   0.58928   0.00000  Uiso   1.00
C233   C     0.77684   0.29109   0.59048   0.00000  Uiso   1.00
C234   C     0.75253   0.37126   0.59178   0.00000  Uiso   1.00
C235   C     0.75510   0.52898   0.59414   0.00000  Uiso   1.00
C236   C     0.63918   0.02327   0.63746   0.00000  Uiso   1.00
C237   C     0.67798   0.98691   0.67916   0.00000  Uiso   1.00
C238   C     0.60844   0.92796   0.72100   0.00000  Uiso   1.00
C239   C     0.52762   0.82909   0.79814   0.00000  Uiso   1.00
C240   C     0.64045   0.02795   0.53670   0.00000  Uiso   1.00
C241   C     0.68029   0.99551   0.49368   0.00000  Uiso   1.00
C242   C     0.61181   0.94048   0.45070   0.00000  Uiso   1.00
C243   C     0.53295   0.84888   0.37138   0.00000  Uiso   1.00
C244   C     0.50901   0.04900   0.58794   0.00000  Uiso   1.00
C245   C     0.58835   0.16674   0.58938   0.00000  Uiso   1.00
C246   C     0.56390   0.24677   0.59067   0.00000  Uiso   1.00
C247   C     0.64780   0.34946   0.59186   0.00000  Uiso   1.00
C248   C     0.53465   0.00151   0.63755   0.00000  Uiso   1.00
C249   C     0.46503   0.94259   0.67934   0.00000  Uiso   1.00
C250   C     0.50371   0.90617   0.72110   0.00000  Uiso   1.00
C251   C     0.53591   0.00619   0.53679   0.00000  Uiso   1.00
C252   C     0.46735   0.95120   0.49387   0.00000  Uiso   1.00
C253   C     0.50708   0.91868   0.45079   0.00000  Uiso   1.00
H254   H     0.78286   0.10599   0.58771   0.00000  Uiso   1.00
H255   H     0.85774   0.30790   0.59042   0.00000  Uiso   1.00
H256   H     0.75888   0.00375   0.67907   0.00000  Uiso   1.00
H257   H     0.76120   0.01236   0.49363   0.00000  Uiso   1.00
H258   H     0.89464   0.52215   0.59348   0.00000  Uiso   1.00
H259   H     0.68619   0.88082   0.78041   0.00000  Uiso   1.00
H260   H     0.69108   0.89896   0.38936   0.00000  Uiso   1.00
H261   H     0.42761   0.03206   0.58801   0.00000  Uiso   1.00
H262   H     0.48299   0.22991   0.59074   0.00000  Uiso   1.00
H263   H     0.38414   0.92577   0.67940   0.00000  Uiso   1.00
H264   H     0.38645   0.93437   0.49395   0.00000  Uiso   1.00
H265   H     0.59049   0.45885   0.59374   0.00000  Uiso   1.00
H266   H     0.38204   0.81752   0.78068   0.00000  Uiso   1.00
H267   H     0.38692   0.83566   0.38962   0.00000  Uiso   1.00
O268   O     0.78540   0.62199   0.59542   0.00000  Uiso   1.00
O269   O     0.51192   0.78057   0.84066   0.00000  Uiso   1.00
O270   O     0.51833   0.80438   0.32760   0.00000  Uiso   1.00
N271   N     0.81546   0.48010   0.59316   0.00000  Uiso   1.00
N272   N     0.62058   0.88051   0.76793   0.00000  Uiso   1.00
N273   N     0.62513   0.89744   0.40234   0.00000  Uiso   1.00
N274   N     0.65180   0.44604   0.59330   0.00000  Uiso   1.00
N275   N     0.45691   0.84645   0.76808   0.00000  Uiso   1.00
N276   N     0.46147   0.86338   0.40248   0.00000  Uiso   1.00
