data_job_02833
_audit_creation_date              2018-12-19
_audit_creation_method            'Materials Studio'
_symmetry_space_group_name_H-M    'P1'
_symmetry_Int_Tables_number       1
_symmetry_cell_setting            triclinic
loop_
_symmetry_equiv_pos_as_xyz
  x,y,z
_cell_length_a                    46.9170
_cell_length_b                    13.8849
_cell_length_c                    23.6544
_cell_angle_alpha                 90.0000
_cell_angle_beta                  59.7242
_cell_angle_gamma                 90.0000
loop_
_atom_site_label
_atom_site_type_symbol
_atom_site_fract_x
_atom_site_fract_y
_atom_site_fract_z
_atom_site_U_iso_or_equiv
_atom_site_adp_type
_atom_site_occupancy
C1     C     0.17351   0.03047   0.07655   0.00000  Uiso   1.00
C2     C     0.19085   0.07299   0.11069   0.00000  Uiso   1.00
C3     C     0.20549   0.02079   0.13935   0.00000  Uiso   1.00
C4     C     0.22007   0.07308   0.16812   0.00000  Uiso   1.00
C5     C     0.24699   0.12376   0.22115   0.00000  Uiso   1.00
C6     C     0.13876   0.07268   0.11132   0.00000  Uiso   1.00
C7     C     0.10961   0.02021   0.14049   0.00000  Uiso   1.00
C8     C     0.08035   0.07223   0.16978   0.00000  Uiso   1.00
C9     C     0.02640   0.12243   0.22375   0.00000  Uiso   1.00
C10    C     0.19082   0.07299   0.00772   0.00000  Uiso   1.00
C11    C     0.20543   0.02078   0.94979   0.00000  Uiso   1.00
C12    C     0.21999   0.07307   0.89186   0.00000  Uiso   1.00
C13    C     0.24687   0.12375   0.78498   0.00000  Uiso   1.00
C14    C     0.17338   0.21616   0.07668   0.00000  Uiso   1.00
C15    C     0.19078   0.17385   0.11076   0.00000  Uiso   1.00
C16    C     0.20534   0.22624   0.13949   0.00000  Uiso   1.00
C17    C     0.22000   0.17412   0.16818   0.00000  Uiso   1.00
C18    C     0.13869   0.17353   0.11139   0.00000  Uiso   1.00
C19    C     0.10946   0.22565   0.14064   0.00000  Uiso   1.00
C20    C     0.08027   0.17328   0.16985   0.00000  Uiso   1.00
C21    C     0.19075   0.17385   0.00779   0.00000  Uiso   1.00
C22    C     0.20528   0.22623   0.94994   0.00000  Uiso   1.00
C23    C     0.21991   0.17411   0.89193   0.00000  Uiso   1.00
H24    H     0.17356   0.95195   0.07649   0.00000  Uiso   1.00
H25    H     0.20554   0.94273   0.13929   0.00000  Uiso   1.00
H26    H     0.10967   0.94216   0.14042   0.00000  Uiso   1.00
H27    H     0.20548   0.94273   0.94976   0.00000  Uiso   1.00
H28    H     0.24094   0.97700   0.20896   0.00000  Uiso   1.00
H29    H     0.03881   0.97578   0.21134   0.00000  Uiso   1.00
H30    H     0.24083   0.97700   0.80927   0.00000  Uiso   1.00
H31    H     0.17332   0.29469   0.07673   0.00000  Uiso   1.00
H32    H     0.20528   0.30429   0.13954   0.00000  Uiso   1.00
H33    H     0.10942   0.30370   0.14068   0.00000  Uiso   1.00
H34    H     0.20522   0.30428   0.95001   0.00000  Uiso   1.00
H35    H     0.24073   0.27045   0.20917   0.00000  Uiso   1.00
H36    H     0.03860   0.26923   0.21154   0.00000  Uiso   1.00
H37    H     0.24063   0.27044   0.80948   0.00000  Uiso   1.00
O38    O     0.26186   0.12386   0.25040   0.00000  Uiso   1.00
O39    O     0.99667   0.12225   0.25350   0.00000  Uiso   1.00
O40    O     0.26172   0.12384   0.72601   0.00000  Uiso   1.00
N41    N     0.23651   0.04475   0.20038   0.00000  Uiso   1.00
N42    N     0.04753   0.04360   0.20261   0.00000  Uiso   1.00
N43    N     0.23640   0.04474   0.82671   0.00000  Uiso   1.00
N44    N     0.23640   0.20265   0.20049   0.00000  Uiso   1.00
N45    N     0.04742   0.20151   0.20272   0.00000  Uiso   1.00
N46    N     0.23629   0.20264   0.82682   0.00000  Uiso   1.00
C47    C     0.84027   0.96450   0.40979   0.00000  Uiso   1.00
C48    C     0.82295   0.92193   0.47860   0.00000  Uiso   1.00
C49    C     0.80829   0.97409   0.53655   0.00000  Uiso   1.00
C50    C     0.79373   0.92176   0.59446   0.00000  Uiso   1.00
C51    C     0.76683   0.87100   0.70132   0.00000  Uiso   1.00
C52    C     0.87503   0.92239   0.37505   0.00000  Uiso   1.00
C53    C     0.90417   0.97494   0.34593   0.00000  Uiso   1.00
C54    C     0.93345   0.92300   0.31667   0.00000  Uiso   1.00
C55    C     0.98741   0.87295   0.26274   0.00000  Uiso   1.00
C56    C     0.82297   0.92193   0.37557   0.00000  Uiso   1.00
C57    C     0.80834   0.97409   0.34688   0.00000  Uiso   1.00
C58    C     0.79380   0.92176   0.31804   0.00000  Uiso   1.00
C59    C     0.76693   0.87101   0.26492   0.00000  Uiso   1.00
C60    C     0.84047   0.77881   0.40959   0.00000  Uiso   1.00
C61    C     0.82305   0.82107   0.47849   0.00000  Uiso   1.00
C62    C     0.80851   0.76864   0.53633   0.00000  Uiso   1.00
C63    C     0.79383   0.82072   0.59435   0.00000  Uiso   1.00
C64    C     0.87514   0.82153   0.37494   0.00000  Uiso   1.00
C65    C     0.90438   0.76950   0.34572   0.00000  Uiso   1.00
C66    C     0.93355   0.82196   0.31656   0.00000  Uiso   1.00
C67    C     0.82308   0.82107   0.37547   0.00000  Uiso   1.00
C68    C     0.80856   0.76865   0.34667   0.00000  Uiso   1.00
C69    C     0.79391   0.82072   0.31794   0.00000  Uiso   1.00
H70    H     0.84019   0.04302   0.40987   0.00000  Uiso   1.00
H71    H     0.80822   0.05214   0.53661   0.00000  Uiso   1.00
H72    H     0.90408   0.05299   0.34602   0.00000  Uiso   1.00
H73    H     0.80827   0.05214   0.34697   0.00000  Uiso   1.00
H74    H     0.77283   0.01777   0.67708   0.00000  Uiso   1.00
H75    H     0.97495   0.01957   0.27519   0.00000  Uiso   1.00
H76    H     0.77292   0.01778   0.27719   0.00000  Uiso   1.00
H77    H     0.84055   0.70028   0.40950   0.00000  Uiso   1.00
H78    H     0.80859   0.69059   0.53623   0.00000  Uiso   1.00
H79    H     0.90445   0.69145   0.34564   0.00000  Uiso   1.00
H80    H     0.80864   0.69060   0.34659   0.00000  Uiso   1.00
H81    H     0.77314   0.72433   0.67677   0.00000  Uiso   1.00
H82    H     0.97526   0.72612   0.27488   0.00000  Uiso   1.00
H83    H     0.77323   0.72433   0.27689   0.00000  Uiso   1.00
O84    O     0.75197   0.87086   0.76029   0.00000  Uiso   1.00
O85    O     0.01714   0.87322   0.23302   0.00000  Uiso   1.00
O86    O     0.75208   0.87087   0.23565   0.00000  Uiso   1.00
N87    N     0.77728   0.95004   0.65961   0.00000  Uiso   1.00
N88    N     0.96625   0.95172   0.28388   0.00000  Uiso   1.00
N89    N     0.77738   0.95005   0.28574   0.00000  Uiso   1.00
N90    N     0.77745   0.79214   0.65945   0.00000  Uiso   1.00
N91    N     0.96642   0.79382   0.28372   0.00000  Uiso   1.00
N92    N     0.77754   0.79215   0.28557   0.00000  Uiso   1.00
C93    C     0.67351   0.53047   0.07655   0.00000  Uiso   1.00
C94    C     0.69085   0.57299   0.11069   0.00000  Uiso   1.00
C95    C     0.70549   0.52079   0.13935   0.00000  Uiso   1.00
C96    C     0.72007   0.57308   0.16812   0.00000  Uiso   1.00
C97    C     0.74699   0.62376   0.22115   0.00000  Uiso   1.00
C98    C     0.63876   0.57268   0.11132   0.00000  Uiso   1.00
C99    C     0.60961   0.52021   0.14049   0.00000  Uiso   1.00
C100   C     0.58035   0.57223   0.16978   0.00000  Uiso   1.00
C101   C     0.52640   0.62243   0.22375   0.00000  Uiso   1.00
C102   C     0.69082   0.57299   0.00772   0.00000  Uiso   1.00
C103   C     0.70543   0.52078   0.94979   0.00000  Uiso   1.00
C104   C     0.71999   0.57307   0.89186   0.00000  Uiso   1.00
C105   C     0.74687   0.62375   0.78498   0.00000  Uiso   1.00
C106   C     0.67338   0.71616   0.07668   0.00000  Uiso   1.00
C107   C     0.69078   0.67385   0.11076   0.00000  Uiso   1.00
C108   C     0.70534   0.72624   0.13949   0.00000  Uiso   1.00
C109   C     0.72000   0.67412   0.16818   0.00000  Uiso   1.00
C110   C     0.63869   0.67353   0.11139   0.00000  Uiso   1.00
C111   C     0.60946   0.72565   0.14064   0.00000  Uiso   1.00
C112   C     0.58027   0.67328   0.16985   0.00000  Uiso   1.00
C113   C     0.69075   0.67385   0.00779   0.00000  Uiso   1.00
C114   C     0.70528   0.72623   0.94994   0.00000  Uiso   1.00
C115   C     0.71991   0.67411   0.89193   0.00000  Uiso   1.00
H116   H     0.67356   0.45195   0.07649   0.00000  Uiso   1.00
H117   H     0.70554   0.44273   0.13929   0.00000  Uiso   1.00
H118   H     0.60967   0.44216   0.14042   0.00000  Uiso   1.00
H119   H     0.70548   0.44273   0.94976   0.00000  Uiso   1.00
H120   H     0.74094   0.47700   0.20896   0.00000  Uiso   1.00
H121   H     0.53881   0.47578   0.21134   0.00000  Uiso   1.00
H122   H     0.74083   0.47700   0.80927   0.00000  Uiso   1.00
H123   H     0.67332   0.79469   0.07673   0.00000  Uiso   1.00
H124   H     0.70528   0.80429   0.13954   0.00000  Uiso   1.00
H125   H     0.60942   0.80370   0.14068   0.00000  Uiso   1.00
H126   H     0.70522   0.80428   0.95001   0.00000  Uiso   1.00
H127   H     0.74073   0.77045   0.20917   0.00000  Uiso   1.00
H128   H     0.53860   0.76923   0.21154   0.00000  Uiso   1.00
H129   H     0.74063   0.77044   0.80948   0.00000  Uiso   1.00
O130   O     0.76186   0.62386   0.25040   0.00000  Uiso   1.00
O131   O     0.49667   0.62225   0.25350   0.00000  Uiso   1.00
O132   O     0.76172   0.62384   0.72601   0.00000  Uiso   1.00
N133   N     0.73651   0.54475   0.20038   0.00000  Uiso   1.00
N134   N     0.54753   0.54360   0.20261   0.00000  Uiso   1.00
N135   N     0.73640   0.54474   0.82671   0.00000  Uiso   1.00
N136   N     0.73640   0.70265   0.20049   0.00000  Uiso   1.00
N137   N     0.54742   0.70151   0.20272   0.00000  Uiso   1.00
N138   N     0.73629   0.70264   0.82682   0.00000  Uiso   1.00
C139   C     0.34027   0.46450   0.40979   0.00000  Uiso   1.00
C140   C     0.32295   0.42193   0.47860   0.00000  Uiso   1.00
C141   C     0.30829   0.47409   0.53655   0.00000  Uiso   1.00
C142   C     0.29373   0.42176   0.59446   0.00000  Uiso   1.00
C143   C     0.26683   0.37100   0.70132   0.00000  Uiso   1.00
C144   C     0.37503   0.42239   0.37505   0.00000  Uiso   1.00
C145   C     0.40417   0.47494   0.34593   0.00000  Uiso   1.00
C146   C     0.43345   0.42300   0.31667   0.00000  Uiso   1.00
C147   C     0.48741   0.37295   0.26274   0.00000  Uiso   1.00
C148   C     0.32297   0.42193   0.37557   0.00000  Uiso   1.00
C149   C     0.30834   0.47409   0.34688   0.00000  Uiso   1.00
C150   C     0.29380   0.42176   0.31804   0.00000  Uiso   1.00
C151   C     0.26693   0.37101   0.26492   0.00000  Uiso   1.00
C152   C     0.34047   0.27881   0.40959   0.00000  Uiso   1.00
C153   C     0.32305   0.32107   0.47849   0.00000  Uiso   1.00
C154   C     0.30851   0.26864   0.53633   0.00000  Uiso   1.00
C155   C     0.29383   0.32072   0.59435   0.00000  Uiso   1.00
C156   C     0.37514   0.32153   0.37494   0.00000  Uiso   1.00
C157   C     0.40438   0.26950   0.34572   0.00000  Uiso   1.00
C158   C     0.43355   0.32196   0.31656   0.00000  Uiso   1.00
C159   C     0.32308   0.32107   0.37547   0.00000  Uiso   1.00
C160   C     0.30856   0.26865   0.34667   0.00000  Uiso   1.00
C161   C     0.29391   0.32072   0.31794   0.00000  Uiso   1.00
H162   H     0.34019   0.54302   0.40987   0.00000  Uiso   1.00
H163   H     0.30822   0.55214   0.53661   0.00000  Uiso   1.00
H164   H     0.40408   0.55299   0.34602   0.00000  Uiso   1.00
H165   H     0.30827   0.55214   0.34697   0.00000  Uiso   1.00
H166   H     0.27283   0.51777   0.67708   0.00000  Uiso   1.00
H167   H     0.47495   0.51957   0.27519   0.00000  Uiso   1.00
H168   H     0.27292   0.51778   0.27719   0.00000  Uiso   1.00
H169   H     0.34055   0.20028   0.40950   0.00000  Uiso   1.00
H170   H     0.30859   0.19059   0.53623   0.00000  Uiso   1.00
H171   H     0.40445   0.19145   0.34564   0.00000  Uiso   1.00
H172   H     0.30864   0.19060   0.34659   0.00000  Uiso   1.00
H173   H     0.27314   0.22433   0.67677   0.00000  Uiso   1.00
H174   H     0.47526   0.22612   0.27488   0.00000  Uiso   1.00
H175   H     0.27323   0.22433   0.27689   0.00000  Uiso   1.00
O176   O     0.25197   0.37086   0.76029   0.00000  Uiso   1.00
O177   O     0.51714   0.37322   0.23302   0.00000  Uiso   1.00
O178   O     0.25208   0.37087   0.23565   0.00000  Uiso   1.00
N179   N     0.27728   0.45004   0.65961   0.00000  Uiso   1.00
N180   N     0.46625   0.45172   0.28388   0.00000  Uiso   1.00
N181   N     0.27738   0.45005   0.28574   0.00000  Uiso   1.00
N182   N     0.27745   0.29214   0.65945   0.00000  Uiso   1.00
N183   N     0.46642   0.29382   0.28372   0.00000  Uiso   1.00
N184   N     0.27754   0.29215   0.28557   0.00000  Uiso   1.00
C185   C     0.82649   0.03047   0.92345   0.00000  Uiso   1.00
C186   C     0.80915   0.07299   0.88931   0.00000  Uiso   1.00
C187   C     0.79451   0.02079   0.86065   0.00000  Uiso   1.00
C188   C     0.77993   0.07308   0.83188   0.00000  Uiso   1.00
C189   C     0.75301   0.12376   0.77885   0.00000  Uiso   1.00
C190   C     0.86124   0.07268   0.88868   0.00000  Uiso   1.00
C191   C     0.89039   0.02021   0.85951   0.00000  Uiso   1.00
C192   C     0.91965   0.07223   0.83022   0.00000  Uiso   1.00
C193   C     0.97360   0.12243   0.77625   0.00000  Uiso   1.00
C194   C     0.80918   0.07299   0.99228   0.00000  Uiso   1.00
C195   C     0.79457   0.02078   0.05021   0.00000  Uiso   1.00
C196   C     0.78001   0.07307   0.10814   0.00000  Uiso   1.00
C197   C     0.75313   0.12375   0.21502   0.00000  Uiso   1.00
C198   C     0.82662   0.21616   0.92332   0.00000  Uiso   1.00
C199   C     0.80922   0.17385   0.88924   0.00000  Uiso   1.00
C200   C     0.79466   0.22624   0.86051   0.00000  Uiso   1.00
C201   C     0.78000   0.17412   0.83182   0.00000  Uiso   1.00
C202   C     0.86131   0.17353   0.88861   0.00000  Uiso   1.00
C203   C     0.89054   0.22565   0.85936   0.00000  Uiso   1.00
C204   C     0.91973   0.17328   0.83015   0.00000  Uiso   1.00
C205   C     0.80925   0.17385   0.99221   0.00000  Uiso   1.00
C206   C     0.79472   0.22623   0.05006   0.00000  Uiso   1.00
C207   C     0.78009   0.17411   0.10807   0.00000  Uiso   1.00
H208   H     0.82644   0.95195   0.92351   0.00000  Uiso   1.00
H209   H     0.79446   0.94273   0.86071   0.00000  Uiso   1.00
H210   H     0.89033   0.94216   0.85958   0.00000  Uiso   1.00
H211   H     0.79452   0.94273   0.05024   0.00000  Uiso   1.00
H212   H     0.75906   0.97700   0.79104   0.00000  Uiso   1.00
H213   H     0.96119   0.97578   0.78866   0.00000  Uiso   1.00
H214   H     0.75917   0.97700   0.19073   0.00000  Uiso   1.00
H215   H     0.82668   0.29469   0.92327   0.00000  Uiso   1.00
H216   H     0.79472   0.30429   0.86046   0.00000  Uiso   1.00
H217   H     0.89058   0.30370   0.85932   0.00000  Uiso   1.00
H218   H     0.79478   0.30428   0.04999   0.00000  Uiso   1.00
H219   H     0.75927   0.27045   0.79083   0.00000  Uiso   1.00
H220   H     0.96140   0.26923   0.78846   0.00000  Uiso   1.00
H221   H     0.75937   0.27044   0.19052   0.00000  Uiso   1.00
O222   O     0.73814   0.12386   0.74960   0.00000  Uiso   1.00
O223   O     0.00333   0.12225   0.74650   0.00000  Uiso   1.00
O224   O     0.73828   0.12384   0.27399   0.00000  Uiso   1.00
N225   N     0.76349   0.04475   0.79962   0.00000  Uiso   1.00
N226   N     0.95247   0.04360   0.79739   0.00000  Uiso   1.00
N227   N     0.76360   0.04474   0.17329   0.00000  Uiso   1.00
N228   N     0.76360   0.20265   0.79951   0.00000  Uiso   1.00
N229   N     0.95258   0.20151   0.79728   0.00000  Uiso   1.00
N230   N     0.76371   0.20264   0.17318   0.00000  Uiso   1.00
C231   C     0.15973   0.96450   0.59021   0.00000  Uiso   1.00
C232   C     0.17705   0.92193   0.52140   0.00000  Uiso   1.00
C233   C     0.19171   0.97409   0.46345   0.00000  Uiso   1.00
C234   C     0.20627   0.92176   0.40554   0.00000  Uiso   1.00
C235   C     0.23317   0.87100   0.29868   0.00000  Uiso   1.00
C236   C     0.12497   0.92239   0.62495   0.00000  Uiso   1.00
C237   C     0.09583   0.97494   0.65407   0.00000  Uiso   1.00
C238   C     0.06655   0.92300   0.68333   0.00000  Uiso   1.00
C239   C     0.01259   0.87295   0.73726   0.00000  Uiso   1.00
C240   C     0.17703   0.92193   0.62443   0.00000  Uiso   1.00
C241   C     0.19166   0.97409   0.65312   0.00000  Uiso   1.00
C242   C     0.20620   0.92176   0.68196   0.00000  Uiso   1.00
C243   C     0.23307   0.87101   0.73508   0.00000  Uiso   1.00
C244   C     0.15953   0.77881   0.59041   0.00000  Uiso   1.00
C245   C     0.17695   0.82107   0.52151   0.00000  Uiso   1.00
C246   C     0.19149   0.76864   0.46367   0.00000  Uiso   1.00
C247   C     0.20617   0.82072   0.40565   0.00000  Uiso   1.00
C248   C     0.12486   0.82153   0.62506   0.00000  Uiso   1.00
C249   C     0.09562   0.76950   0.65428   0.00000  Uiso   1.00
C250   C     0.06645   0.82196   0.68344   0.00000  Uiso   1.00
C251   C     0.17692   0.82107   0.62453   0.00000  Uiso   1.00
C252   C     0.19144   0.76865   0.65333   0.00000  Uiso   1.00
C253   C     0.20609   0.82072   0.68206   0.00000  Uiso   1.00
H254   H     0.15981   0.04302   0.59013   0.00000  Uiso   1.00
H255   H     0.19178   0.05214   0.46339   0.00000  Uiso   1.00
H256   H     0.09592   0.05299   0.65398   0.00000  Uiso   1.00
H257   H     0.19173   0.05214   0.65303   0.00000  Uiso   1.00
H258   H     0.22717   0.01777   0.32292   0.00000  Uiso   1.00
H259   H     0.02505   0.01957   0.72481   0.00000  Uiso   1.00
H260   H     0.22708   0.01778   0.72281   0.00000  Uiso   1.00
H261   H     0.15945   0.70028   0.59050   0.00000  Uiso   1.00
H262   H     0.19141   0.69059   0.46377   0.00000  Uiso   1.00
H263   H     0.09555   0.69145   0.65436   0.00000  Uiso   1.00
H264   H     0.19136   0.69060   0.65341   0.00000  Uiso   1.00
H265   H     0.22686   0.72433   0.32323   0.00000  Uiso   1.00
H266   H     0.02474   0.72612   0.72512   0.00000  Uiso   1.00
H267   H     0.22677   0.72433   0.72311   0.00000  Uiso   1.00
O268   O     0.24803   0.87086   0.23971   0.00000  Uiso   1.00
O269   O     0.98286   0.87322   0.76698   0.00000  Uiso   1.00
O270   O     0.24792   0.87087   0.76435   0.00000  Uiso   1.00
N271   N     0.22272   0.95004   0.34039   0.00000  Uiso   1.00
N272   N     0.03375   0.95172   0.71612   0.00000  Uiso   1.00
N273   N     0.22262   0.95005   0.71426   0.00000  Uiso   1.00
N274   N     0.22255   0.79214   0.34055   0.00000  Uiso   1.00
N275   N     0.03358   0.79382   0.71628   0.00000  Uiso   1.00
N276   N     0.22246   0.79215   0.71443   0.00000  Uiso   1.00
C277   C     0.32649   0.53047   0.92345   0.00000  Uiso   1.00
C278   C     0.30915   0.57299   0.88931   0.00000  Uiso   1.00
C279   C     0.29451   0.52079   0.86065   0.00000  Uiso   1.00
C280   C     0.27993   0.57308   0.83188   0.00000  Uiso   1.00
C281   C     0.25301   0.62376   0.77885   0.00000  Uiso   1.00
C282   C     0.36124   0.57268   0.88868   0.00000  Uiso   1.00
C283   C     0.39039   0.52021   0.85951   0.00000  Uiso   1.00
C284   C     0.41965   0.57223   0.83022   0.00000  Uiso   1.00
C285   C     0.47360   0.62243   0.77625   0.00000  Uiso   1.00
C286   C     0.30918   0.57299   0.99228   0.00000  Uiso   1.00
C287   C     0.29457   0.52078   0.05021   0.00000  Uiso   1.00
C288   C     0.28001   0.57307   0.10814   0.00000  Uiso   1.00
C289   C     0.25313   0.62375   0.21502   0.00000  Uiso   1.00
C290   C     0.32662   0.71616   0.92332   0.00000  Uiso   1.00
C291   C     0.30922   0.67385   0.88924   0.00000  Uiso   1.00
C292   C     0.29466   0.72624   0.86051   0.00000  Uiso   1.00
C293   C     0.28000   0.67412   0.83182   0.00000  Uiso   1.00
C294   C     0.36131   0.67353   0.88861   0.00000  Uiso   1.00
C295   C     0.39054   0.72565   0.85936   0.00000  Uiso   1.00
C296   C     0.41973   0.67328   0.83015   0.00000  Uiso   1.00
C297   C     0.30925   0.67385   0.99221   0.00000  Uiso   1.00
C298   C     0.29472   0.72623   0.05006   0.00000  Uiso   1.00
C299   C     0.28009   0.67411   0.10807   0.00000  Uiso   1.00
H300   H     0.32644   0.45195   0.92351   0.00000  Uiso   1.00
H301   H     0.29446   0.44273   0.86071   0.00000  Uiso   1.00
H302   H     0.39033   0.44216   0.85958   0.00000  Uiso   1.00
H303   H     0.29452   0.44273   0.05024   0.00000  Uiso   1.00
H304   H     0.25906   0.47700   0.79104   0.00000  Uiso   1.00
H305   H     0.46119   0.47578   0.78866   0.00000  Uiso   1.00
H306   H     0.25917   0.47700   0.19073   0.00000  Uiso   1.00
H307   H     0.32668   0.79469   0.92327   0.00000  Uiso   1.00
H308   H     0.29472   0.80429   0.86046   0.00000  Uiso   1.00
H309   H     0.39058   0.80370   0.85932   0.00000  Uiso   1.00
H310   H     0.29478   0.80428   0.04999   0.00000  Uiso   1.00
H311   H     0.25927   0.77045   0.79083   0.00000  Uiso   1.00
H312   H     0.46140   0.76923   0.78846   0.00000  Uiso   1.00
H313   H     0.25937   0.77044   0.19052   0.00000  Uiso   1.00
O314   O     0.23814   0.62386   0.74960   0.00000  Uiso   1.00
O315   O     0.50333   0.62225   0.74650   0.00000  Uiso   1.00
O316   O     0.23828   0.62384   0.27399   0.00000  Uiso   1.00
N317   N     0.26349   0.54475   0.79962   0.00000  Uiso   1.00
N318   N     0.45247   0.54360   0.79739   0.00000  Uiso   1.00
N319   N     0.26360   0.54474   0.17329   0.00000  Uiso   1.00
N320   N     0.26360   0.70265   0.79951   0.00000  Uiso   1.00
N321   N     0.45258   0.70151   0.79728   0.00000  Uiso   1.00
N322   N     0.26371   0.70264   0.17318   0.00000  Uiso   1.00
C323   C     0.65973   0.46450   0.59021   0.00000  Uiso   1.00
C324   C     0.67705   0.42193   0.52140   0.00000  Uiso   1.00
C325   C     0.69171   0.47409   0.46345   0.00000  Uiso   1.00
C326   C     0.70627   0.42176   0.40554   0.00000  Uiso   1.00
C327   C     0.73317   0.37100   0.29868   0.00000  Uiso   1.00
C328   C     0.62497   0.42239   0.62495   0.00000  Uiso   1.00
C329   C     0.59583   0.47494   0.65407   0.00000  Uiso   1.00
C330   C     0.56655   0.42300   0.68333   0.00000  Uiso   1.00
C331   C     0.51259   0.37295   0.73726   0.00000  Uiso   1.00
C332   C     0.67703   0.42193   0.62443   0.00000  Uiso   1.00
C333   C     0.69166   0.47409   0.65312   0.00000  Uiso   1.00
C334   C     0.70620   0.42176   0.68196   0.00000  Uiso   1.00
C335   C     0.73307   0.37101   0.73508   0.00000  Uiso   1.00
C336   C     0.65953   0.27881   0.59041   0.00000  Uiso   1.00
C337   C     0.67695   0.32107   0.52151   0.00000  Uiso   1.00
C338   C     0.69149   0.26864   0.46367   0.00000  Uiso   1.00
C339   C     0.70617   0.32072   0.40565   0.00000  Uiso   1.00
C340   C     0.62486   0.32153   0.62506   0.00000  Uiso   1.00
C341   C     0.59562   0.26950   0.65428   0.00000  Uiso   1.00
C342   C     0.56645   0.32196   0.68344   0.00000  Uiso   1.00
C343   C     0.67692   0.32107   0.62453   0.00000  Uiso   1.00
C344   C     0.69144   0.26865   0.65333   0.00000  Uiso   1.00
C345   C     0.70609   0.32072   0.68206   0.00000  Uiso   1.00
H346   H     0.65981   0.54302   0.59013   0.00000  Uiso   1.00
H347   H     0.69178   0.55214   0.46339   0.00000  Uiso   1.00
H348   H     0.59592   0.55299   0.65398   0.00000  Uiso   1.00
H349   H     0.69173   0.55214   0.65303   0.00000  Uiso   1.00
H350   H     0.72717   0.51777   0.32292   0.00000  Uiso   1.00
H351   H     0.52505   0.51957   0.72481   0.00000  Uiso   1.00
H352   H     0.72708   0.51778   0.72281   0.00000  Uiso   1.00
H353   H     0.65945   0.20028   0.59050   0.00000  Uiso   1.00
H354   H     0.69141   0.19059   0.46377   0.00000  Uiso   1.00
H355   H     0.59555   0.19145   0.65436   0.00000  Uiso   1.00
H356   H     0.69136   0.19060   0.65341   0.00000  Uiso   1.00
H357   H     0.72686   0.22433   0.32323   0.00000  Uiso   1.00
H358   H     0.52474   0.22612   0.72512   0.00000  Uiso   1.00
H359   H     0.72677   0.22433   0.72311   0.00000  Uiso   1.00
O360   O     0.74803   0.37086   0.23971   0.00000  Uiso   1.00
O361   O     0.48286   0.37322   0.76698   0.00000  Uiso   1.00
O362   O     0.74792   0.37087   0.76435   0.00000  Uiso   1.00
N363   N     0.72272   0.45004   0.34039   0.00000  Uiso   1.00
N364   N     0.53375   0.45172   0.71612   0.00000  Uiso   1.00
N365   N     0.72262   0.45005   0.71426   0.00000  Uiso   1.00
N366   N     0.72255   0.29214   0.34055   0.00000  Uiso   1.00
N367   N     0.53358   0.29382   0.71628   0.00000  Uiso   1.00
N368   N     0.72246   0.29215   0.71443   0.00000  Uiso   1.00
