data_job_04828
_audit_creation_date              2018-12-19
_audit_creation_method            'Materials Studio'
_symmetry_space_group_name_H-M    'P1'
_symmetry_Int_Tables_number       1
_symmetry_cell_setting            triclinic
loop_
_symmetry_equiv_pos_as_xyz
  x,y,z
_cell_length_a                    7.2387
_cell_length_b                    11.6223
_cell_length_c                    23.4800
_cell_angle_alpha                 76.0025
_cell_angle_beta                  90.0331
_cell_angle_gamma                 71.8623
loop_
_atom_site_label
_atom_site_type_symbol
_atom_site_fract_x
_atom_site_fract_y
_atom_site_fract_z
_atom_site_U_iso_or_equiv
_atom_site_adp_type
_atom_site_occupancy
C1     C     0.58471   0.18680   0.78499   0.00000  Uiso   1.00
C2     C     0.47036   0.25278   0.82892   0.00000  Uiso   1.00
C3     C     0.54294   0.30822   0.86589   0.00000  Uiso   1.00
C4     C     0.41505   0.36375   0.90287   0.00000  Uiso   1.00
C5     C     0.26695   0.46613   0.97111   0.00000  Uiso   1.00
C6     C     0.56920   0.05511   0.80082   0.00000  Uiso   1.00
C7     C     0.72487   0.94437   0.81416   0.00000  Uiso   1.00
C8     C     0.68017   0.83349   0.82748   0.00000  Uiso   1.00
C9     C     0.68552   0.62899   0.85205   0.00000  Uiso   1.00
C10    C     0.47050   0.25252   0.72518   0.00000  Uiso   1.00
C11    C     0.54320   0.30773   0.67492   0.00000  Uiso   1.00
C12    C     0.41542   0.36304   0.62456   0.00000  Uiso   1.00
C13    C     0.26752   0.46505   0.53170   0.00000  Uiso   1.00
C14    C     0.22853   0.18681   0.78492   0.00000  Uiso   1.00
C15    C     0.27690   0.25277   0.82888   0.00000  Uiso   1.00
C16    C     0.14886   0.30823   0.86581   0.00000  Uiso   1.00
C17    C     0.22123   0.36376   0.90284   0.00000  Uiso   1.00
C18    C     0.37574   0.05511   0.80078   0.00000  Uiso   1.00
C19    C     0.33080   0.94437   0.81408   0.00000  Uiso   1.00
C20    C     0.48636   0.83349   0.82744   0.00000  Uiso   1.00
C21    C     0.27703   0.25252   0.72515   0.00000  Uiso   1.00
C22    C     0.14912   0.30774   0.67485   0.00000  Uiso   1.00
C23    C     0.22161   0.36304   0.62453   0.00000  Uiso   1.00
H24    H     0.73534   0.18679   0.78502   0.00000  Uiso   1.00
H25    H     0.69267   0.30819   0.86591   0.00000  Uiso   1.00
H26    H     0.87457   0.94439   0.81418   0.00000  Uiso   1.00
H27    H     0.69292   0.30771   0.67497   0.00000  Uiso   1.00
H28    H     0.56007   0.44275   0.95559   0.00000  Uiso   1.00
H29    H     0.94362   0.67566   0.84649   0.00000  Uiso   1.00
H30    H     0.56058   0.44178   0.55295   0.00000  Uiso   1.00
H31    H     0.07790   0.18681   0.78489   0.00000  Uiso   1.00
H32    H     0.99915   0.30822   0.86578   0.00000  Uiso   1.00
H33    H     0.18107   0.94441   0.81404   0.00000  Uiso   1.00
H34    H     0.99941   0.30773   0.67484   0.00000  Uiso   1.00
H35    H     0.99719   0.44276   0.95549   0.00000  Uiso   1.00
H36    H     0.38075   0.67566   0.84638   0.00000  Uiso   1.00
H37    H     0.99770   0.44179   0.55284   0.00000  Uiso   1.00
O38    O     0.23871   0.52258   0.00877   0.00000  Uiso   1.00
O39    O     0.74192   0.51619   0.86562   0.00000  Uiso   1.00
O40    O     0.23938   0.52133   0.48050   0.00000  Uiso   1.00
N41    N     0.43839   0.42611   0.94446   0.00000  Uiso   1.00
N42    N     0.79699   0.70893   0.84247   0.00000  Uiso   1.00
N43    N     0.43890   0.42516   0.56802   0.00000  Uiso   1.00
N44    N     0.13551   0.42612   0.94440   0.00000  Uiso   1.00
N45    N     0.49411   0.70893   0.84241   0.00000  Uiso   1.00
N46    N     0.13601   0.42517   0.56796   0.00000  Uiso   1.00
C47    C     0.41529   0.81320   0.21501   0.00000  Uiso   1.00
C48    C     0.52964   0.74722   0.17108   0.00000  Uiso   1.00
C49    C     0.45706   0.69178   0.13411   0.00000  Uiso   1.00
C50    C     0.58495   0.63625   0.09713   0.00000  Uiso   1.00
C51    C     0.73305   0.53387   0.02889   0.00000  Uiso   1.00
C52    C     0.43080   0.94489   0.19918   0.00000  Uiso   1.00
C53    C     0.27513   0.05563   0.18584   0.00000  Uiso   1.00
C54    C     0.31983   0.16651   0.17252   0.00000  Uiso   1.00
C55    C     0.31448   0.37101   0.14795   0.00000  Uiso   1.00
C56    C     0.52950   0.74748   0.27482   0.00000  Uiso   1.00
C57    C     0.45680   0.69227   0.32508   0.00000  Uiso   1.00
C58    C     0.58458   0.63696   0.37544   0.00000  Uiso   1.00
C59    C     0.73248   0.53495   0.46830   0.00000  Uiso   1.00
C60    C     0.77147   0.81319   0.21508   0.00000  Uiso   1.00
C61    C     0.72310   0.74723   0.17112   0.00000  Uiso   1.00
C62    C     0.85114   0.69177   0.13419   0.00000  Uiso   1.00
C63    C     0.77877   0.63624   0.09716   0.00000  Uiso   1.00
C64    C     0.62426   0.94489   0.19922   0.00000  Uiso   1.00
C65    C     0.66920   0.05563   0.18592   0.00000  Uiso   1.00
C66    C     0.51364   0.16651   0.17256   0.00000  Uiso   1.00
C67    C     0.72297   0.74748   0.27485   0.00000  Uiso   1.00
C68    C     0.85088   0.69226   0.32515   0.00000  Uiso   1.00
C69    C     0.77839   0.63696   0.37547   0.00000  Uiso   1.00
H70    H     0.26466   0.81321   0.21498   0.00000  Uiso   1.00
H71    H     0.30733   0.69181   0.13409   0.00000  Uiso   1.00
H72    H     0.12543   0.05561   0.18582   0.00000  Uiso   1.00
H73    H     0.30708   0.69229   0.32503   0.00000  Uiso   1.00
H74    H     0.43993   0.55725   0.04441   0.00000  Uiso   1.00
H75    H     0.05638   0.32434   0.15351   0.00000  Uiso   1.00
H76    H     0.43942   0.55822   0.44705   0.00000  Uiso   1.00
H77    H     0.92210   0.81319   0.21511   0.00000  Uiso   1.00
H78    H     0.00085   0.69178   0.13422   0.00000  Uiso   1.00
H79    H     0.81893   0.05559   0.18596   0.00000  Uiso   1.00
H80    H     0.00059   0.69227   0.32516   0.00000  Uiso   1.00
H81    H     0.00281   0.55724   0.04451   0.00000  Uiso   1.00
H82    H     0.61925   0.32434   0.15362   0.00000  Uiso   1.00
H83    H     0.00230   0.55821   0.44716   0.00000  Uiso   1.00
O84    O     0.76129   0.47742   0.99123   0.00000  Uiso   1.00
O85    O     0.25808   0.48381   0.13438   0.00000  Uiso   1.00
O86    O     0.76062   0.47867   0.51950   0.00000  Uiso   1.00
N87    N     0.56161   0.57389   0.05554   0.00000  Uiso   1.00
N88    N     0.20301   0.29107   0.15753   0.00000  Uiso   1.00
N89    N     0.56110   0.57484   0.43198   0.00000  Uiso   1.00
N90    N     0.86449   0.57388   0.05560   0.00000  Uiso   1.00
N91    N     0.50589   0.29107   0.15759   0.00000  Uiso   1.00
N92    N     0.86399   0.57483   0.43204   0.00000  Uiso   1.00
