data_job_06637
_audit_creation_date              2018-12-19
_audit_creation_method            'Materials Studio'
_symmetry_space_group_name_H-M    'P1'
_symmetry_Int_Tables_number       1
_symmetry_cell_setting            triclinic
loop_
_symmetry_equiv_pos_as_xyz
  x,y,z
_cell_length_a                    20.5216
_cell_length_b                    19.7573
_cell_length_c                    20.3954
_cell_angle_alpha                 91.8647
_cell_angle_beta                  69.7188
_cell_angle_gamma                 93.1592
loop_
_atom_site_label
_atom_site_type_symbol
_atom_site_fract_x
_atom_site_fract_y
_atom_site_fract_z
_atom_site_U_iso_or_equiv
_atom_site_adp_type
_atom_site_occupancy
C1     C     0.72778   0.43137   0.44179   0.00000  Uiso   1.00
C2     C     0.79376   0.41109   0.45297   0.00000  Uiso   1.00
C3     C     0.79731   0.38561   0.51419   0.00000  Uiso   1.00
C4     C     0.86259   0.37014   0.51389   0.00000  Uiso   1.00
C5     C     0.95599   0.33722   0.54030   0.00000  Uiso   1.00
C6     C     0.74096   0.50504   0.41878   0.00000  Uiso   1.00
C7     C     0.70011   0.55855   0.45125   0.00000  Uiso   1.00
C8     C     0.72094   0.62216   0.42217   0.00000  Uiso   1.00
C9     C     0.73234   0.73509   0.39547   0.00000  Uiso   1.00
C10    C     0.72375   0.39019   0.37865   0.00000  Uiso   1.00
C11    C     0.66843   0.34714   0.37737   0.00000  Uiso   1.00
C12    C     0.67476   0.31406   0.31449   0.00000  Uiso   1.00
C13    C     0.65944   0.24866   0.22548   0.00000  Uiso   1.00
C14    C     0.83741   0.44920   0.33239   0.00000  Uiso   1.00
C15    C     0.85331   0.42078   0.39355   0.00000  Uiso   1.00
C16    C     0.91860   0.40534   0.39315   0.00000  Uiso   1.00
C17    C     0.92224   0.37984   0.45437   0.00000  Uiso   1.00
C18    C     0.80051   0.51473   0.35936   0.00000  Uiso   1.00
C19    C     0.82140   0.57828   0.33022   0.00000  Uiso   1.00
C20    C     0.78060   0.63187   0.36264   0.00000  Uiso   1.00
C21    C     0.78330   0.39988   0.31923   0.00000  Uiso   1.00
C22    C     0.78972   0.36687   0.25633   0.00000  Uiso   1.00
C23    C     0.73441   0.32377   0.25496   0.00000  Uiso   1.00
H24    H     0.68143   0.42383   0.48805   0.00000  Uiso   1.00
H25    H     0.75122   0.37813   0.56017   0.00000  Uiso   1.00
H26    H     0.65403   0.55104   0.49723   0.00000  Uiso   1.00
H27    H     0.62236   0.33965   0.42336   0.00000  Uiso   1.00
H28    H     0.85486   0.33176   0.61393   0.00000  Uiso   1.00
H29    H     0.64992   0.69634   0.48121   0.00000  Uiso   1.00
H30    H     0.58312   0.25060   0.32544   0.00000  Uiso   1.00
H31    H     0.88377   0.45674   0.28612   0.00000  Uiso   1.00
H32    H     0.96467   0.41285   0.34716   0.00000  Uiso   1.00
H33    H     0.86748   0.58576   0.28423   0.00000  Uiso   1.00
H34    H     0.83580   0.37437   0.21036   0.00000  Uiso   1.00
H35    H     0.02811   0.35994   0.44105   0.00000  Uiso   1.00
H36    H     0.82316   0.72452   0.30833   0.00000  Uiso   1.00
H37    H     0.75637   0.27878   0.15256   0.00000  Uiso   1.00
O38    O     0.99105   0.31640   0.57129   0.00000  Uiso   1.00
O39    O     0.72217   0.79471   0.39716   0.00000  Uiso   1.00
O40    O     0.63454   0.20991   0.19280   0.00000  Uiso   1.00
N41    N     0.88453   0.34440   0.56486   0.00000  Uiso   1.00
N42    N     0.69293   0.68526   0.44078   0.00000  Uiso   1.00
N43    N     0.63047   0.26855   0.29515   0.00000  Uiso   1.00
N44    N     0.97775   0.35956   0.47183   0.00000  Uiso   1.00
N45    N     0.78615   0.70043   0.34776   0.00000  Uiso   1.00
N46    N     0.72369   0.28371   0.20212   0.00000  Uiso   1.00
C47    C     0.49161   0.92136   0.35099   0.00000  Uiso   1.00
C48    C     0.46909   0.99099   0.33962   0.00000  Uiso   1.00
C49    C     0.51298   0.04415   0.30445   0.00000  Uiso   1.00
C50    C     0.48224   0.10379   0.29968   0.00000  Uiso   1.00
C51    C     0.45823   0.21098   0.27758   0.00000  Uiso   1.00
C52    C     0.46375   0.91081   0.42980   0.00000  Uiso   1.00
C53    C     0.50315   0.89655   0.47046   0.00000  Uiso   1.00
C54    C     0.46791   0.88869   0.54161   0.00000  Uiso   1.00
C55    C     0.43561   0.87135   0.65951   0.00000  Uiso   1.00
C56    C     0.45109   0.87007   0.32062   0.00000  Uiso   1.00
C57    C     0.47986   0.82154   0.26949   0.00000  Uiso   1.00
C58    C     0.43396   0.77935   0.24873   0.00000  Uiso   1.00
C59    C     0.38201   0.69876   0.19711   0.00000  Uiso   1.00
C60    C     0.35895   0.93273   0.40506   0.00000  Uiso   1.00
C61    C     0.39703   0.99717   0.36899   0.00000  Uiso   1.00
C62    C     0.36621   0.05674   0.36427   0.00000  Uiso   1.00
C63    C     0.41006   0.10998   0.32910   0.00000  Uiso   1.00
C64    C     0.39170   0.91699   0.45917   0.00000  Uiso   1.00
C65    C     0.35639   0.90914   0.53028   0.00000  Uiso   1.00
C66    C     0.39573   0.89488   0.57103   0.00000  Uiso   1.00
C67    C     0.37904   0.87625   0.34999   0.00000  Uiso   1.00
C68    C     0.33309   0.83413   0.32931   0.00000  Uiso   1.00
C69    C     0.36178   0.78554   0.27815   0.00000  Uiso   1.00
H70    H     0.54771   0.91655   0.32813   0.00000  Uiso   1.00
H71    H     0.56874   0.03935   0.28173   0.00000  Uiso   1.00
H72    H     0.55891   0.89177   0.44771   0.00000  Uiso   1.00
H73    H     0.53562   0.81677   0.24678   0.00000  Uiso   1.00
H74    H     0.56029   0.17824   0.24326   0.00000  Uiso   1.00
H75    H     0.53956   0.86703   0.59324   0.00000  Uiso   1.00
H76    H     0.49045   0.70887   0.16952   0.00000  Uiso   1.00
H77    H     0.30286   0.93755   0.42793   0.00000  Uiso   1.00
H78    H     0.31045   0.06151   0.38700   0.00000  Uiso   1.00
H79    H     0.30063   0.91392   0.55299   0.00000  Uiso   1.00
H80    H     0.27734   0.83892   0.35205   0.00000  Uiso   1.00
H81    H     0.35066   0.19622   0.32871   0.00000  Uiso   1.00
H82    H     0.32993   0.88501   0.67869   0.00000  Uiso   1.00
H83    H     0.28081   0.72686   0.25497   0.00000  Uiso   1.00
O84    O     0.46489   0.26840   0.25728   0.00000  Uiso   1.00
O85    O     0.43770   0.86009   0.71644   0.00000  Uiso   1.00
O86    O     0.37326   0.65261   0.16053   0.00000  Uiso   1.00
N87    N     0.50991   0.16545   0.26898   0.00000  Uiso   1.00
N88    N     0.49053   0.87450   0.59619   0.00000  Uiso   1.00
N89    N     0.44461   0.72663   0.20006   0.00000  Uiso   1.00
N90    N     0.39710   0.17513   0.31495   0.00000  Uiso   1.00
N91    N     0.37773   0.88418   0.64216   0.00000  Uiso   1.00
N92    N     0.33181   0.73631   0.24604   0.00000  Uiso   1.00
C93    C     0.54028   0.66264   0.65645   0.00000  Uiso   1.00
C94    C     0.48337   0.62456   0.71423   0.00000  Uiso   1.00
C95    C     0.43799   0.65346   0.77456   0.00000  Uiso   1.00
C96    C     0.38962   0.60998   0.82101   0.00000  Uiso   1.00
C97    C     0.30170   0.56148   0.91279   0.00000  Uiso   1.00
C98    C     0.60792   0.62955   0.64905   0.00000  Uiso   1.00
C99    C     0.66727   0.66265   0.65457   0.00000  Uiso   1.00
C100   C     0.72375   0.62337   0.64614   0.00000  Uiso   1.00
C101   C     0.82922   0.58262   0.63668   0.00000  Uiso   1.00
C102   C     0.52599   0.64567   0.58907   0.00000  Uiso   1.00
C103   C     0.51646   0.69233   0.54416   0.00000  Uiso   1.00
C104   C     0.50398   0.66662   0.48522   0.00000  Uiso   1.00
C105   C     0.48224   0.65090   0.38264   0.00000  Uiso   1.00
C106   C     0.53507   0.53403   0.63164   0.00000  Uiso   1.00
C107   C     0.48054   0.55471   0.70075   0.00000  Uiso   1.00
C108   C     0.43223   0.51117   0.74712   0.00000  Uiso   1.00
C109   C     0.38678   0.54000   0.80751   0.00000  Uiso   1.00
C110   C     0.60509   0.55970   0.63558   0.00000  Uiso   1.00
C111   C     0.66151   0.52036   0.62713   0.00000  Uiso   1.00
C112   C     0.72092   0.55339   0.63264   0.00000  Uiso   1.00
C113   C     0.52316   0.57582   0.57560   0.00000  Uiso   1.00
C114   C     0.51070   0.55003   0.51672   0.00000  Uiso   1.00
C115   C     0.50115   0.59664   0.47172   0.00000  Uiso   1.00
H116   H     0.54249   0.71702   0.66694   0.00000  Uiso   1.00
H117   H     0.44020   0.70752   0.78497   0.00000  Uiso   1.00
H118   H     0.66944   0.71671   0.66499   0.00000  Uiso   1.00
H119   H     0.51866   0.74638   0.55460   0.00000  Uiso   1.00
H120   H     0.32556   0.66618   0.90990   0.00000  Uiso   1.00
H121   H     0.80895   0.68555   0.65690   0.00000  Uiso   1.00
H122   H     0.49098   0.74812   0.42411   0.00000  Uiso   1.00
H123   H     0.53287   0.47964   0.62115   0.00000  Uiso   1.00
H124   H     0.43005   0.45712   0.73668   0.00000  Uiso   1.00
H125   H     0.65930   0.46630   0.61670   0.00000  Uiso   1.00
H126   H     0.50851   0.49598   0.50631   0.00000  Uiso   1.00
H127   H     0.31733   0.46294   0.87071   0.00000  Uiso   1.00
H128   H     0.80072   0.48231   0.61770   0.00000  Uiso   1.00
H129   H     0.48275   0.54488   0.38491   0.00000  Uiso   1.00
O130   O     0.25400   0.55402   0.96714   0.00000  Uiso   1.00
O131   O     0.88818   0.57944   0.63520   0.00000  Uiso   1.00
O132   O     0.47102   0.66153   0.32978   0.00000  Uiso   1.00
N133   N     0.33773   0.62144   0.88482   0.00000  Uiso   1.00
N134   N     0.78966   0.63955   0.64829   0.00000  Uiso   1.00
N135   N     0.49241   0.69805   0.43064   0.00000  Uiso   1.00
N136   N     0.33329   0.51208   0.86373   0.00000  Uiso   1.00
N137   N     0.78523   0.53019   0.62720   0.00000  Uiso   1.00
N138   N     0.48798   0.58869   0.40955   0.00000  Uiso   1.00
C139   C     0.28680   0.21244   0.93030   0.00000  Uiso   1.00
C140   C     0.33801   0.16167   0.88602   0.00000  Uiso   1.00
C141   C     0.39396   0.17631   0.82561   0.00000  Uiso   1.00
C142   C     0.43466   0.12283   0.79268   0.00000  Uiso   1.00
C143   C     0.51644   0.05400   0.71990   0.00000  Uiso   1.00
C144   C     0.28897   0.20832   0.00405   0.00000  Uiso   1.00
C145   C     0.30367   0.26219   0.04287   0.00000  Uiso   1.00
C146   C     0.30308   0.24798   0.10930   0.00000  Uiso   1.00
C147   C     0.30867   0.25159   0.21978   0.00000  Uiso   1.00
C148   C     0.21479   0.18439   0.93439   0.00000  Uiso   1.00
C149   C     0.16711   0.21814   0.91467   0.00000  Uiso   1.00
C150   C     0.10406   0.18378   0.92247   0.00000  Uiso   1.00
C151   C     0.99448   0.15023   0.92479   0.00000  Uiso   1.00
C152   C     0.25960   0.09141   0.97925   0.00000  Uiso   1.00
C153   C     0.32323   0.09593   0.91261   0.00000  Uiso   1.00
C154   C     0.36386   0.04241   0.87977   0.00000  Uiso   1.00
C155   C     0.41986   0.05697   0.81931   0.00000  Uiso   1.00
C156   C     0.27419   0.14259   0.03064   0.00000  Uiso   1.00
C157   C     0.27357   0.12829   0.09703   0.00000  Uiso   1.00
C158   C     0.28827   0.18212   0.13594   0.00000  Uiso   1.00
C159   C     0.20001   0.11865   0.96098   0.00000  Uiso   1.00
C160   C     0.13702   0.08424   0.96882   0.00000  Uiso   1.00
C161   C     0.08926   0.11793   0.94911   0.00000  Uiso   1.00
H162   H     0.29830   0.26362   0.90961   0.00000  Uiso   1.00
H163   H     0.40538   0.22719   0.80505   0.00000  Uiso   1.00
H164   H     0.31509   0.31306   0.02228   0.00000  Uiso   1.00
H165   H     0.17856   0.26901   0.89409   0.00000  Uiso   1.00
H166   H     0.51759   0.15782   0.70087   0.00000  Uiso   1.00
H167   H     0.32720   0.33888   0.15893   0.00000  Uiso   1.00
H168   H     0.03929   0.24600   0.88862   0.00000  Uiso   1.00
H169   H     0.24809   0.04023   0.99996   0.00000  Uiso   1.00
H170   H     0.35241   0.99155   0.90035   0.00000  Uiso   1.00
H171   H     0.26213   0.07742   0.11759   0.00000  Uiso   1.00
H172   H     0.12560   0.03337   0.98940   0.00000  Uiso   1.00
H173   H     0.47460   0.96656   0.77822   0.00000  Uiso   1.00
H174   H     0.28421   0.14762   0.23628   0.00000  Uiso   1.00
H175   H     0.99631   0.05474   0.96597   0.00000  Uiso   1.00
O176   O     0.56564   0.03420   0.67241   0.00000  Uiso   1.00
O177   O     0.31584   0.27174   0.27336   0.00000  Uiso   1.00
O178   O     0.93813   0.14988   0.91872   0.00000  Uiso   1.00
N179   N     0.49315   0.11949   0.73274   0.00000  Uiso   1.00
N180   N     0.31515   0.28876   0.16099   0.00000  Uiso   1.00
N181   N     0.04598   0.20193   0.90829   0.00000  Uiso   1.00
N182   N     0.47002   0.01657   0.77436   0.00000  Uiso   1.00
N183   N     0.29202   0.18585   0.20261   0.00000  Uiso   1.00
N184   N     0.02285   0.09902   0.94991   0.00000  Uiso   1.00
C185   C     0.05718   0.91846   0.17261   0.00000  Uiso   1.00
C186   C     0.05239   0.89837   0.24576   0.00000  Uiso   1.00
C187   C     0.10446   0.86967   0.26294   0.00000  Uiso   1.00
C188   C     0.08992   0.85498   0.33283   0.00000  Uiso   1.00
C189   C     0.09228   0.82176   0.43869   0.00000  Uiso   1.00
C190   C     0.04157   0.99341   0.17763   0.00000  Uiso   1.00
C191   C     0.08456   0.04462   0.13752   0.00000  Uiso   1.00
C192   C     0.06090   0.10993   0.15006   0.00000  Uiso   1.00
C193   C     0.04645   0.22425   0.15010   0.00000  Uiso   1.00
C194   C     0.99641   0.88070   0.15856   0.00000  Uiso   1.00
C195   C     0.00141   0.83716   0.10242   0.00000  Uiso   1.00
C196   C     0.93972   0.80759   0.09890   0.00000  Uiso   1.00
C197   C     0.85514   0.74691   0.06934   0.00000  Uiso   1.00
C198   C     0.93873   0.94340   0.26617   0.00000  Uiso   1.00
C199   C     0.98805   0.91192   0.29658   0.00000  Uiso   1.00
C200   C     0.97342   0.89726   0.36646   0.00000  Uiso   1.00
C201   C     0.02547   0.86855   0.38374   0.00000  Uiso   1.00
C202   C     0.97724   0.00696   0.22845   0.00000  Uiso   1.00
C203   C     0.95351   0.07221   0.24104   0.00000  Uiso   1.00
C204   C     0.99645   0.12350   0.20097   0.00000  Uiso   1.00
C205   C     0.93207   0.89424   0.20938   0.00000  Uiso   1.00
C206   C     0.87036   0.86474   0.20594   0.00000  Uiso   1.00
C207   C     0.87527   0.82116   0.14980   0.00000  Uiso   1.00
H208   H     0.10726   0.90792   0.13305   0.00000  Uiso   1.00
H209   H     0.15425   0.85921   0.22360   0.00000  Uiso   1.00
H210   H     0.13434   0.03412   0.09820   0.00000  Uiso   1.00
H211   H     0.05120   0.82669   0.06310   0.00000  Uiso   1.00
H212   H     0.17798   0.81119   0.34641   0.00000  Uiso   1.00
H213   H     0.13599   0.18001   0.08198   0.00000  Uiso   1.00
H214   H     0.96068   0.74260   0.00797   0.00000  Uiso   1.00
H215   H     0.88864   0.95395   0.30574   0.00000  Uiso   1.00
H216   H     0.92363   0.90775   0.40577   0.00000  Uiso   1.00
H217   H     0.90372   0.08267   0.28037   0.00000  Uiso   1.00
H218   H     0.82059   0.87524   0.24528   0.00000  Uiso   1.00
H219   H     0.99080   0.85060   0.49427   0.00000  Uiso   1.00
H220   H     0.94881   0.21941   0.22983   0.00000  Uiso   1.00
H221   H     0.77350   0.78200   0.15583   0.00000  Uiso   1.00
O222   O     0.11136   0.79970   0.48304   0.00000  Uiso   1.00
O223   O     0.05626   0.28357   0.13609   0.00000  Uiso   1.00
O224   O     0.82626   0.70969   0.03901   0.00000  Uiso   1.00
N225   N     0.12912   0.82679   0.36748   0.00000  Uiso   1.00
N226   N     0.08987   0.17162   0.12025   0.00000  Uiso   1.00
N227   N     0.92596   0.76269   0.05106   0.00000  Uiso   1.00
N228   N     0.02840   0.84799   0.44704   0.00000  Uiso   1.00
N229   N     0.98915   0.19282   0.19982   0.00000  Uiso   1.00
N230   N     0.82524   0.78389   0.13062   0.00000  Uiso   1.00
C231   C     0.91391   0.42907   0.91600   0.00000  Uiso   1.00
C232   C     0.90582   0.49670   0.88636   0.00000  Uiso   1.00
C233   C     0.86710   0.54945   0.92415   0.00000  Uiso   1.00
C234   C     0.86628   0.60717   0.88744   0.00000  Uiso   1.00
C235   C     0.84818   0.71149   0.85236   0.00000  Uiso   1.00
C236   C     0.99190   0.42200   0.89742   0.00000  Uiso   1.00
C237   C     0.02555   0.41192   0.94451   0.00000  Uiso   1.00
C238   C     0.09720   0.40675   0.91711   0.00000  Uiso   1.00
C239   C     0.21273   0.39503   0.89920   0.00000  Uiso   1.00
C240   C     0.89020   0.37447   0.87350   0.00000  Uiso   1.00
C241   C     0.83836   0.32442   0.90047   0.00000  Uiso   1.00
C242   C     0.82440   0.27921   0.85293   0.00000  Uiso   1.00
C243   C     0.78204   0.19370   0.79788   0.00000  Uiso   1.00
C244   C     0.98131   0.43777   0.78362   0.00000  Uiso   1.00
C245   C     0.94243   0.50143   0.81446   0.00000  Uiso   1.00
C246   C     0.94167   0.55909   0.77768   0.00000  Uiso   1.00
C247   C     0.90295   0.61191   0.81541   0.00000  Uiso   1.00
C248   C     0.02851   0.42673   0.82552   0.00000  Uiso   1.00
C249   C     0.10012   0.42156   0.79805   0.00000  Uiso   1.00
C250   C     0.13387   0.41148   0.84508   0.00000  Uiso   1.00
C251   C     0.92681   0.37920   0.80160   0.00000  Uiso   1.00
C252   C     0.91294   0.33406   0.75401   0.00000  Uiso   1.00
C253   C     0.86108   0.28395   0.78090   0.00000  Uiso   1.00
H254   H     0.88541   0.42538   0.97198   0.00000  Uiso   1.00
H255   H     0.83878   0.54577   0.97979   0.00000  Uiso   1.00
H256   H     0.99720   0.40826   0.00015   0.00000  Uiso   1.00
H257   H     0.81004   0.32077   0.95612   0.00000  Uiso   1.00
H258   H     0.80324   0.68135   0.95675   0.00000  Uiso   1.00
H259   H     0.13729   0.39137   0.99967   0.00000  Uiso   1.00
H260   H     0.74263   0.20688   0.90682   0.00000  Uiso   1.00
H261   H     0.00982   0.44146   0.72764   0.00000  Uiso   1.00
H262   H     0.97001   0.56273   0.72204   0.00000  Uiso   1.00
H263   H     0.12844   0.42522   0.74240   0.00000  Uiso   1.00
H264   H     0.94128   0.33773   0.69837   0.00000  Uiso   1.00
H265   H     0.90976   0.69511   0.74755   0.00000  Uiso   1.00
H266   H     0.24380   0.40513   0.79047   0.00000  Uiso   1.00
H267   H     0.84914   0.22064   0.69762   0.00000  Uiso   1.00
O268   O     0.82809   0.76773   0.85288   0.00000  Uiso   1.00
O269   O     0.26634   0.38727   0.90919   0.00000  Uiso   1.00
O270   O     0.74855   0.14523   0.78738   0.00000  Uiso   1.00
N271   N     0.83376   0.66794   0.90828   0.00000  Uiso   1.00
N272   N     0.14608   0.39683   0.94841   0.00000  Uiso   1.00
N273   N     0.77712   0.22434   0.86161   0.00000  Uiso   1.00
N274   N     0.89108   0.67535   0.79571   0.00000  Uiso   1.00
N275   N     0.20339   0.40424   0.83584   0.00000  Uiso   1.00
N276   N     0.83443   0.23175   0.74904   0.00000  Uiso   1.00
C277   C     0.18416   0.61476   0.41577   0.00000  Uiso   1.00
C278   C     0.11885   0.63196   0.40144   0.00000  Uiso   1.00
C279   C     0.11724   0.65967   0.34040   0.00000  Uiso   1.00
C280   C     0.05226   0.67166   0.33752   0.00000  Uiso   1.00
C281   C     0.96014   0.70066   0.30672   0.00000  Uiso   1.00
C282   C     0.17506   0.53981   0.43416   0.00000  Uiso   1.00
C283   C     0.22073   0.49004   0.40063   0.00000  Uiso   1.00
C284   C     0.20307   0.42446   0.42530   0.00000  Uiso   1.00
C285   C     0.19826   0.31039   0.44533   0.00000  Uiso   1.00
C286   C     0.18145   0.65332   0.48258   0.00000  Uiso   1.00
C287   C     0.23249   0.69898   0.48977   0.00000  Uiso   1.00
C288   C     0.22022   0.72895   0.55522   0.00000  Uiso   1.00
C289   C     0.22532   0.79113   0.65043   0.00000  Uiso   1.00
C290   C     0.07163   0.58678   0.51922   0.00000  Uiso   1.00
C291   C     0.05773   0.61676   0.45763   0.00000  Uiso   1.00
C292   C     0.99273   0.62872   0.45485   0.00000  Uiso   1.00
C293   C     0.99103   0.65644   0.39381   0.00000  Uiso   1.00
C294   C     0.11394   0.52461   0.49035   0.00000  Uiso   1.00
C295   C     0.09622   0.45909   0.51508   0.00000  Uiso   1.00
C296   C     0.14184   0.40923   0.48159   0.00000  Uiso   1.00
C297   C     0.12033   0.63812   0.53877   0.00000  Uiso   1.00
C298   C     0.10798   0.66802   0.60423   0.00000  Uiso   1.00
C299   C     0.15899   0.71372   0.61151   0.00000  Uiso   1.00
H300   H     0.23175   0.62658   0.37202   0.00000  Uiso   1.00
H301   H     0.16455   0.67142   0.29692   0.00000  Uiso   1.00
H302   H     0.26803   0.50182   0.35715   0.00000  Uiso   1.00
H303   H     0.27978   0.71072   0.44628   0.00000  Uiso   1.00
H304   H     0.06309   0.71440   0.23843   0.00000  Uiso   1.00
H305   H     0.28129   0.35679   0.36544   0.00000  Uiso   1.00
H306   H     0.30608   0.79731   0.55339   0.00000  Uiso   1.00
H307   H     0.02404   0.57494   0.56296   0.00000  Uiso   1.00
H308   H     0.94544   0.61695   0.49834   0.00000  Uiso   1.00
H309   H     0.04892   0.44735   0.55857   0.00000  Uiso   1.00
H310   H     0.06067   0.65625   0.64770   0.00000  Uiso   1.00
H311   H     0.88526   0.67019   0.40191   0.00000  Uiso   1.00
H312   H     0.10345   0.31258   0.52892   0.00000  Uiso   1.00
H313   H     0.12824   0.75310   0.71686   0.00000  Uiso   1.00
O314   O     0.92622   0.72084   0.27420   0.00000  Uiso   1.00
O315   O     0.21249   0.25167   0.44085   0.00000  Uiso   1.00
O316   O     0.24501   0.82963   0.68742   0.00000  Uiso   1.00
N317   N     0.03203   0.69825   0.28578   0.00000  Uiso   1.00
N318   N     0.23602   0.36390   0.40452   0.00000  Uiso   1.00
N319   N     0.25921   0.77573   0.58024   0.00000  Uiso   1.00
N320   N     0.93633   0.67446   0.37374   0.00000  Uiso   1.00
N321   N     0.14033   0.34011   0.49249   0.00000  Uiso   1.00
N322   N     0.16352   0.75195   0.66820   0.00000  Uiso   1.00
C323   C     0.42340   0.28165   0.63975   0.00000  Uiso   1.00
C324   C     0.37851   0.21601   0.65622   0.00000  Uiso   1.00
C325   C     0.32084   0.20406   0.71585   0.00000  Uiso   1.00
C326   C     0.28678   0.14070   0.72112   0.00000  Uiso   1.00
C327   C     0.21358   0.04633   0.75466   0.00000  Uiso   1.00
C328   C     0.42295   0.30438   0.56918   0.00000  Uiso   1.00
C329   C     0.40266   0.36674   0.55563   0.00000  Uiso   1.00
C330   C     0.40602   0.37776   0.48763   0.00000  Uiso   1.00
C331   C     0.40187   0.42061   0.38602   0.00000  Uiso   1.00
C332   C     0.49755   0.26200   0.62760   0.00000  Uiso   1.00
C333   C     0.53999   0.28874   0.66316   0.00000  Uiso   1.00
C334   C     0.60617   0.26411   0.64433   0.00000  Uiso   1.00
C335   C     0.71784   0.24116   0.63344   0.00000  Uiso   1.00
C336   C     0.46547   0.19036   0.54305   0.00000  Uiso   1.00
C337   C     0.40136   0.16642   0.60369   0.00000  Uiso   1.00
C338   C     0.36738   0.10306   0.60887   0.00000  Uiso   1.00
C339   C     0.30967   0.09102   0.66851   0.00000  Uiso   1.00
C340   C     0.44580   0.25480   0.51665   0.00000  Uiso   1.00
C341   C     0.44920   0.26574   0.44865   0.00000  Uiso   1.00
C342   C     0.42891   0.32809   0.43501   0.00000  Uiso   1.00
C343   C     0.52040   0.21242   0.57508   0.00000  Uiso   1.00
C344   C     0.58653   0.18774   0.55618   0.00000  Uiso   1.00
C345   C     0.62906   0.21444   0.59171   0.00000  Uiso   1.00
H346   H     0.40561   0.32025   0.68064   0.00000  Uiso   1.00
H347   H     0.30316   0.24245   0.75649   0.00000  Uiso   1.00
H348   H     0.38498   0.40510   0.59629   0.00000  Uiso   1.00
H349   H     0.52229   0.32711   0.70381   0.00000  Uiso   1.00
H350   H     0.19965   0.13433   0.81740   0.00000  Uiso   1.00
H351   H     0.37219   0.47730   0.47961   0.00000  Uiso   1.00
H352   H     0.66173   0.31285   0.70633   0.00000  Uiso   1.00
H353   H     0.48326   0.15176   0.50216   0.00000  Uiso   1.00
H354   H     0.38508   0.06470   0.56821   0.00000  Uiso   1.00
H355   H     0.46689   0.22736   0.40802   0.00000  Uiso   1.00
H356   H     0.60420   0.14937   0.51553   0.00000  Uiso   1.00
H357   H     0.26613   0.99006   0.66459   0.00000  Uiso   1.00
H358   H     0.43867   0.33304   0.32680   0.00000  Uiso   1.00
H359   H     0.72821   0.16859   0.55352   0.00000  Uiso   1.00
O360   O     0.16689   0.00797   0.78766   0.00000  Uiso   1.00
O361   O     0.39326   0.45794   0.34449   0.00000  Uiso   1.00
O362   O     0.77313   0.24220   0.64194   0.00000  Uiso   1.00
N363   N     0.22878   0.11232   0.77238   0.00000  Uiso   1.00
N364   N     0.39008   0.43297   0.45657   0.00000  Uiso   1.00
N365   N     0.66078   0.27924   0.66852   0.00000  Uiso   1.00
N366   N     0.26455   0.03469   0.69015   0.00000  Uiso   1.00
N367   N     0.42585   0.35534   0.37434   0.00000  Uiso   1.00
N368   N     0.69655   0.20162   0.58629   0.00000  Uiso   1.00
C369   C     0.48455   0.47678   0.16425   0.00000  Uiso   1.00
C370   C     0.52458   0.42415   0.11140   0.00000  Uiso   1.00
C371   C     0.54613   0.36341   0.12739   0.00000  Uiso   1.00
C372   C     0.58209   0.32219   0.07157   0.00000  Uiso   1.00
C373   C     0.64211   0.23757   0.00005   0.00000  Uiso   1.00
C374   C     0.41860   0.48689   0.14803   0.00000  Uiso   1.00
C375   C     0.35104   0.47891   0.19483   0.00000  Uiso   1.00
C376   C     0.29778   0.49050   0.16984   0.00000  Uiso   1.00
C377   C     0.19326   0.50333   0.15521   0.00000  Uiso   1.00
C378   C     0.52796   0.54315   0.14589   0.00000  Uiso   1.00
C379   C     0.55235   0.58249   0.19089   0.00000  Uiso   1.00
C380   C     0.59116   0.64147   0.16411   0.00000  Uiso   1.00
C381   C     0.65644   0.74166   0.14616   0.00000  Uiso   1.00
C382   C     0.51009   0.51157   0.03668   0.00000  Uiso   1.00
C383   C     0.53845   0.44305   0.04211   0.00000  Uiso   1.00
C384   C     0.57439   0.40190   0.98625   0.00000  Uiso   1.00
C385   C     0.59599   0.34111   0.00216   0.00000  Uiso   1.00
C386   C     0.43247   0.50578   0.07875   0.00000  Uiso   1.00
C387   C     0.37930   0.51739   0.05369   0.00000  Uiso   1.00
C388   C     0.31168   0.50943   0.10043   0.00000  Uiso   1.00
C389   C     0.54184   0.56205   0.07660   0.00000  Uiso   1.00
C390   C     0.58061   0.62098   0.04975   0.00000  Uiso   1.00
C391   C     0.60505   0.66040   0.09470   0.00000  Uiso   1.00
H392   H     0.47374   0.46207   0.21819   0.00000  Uiso   1.00
H393   H     0.53538   0.34881   0.18102   0.00000  Uiso   1.00
H394   H     0.34032   0.46429   0.24845   0.00000  Uiso   1.00
H395   H     0.54160   0.56785   0.24451   0.00000  Uiso   1.00
H396   H     0.60981   0.23155   0.10925   0.00000  Uiso   1.00
H397   H     0.19852   0.47508   0.25143   0.00000  Uiso   1.00
H398   H     0.62296   0.69346   0.24313   0.00000  Uiso   1.00
H399   H     0.52089   0.52628   0.98274   0.00000  Uiso   1.00
H400   H     0.58512   0.41654   0.93264   0.00000  Uiso   1.00
H401   H     0.39005   0.53202   0.00007   0.00000  Uiso   1.00
H402   H     0.59133   0.63558   0.99613   0.00000  Uiso   1.00
H403   H     0.65018   0.28652   0.90766   0.00000  Uiso   1.00
H404   H     0.23888   0.53005   0.04983   0.00000  Uiso   1.00
H405   H     0.66332   0.74843   0.04153   0.00000  Uiso   1.00
O406   O     0.67138   0.18567   0.97975   0.00000  Uiso   1.00
O407   O     0.13178   0.50518   0.16628   0.00000  Uiso   1.00
O408   O     0.68863   0.79170   0.15539   0.00000  Uiso   1.00
N409   N     0.61051   0.25955   0.06868   0.00000  Uiso   1.00
N410   N     0.22597   0.48723   0.20160   0.00000  Uiso   1.00
N411   N     0.62277   0.69141   0.19385   0.00000  Uiso   1.00
N412   N     0.63223   0.28913   0.96020   0.00000  Uiso   1.00
N413   N     0.24770   0.51681   0.09313   0.00000  Uiso   1.00
N414   N     0.64449   0.72099   0.08537   0.00000  Uiso   1.00
C415   C     0.60830   0.89761   0.98888   0.00000  Uiso   1.00
C416   C     0.55234   0.94447   0.03266   0.00000  Uiso   1.00
C417   C     0.49687   0.92642   0.09230   0.00000  Uiso   1.00
C418   C     0.45133   0.97663   0.12487   0.00000  Uiso   1.00
C419   C     0.36295   0.03935   0.19681   0.00000  Uiso   1.00
C420   C     0.60712   0.89972   0.91463   0.00000  Uiso   1.00
C421   C     0.59772   0.84406   0.87502   0.00000  Uiso   1.00
C422   C     0.59830   0.85660   0.80823   0.00000  Uiso   1.00
C423   C     0.59502   0.84986   0.69690   0.00000  Uiso   1.00
C424   C     0.67760   0.93175   0.98631   0.00000  Uiso   1.00
C425   C     0.72748   0.90300   0.00696   0.00000  Uiso   1.00
C426   C     0.78741   0.94251   0.00051   0.00000  Uiso   1.00
C427   C     0.89357   0.98548   0.00048   0.00000  Uiso   1.00
C428   C     0.62605   0.01887   0.94067   0.00000  Uiso   1.00
C429   C     0.56198   0.01033   0.00647   0.00000  Uiso   1.00
C430   C     0.51652   0.06058   0.03897   0.00000  Uiso   1.00
C431   C     0.46099   0.04261   0.09864   0.00000  Uiso   1.00
C432   C     0.61676   0.96558   0.88844   0.00000  Uiso   1.00
C433   C     0.61736   0.97822   0.82169   0.00000  Uiso   1.00
C434   C     0.60796   0.92258   0.78200   0.00000  Uiso   1.00
C435   C     0.68725   0.99761   0.96013   0.00000  Uiso   1.00
C436   C     0.74712   0.03716   0.95363   0.00000  Uiso   1.00
C437   C     0.79707   0.00849   0.97427   0.00000  Uiso   1.00
H438   H     0.60079   0.84634   0.00926   0.00000  Uiso   1.00
H439   H     0.48942   0.87544   0.11254   0.00000  Uiso   1.00
H440   H     0.59026   0.79309   0.89529   0.00000  Uiso   1.00
H441   H     0.71999   0.85203   0.02722   0.00000  Uiso   1.00
H442   H     0.37019   0.93675   0.21549   0.00000  Uiso   1.00
H443   H     0.58284   0.76311   0.75740   0.00000  Uiso   1.00
H444   H     0.85641   0.88739   0.03559   0.00000  Uiso   1.00
H445   H     0.63356   0.07015   0.92029   0.00000  Uiso   1.00
H446   H     0.52399   0.11154   0.01869   0.00000  Uiso   1.00
H447   H     0.62483   0.02919   0.80144   0.00000  Uiso   1.00
H448   H     0.75456   0.08813   0.93337   0.00000  Uiso   1.00
H449   H     0.39825   0.12838   0.13931   0.00000  Uiso   1.00
H450   H     0.61090   0.95474   0.68123   0.00000  Uiso   1.00
H451   H     0.88447   0.07902   0.95942   0.00000  Uiso   1.00
O452   O     0.31154   0.05575   0.24372   0.00000  Uiso   1.00
O453   O     0.59054   0.82794   0.64273   0.00000  Uiso   1.00
O454   O     0.94945   0.99099   0.00771   0.00000  Uiso   1.00
N455   N     0.39184   0.97617   0.18406   0.00000  Uiso   1.00
N456   N     0.59064   0.81383   0.75579   0.00000  Uiso   1.00
N457   N     0.84641   0.93002   0.01585   0.00000  Uiso   1.00
N458   N     0.40694   0.07929   0.14308   0.00000  Uiso   1.00
N459   N     0.60574   0.91694   0.71480   0.00000  Uiso   1.00
N460   N     0.86151   0.03313   0.97486   0.00000  Uiso   1.00
C461   C     0.97786   0.12362   0.62675   0.00000  Uiso   1.00
C462   C     0.97425   0.13919   0.55537   0.00000  Uiso   1.00
C463   C     0.91956   0.16872   0.54361   0.00000  Uiso   1.00
C464   C     0.92620   0.17873   0.47448   0.00000  Uiso   1.00
C465   C     0.91157   0.20575   0.37207   0.00000  Uiso   1.00
C466   C     0.98966   0.04798   0.62548   0.00000  Uiso   1.00
C467   C     0.94793   0.00084   0.67266   0.00000  Uiso   1.00
C468   C     0.96756   0.93408   0.66255   0.00000  Uiso   1.00
C469   C     0.97688   0.81950   0.66901   0.00000  Uiso   1.00
C470   C     0.04440   0.15987   0.62959   0.00000  Uiso   1.00
C471   C     0.04869   0.20679   0.68024   0.00000  Uiso   1.00
C472   C     0.11440   0.23422   0.67360   0.00000  Uiso   1.00
C473   C     0.20870   0.29338   0.68645   0.00000  Uiso   1.00
C474   C     0.08691   0.08888   0.52490   0.00000  Uiso   1.00
C475   C     0.03348   0.12032   0.50006   0.00000  Uiso   1.00
C476   C     0.04021   0.13029   0.43093   0.00000  Uiso   1.00
C477   C     0.98554   0.15984   0.41906   0.00000  Uiso   1.00
C478   C     0.04889   0.02912   0.57016   0.00000  Uiso   1.00
C479   C     0.06859   0.96241   0.55998   0.00000  Uiso   1.00
C480   C     0.02690   0.91517   0.60713   0.00000  Uiso   1.00
C481   C     0.10363   0.14101   0.57427   0.00000  Uiso   1.00
C482   C     0.16934   0.16837   0.56756   0.00000  Uiso   1.00
C483   C     0.17374   0.21532   0.61818   0.00000  Uiso   1.00
H484   H     0.93175   0.13830   0.66981   0.00000  Uiso   1.00
H485   H     0.87372   0.18331   0.58643   0.00000  Uiso   1.00
H486   H     0.90210   0.01545   0.71547   0.00000  Uiso   1.00
H487   H     0.00284   0.22138   0.72304   0.00000  Uiso   1.00
H488   H     0.83551   0.22486   0.46959   0.00000  Uiso   1.00
H489   H     0.89536   0.87094   0.74168   0.00000  Uiso   1.00
H490   H     0.10779   0.30517   0.75766   0.00000  Uiso   1.00
H491   H     0.13303   0.07420   0.48183   0.00000  Uiso   1.00
H492   H     0.08605   0.11569   0.38813   0.00000  Uiso   1.00
H493   H     0.11443   0.94783   0.51717   0.00000  Uiso   1.00
H494   H     0.21517   0.15376   0.52474   0.00000  Uiso   1.00
H495   H     0.00784   0.16998   0.30864   0.00000  Uiso   1.00
H496   H     0.06769   0.81605   0.58074   0.00000  Uiso   1.00
H497   H     0.28012   0.25029   0.59671   0.00000  Uiso   1.00
O498   O     0.88713   0.22585   0.33086   0.00000  Uiso   1.00
O499   O     0.96566   0.76152   0.68785   0.00000  Uiso   1.00
O500   O     0.24436   0.33122   0.70881   0.00000  Uiso   1.00
N501   N     0.88252   0.20626   0.44457   0.00000  Uiso   1.00
N502   N     0.93847   0.87536   0.69896   0.00000  Uiso   1.00
N503   N     0.13707   0.28132   0.71390   0.00000  Uiso   1.00
N504   N     0.97525   0.17673   0.35796   0.00000  Uiso   1.00
N505   N     0.03120   0.84583   0.61235   0.00000  Uiso   1.00
N506   N     0.22980   0.25179   0.62730   0.00000  Uiso   1.00
C507   C     0.21403   0.76982   0.84774   0.00000  Uiso   1.00
C508   C     0.22866   0.70797   0.79902   0.00000  Uiso   1.00
C509   C     0.28705   0.70045   0.73966   0.00000  Uiso   1.00
C510   C     0.29072   0.64005   0.70208   0.00000  Uiso   1.00
C511   C     0.32146   0.55178   0.62320   0.00000  Uiso   1.00
C512   C     0.14369   0.79350   0.85031   0.00000  Uiso   1.00
C513   C     0.13065   0.85790   0.83409   0.00000  Uiso   1.00
C514   C     0.06279   0.86950   0.83970   0.00000  Uiso   1.00
C515   C     0.96161   0.91404   0.84050   0.00000  Uiso   1.00
C516   C     0.20304   0.74365   0.92050   0.00000  Uiso   1.00
C517   C     0.23988   0.76613   0.96329   0.00000  Uiso   1.00
C518   C     0.22198   0.73577   0.02801   0.00000  Uiso   1.00
C519   C     0.21295   0.70290   0.13778   0.00000  Uiso   1.00
C520   C     0.11671   0.67593   0.88657   0.00000  Uiso   1.00
C521   C     0.17580   0.65697   0.82011   0.00000  Uiso   1.00
C522   C     0.17938   0.59656   0.78262   0.00000  Uiso   1.00
C523   C     0.23777   0.58895   0.72321   0.00000  Uiso   1.00
C524   C     0.09084   0.74251   0.87140   0.00000  Uiso   1.00
C525   C     0.02298   0.75401   0.87704   0.00000  Uiso   1.00
C526   C     0.00984   0.81841   0.86083   0.00000  Uiso   1.00
C527   C     0.15018   0.69265   0.94159   0.00000  Uiso   1.00
C528   C     0.13222   0.66225   0.00625   0.00000  Uiso   1.00
C529   C     0.16903   0.68468   0.04913   0.00000  Uiso   1.00
H530   H     0.25518   0.80953   0.83132   0.00000  Uiso   1.00
H531   H     0.32794   0.73993   0.72335   0.00000  Uiso   1.00
H532   H     0.17156   0.89735   0.81778   0.00000  Uiso   1.00
H533   H     0.28078   0.80560   0.94696   0.00000  Uiso   1.00
H534   H     0.38529   0.64029   0.61293   0.00000  Uiso   1.00
H535   H     0.05555   0.97223   0.81205   0.00000  Uiso   1.00
H536   H     0.28586   0.77875   0.08446   0.00000  Uiso   1.00
H537   H     0.07556   0.63622   0.90299   0.00000  Uiso   1.00
H538   H     0.13847   0.55711   0.79895   0.00000  Uiso   1.00
H539   H     0.98209   0.71454   0.89337   0.00000  Uiso   1.00
H540   H     0.09131   0.62278   0.02255   0.00000  Uiso   1.00
H541   H     0.23150   0.49190   0.67429   0.00000  Uiso   1.00
H542   H     0.90177   0.82385   0.87341   0.00000  Uiso   1.00
H543   H     0.13208   0.63037   0.14581   0.00000  Uiso   1.00
O544   O     0.35301   0.51719   0.57386   0.00000  Uiso   1.00
O545   O     0.92041   0.95269   0.83511   0.00000  Uiso   1.00
O546   O     0.22257   0.69885   0.19250   0.00000  Uiso   1.00
N547   N     0.34047   0.61621   0.64166   0.00000  Uiso   1.00
N548   N     0.03219   0.92656   0.82781   0.00000  Uiso   1.00
N549   N     0.24750   0.74569   0.08250   0.00000  Uiso   1.00
N550   N     0.25772   0.53637   0.67467   0.00000  Uiso   1.00
N551   N     0.94944   0.84672   0.86082   0.00000  Uiso   1.00
N552   N     0.16475   0.66585   0.11551   0.00000  Uiso   1.00
