data_job_03999
_audit_creation_date              2018-12-19
_audit_creation_method            'Materials Studio'
_symmetry_space_group_name_H-M    'P1'
_symmetry_Int_Tables_number       1
_symmetry_cell_setting            triclinic
loop_
_symmetry_equiv_pos_as_xyz
  x,y,z
_cell_length_a                    12.4403
_cell_length_b                    21.3647
_cell_length_c                    21.1648
_cell_angle_alpha                 90.0000
_cell_angle_beta                  110.5099
_cell_angle_gamma                 90.0000
loop_
_atom_site_label
_atom_site_type_symbol
_atom_site_fract_x
_atom_site_fract_y
_atom_site_fract_z
_atom_site_U_iso_or_equiv
_atom_site_adp_type
_atom_site_occupancy
C1     C     0.77019   0.37179   0.31096   0.00000  Uiso   1.00
C2     C     0.76738   0.43686   0.33994   0.00000  Uiso   1.00
C3     C     0.75683   0.49289   0.30511   0.00000  Uiso   1.00
C4     C     0.75602   0.54744   0.34060   0.00000  Uiso   1.00
C5     C     0.75028   0.64871   0.37528   0.00000  Uiso   1.00
C6     C     0.88160   0.34161   0.35631   0.00000  Uiso   1.00
C7     C     0.96707   0.31755   0.33524   0.00000  Uiso   1.00
C8     C     0.06240   0.29189   0.38451   0.00000  Uiso   1.00
C9     C     0.23394   0.24525   0.44460   0.00000  Uiso   1.00
C10    C     0.67349   0.33499   0.32229   0.00000  Uiso   1.00
C11    C     0.58398   0.30533   0.27262   0.00000  Uiso   1.00
C12    C     0.50411   0.27409   0.29326   0.00000  Uiso   1.00
C13    C     0.35253   0.21716   0.30052   0.00000  Uiso   1.00
C14    C     0.78752   0.36901   0.43595   0.00000  Uiso   1.00
C15    C     0.77679   0.43536   0.40783   0.00000  Uiso   1.00
C16    C     0.77599   0.48983   0.44338   0.00000  Uiso   1.00
C17    C     0.76544   0.54593   0.40861   0.00000  Uiso   1.00
C18    C     0.89101   0.34010   0.42419   0.00000  Uiso   1.00
C19    C     0.98623   0.31448   0.47351   0.00000  Uiso   1.00
C20    C     0.07182   0.29039   0.45252   0.00000  Uiso   1.00
C21    C     0.68289   0.33348   0.39018   0.00000  Uiso   1.00
C22    C     0.60315   0.30227   0.41090   0.00000  Uiso   1.00
C23    C     0.51354   0.27258   0.36127   0.00000  Uiso   1.00
H24    H     0.76288   0.37296   0.25811   0.00000  Uiso   1.00
H25    H     0.74956   0.49404   0.25257   0.00000  Uiso   1.00
H26    H     0.95976   0.31871   0.28270   0.00000  Uiso   1.00
H27    H     0.57673   0.30651   0.22009   0.00000  Uiso   1.00
H28    H     0.73899   0.62762   0.27637   0.00000  Uiso   1.00
H29    H     0.18218   0.25791   0.33989   0.00000  Uiso   1.00
H30    H     0.37450   0.23218   0.20787   0.00000  Uiso   1.00
H31    H     0.79484   0.36784   0.48880   0.00000  Uiso   1.00
H32    H     0.78328   0.48865   0.49592   0.00000  Uiso   1.00
H33    H     0.99348   0.31332   0.52604   0.00000  Uiso   1.00
H34    H     0.61045   0.30112   0.46343   0.00000  Uiso   1.00
H35    H     0.76636   0.62324   0.47388   0.00000  Uiso   1.00
H36    H     0.20955   0.25353   0.53740   0.00000  Uiso   1.00
H37    H     0.40187   0.22780   0.40538   0.00000  Uiso   1.00
O38    O     0.74453   0.70499   0.37565   0.00000  Uiso   1.00
O39    O     0.32597   0.21994   0.45898   0.00000  Uiso   1.00
O40    O     0.26631   0.18618   0.28578   0.00000  Uiso   1.00
N41    N     0.74700   0.61001   0.32188   0.00000  Uiso   1.00
N42    N     0.16136   0.26437   0.38126   0.00000  Uiso   1.00
N43    N     0.40626   0.24029   0.25784   0.00000  Uiso   1.00
N44    N     0.76172   0.60766   0.42815   0.00000  Uiso   1.00
N45    N     0.17609   0.26201   0.48754   0.00000  Uiso   1.00
N46    N     0.42099   0.23794   0.36412   0.00000  Uiso   1.00
C47    C     0.22981   0.87179   0.18904   0.00000  Uiso   1.00
C48    C     0.23262   0.93686   0.16006   0.00000  Uiso   1.00
C49    C     0.24317   0.99289   0.19489   0.00000  Uiso   1.00
C50    C     0.24398   0.04744   0.15940   0.00000  Uiso   1.00
C51    C     0.24972   0.14871   0.12472   0.00000  Uiso   1.00
C52    C     0.11840   0.84161   0.14369   0.00000  Uiso   1.00
C53    C     0.03293   0.81755   0.16476   0.00000  Uiso   1.00
C54    C     0.93760   0.79189   0.11549   0.00000  Uiso   1.00
C55    C     0.76606   0.74525   0.05540   0.00000  Uiso   1.00
C56    C     0.32651   0.83499   0.17771   0.00000  Uiso   1.00
C57    C     0.41602   0.80533   0.22738   0.00000  Uiso   1.00
C58    C     0.49589   0.77409   0.20674   0.00000  Uiso   1.00
C59    C     0.64747   0.71716   0.19948   0.00000  Uiso   1.00
C60    C     0.21248   0.86901   0.06405   0.00000  Uiso   1.00
C61    C     0.22321   0.93536   0.09217   0.00000  Uiso   1.00
C62    C     0.22401   0.98983   0.05662   0.00000  Uiso   1.00
C63    C     0.23456   0.04593   0.09139   0.00000  Uiso   1.00
C64    C     0.10899   0.84010   0.07581   0.00000  Uiso   1.00
C65    C     0.01377   0.81448   0.02649   0.00000  Uiso   1.00
C66    C     0.92818   0.79039   0.04748   0.00000  Uiso   1.00
C67    C     0.31711   0.83348   0.10982   0.00000  Uiso   1.00
C68    C     0.39685   0.80227   0.08910   0.00000  Uiso   1.00
C69    C     0.48646   0.77258   0.13873   0.00000  Uiso   1.00
H70    H     0.23712   0.87296   0.24189   0.00000  Uiso   1.00
H71    H     0.25044   0.99404   0.24743   0.00000  Uiso   1.00
H72    H     0.04024   0.81871   0.21730   0.00000  Uiso   1.00
H73    H     0.42327   0.80651   0.27991   0.00000  Uiso   1.00
H74    H     0.26101   0.12762   0.22363   0.00000  Uiso   1.00
H75    H     0.81782   0.75791   0.16011   0.00000  Uiso   1.00
H76    H     0.62550   0.73218   0.29213   0.00000  Uiso   1.00
H77    H     0.20516   0.86784   0.01120   0.00000  Uiso   1.00
H78    H     0.21672   0.98865   0.00408   0.00000  Uiso   1.00
H79    H     0.00652   0.81332   0.97396   0.00000  Uiso   1.00
H80    H     0.38955   0.80112   0.03657   0.00000  Uiso   1.00
H81    H     0.23364   0.12324   0.02612   0.00000  Uiso   1.00
H82    H     0.79045   0.75353   0.96260   0.00000  Uiso   1.00
H83    H     0.59813   0.72780   0.09462   0.00000  Uiso   1.00
O84    O     0.25547   0.20499   0.12435   0.00000  Uiso   1.00
O85    O     0.67403   0.71994   0.04102   0.00000  Uiso   1.00
O86    O     0.73369   0.68618   0.21422   0.00000  Uiso   1.00
N87    N     0.25300   0.11001   0.17812   0.00000  Uiso   1.00
N88    N     0.83864   0.76437   0.11874   0.00000  Uiso   1.00
N89    N     0.59374   0.74029   0.24216   0.00000  Uiso   1.00
N90    N     0.23828   0.10766   0.07185   0.00000  Uiso   1.00
N91    N     0.82391   0.76201   0.01246   0.00000  Uiso   1.00
N92    N     0.57901   0.73794   0.13588   0.00000  Uiso   1.00
C93    C     0.22981   0.62821   0.68904   0.00000  Uiso   1.00
C94    C     0.23262   0.56314   0.66006   0.00000  Uiso   1.00
C95    C     0.24317   0.50711   0.69489   0.00000  Uiso   1.00
C96    C     0.24398   0.45256   0.65940   0.00000  Uiso   1.00
C97    C     0.24972   0.35129   0.62472   0.00000  Uiso   1.00
C98    C     0.11840   0.65839   0.64369   0.00000  Uiso   1.00
C99    C     0.03293   0.68245   0.66476   0.00000  Uiso   1.00
C100   C     0.93760   0.70811   0.61549   0.00000  Uiso   1.00
C101   C     0.76606   0.75475   0.55540   0.00000  Uiso   1.00
C102   C     0.32651   0.66501   0.67771   0.00000  Uiso   1.00
C103   C     0.41602   0.69467   0.72738   0.00000  Uiso   1.00
C104   C     0.49589   0.72591   0.70674   0.00000  Uiso   1.00
C105   C     0.64747   0.78284   0.69948   0.00000  Uiso   1.00
C106   C     0.21248   0.63099   0.56405   0.00000  Uiso   1.00
C107   C     0.22321   0.56464   0.59217   0.00000  Uiso   1.00
C108   C     0.22401   0.51017   0.55662   0.00000  Uiso   1.00
C109   C     0.23456   0.45407   0.59139   0.00000  Uiso   1.00
C110   C     0.10899   0.65990   0.57581   0.00000  Uiso   1.00
C111   C     0.01377   0.68552   0.52649   0.00000  Uiso   1.00
C112   C     0.92818   0.70961   0.54748   0.00000  Uiso   1.00
C113   C     0.31711   0.66652   0.60982   0.00000  Uiso   1.00
C114   C     0.39685   0.69773   0.58910   0.00000  Uiso   1.00
C115   C     0.48646   0.72742   0.63873   0.00000  Uiso   1.00
H116   H     0.23712   0.62704   0.74189   0.00000  Uiso   1.00
H117   H     0.25044   0.50596   0.74743   0.00000  Uiso   1.00
H118   H     0.04024   0.68129   0.71730   0.00000  Uiso   1.00
H119   H     0.42327   0.69349   0.77991   0.00000  Uiso   1.00
H120   H     0.26101   0.37238   0.72363   0.00000  Uiso   1.00
H121   H     0.81782   0.74209   0.66011   0.00000  Uiso   1.00
H122   H     0.62550   0.76782   0.79213   0.00000  Uiso   1.00
H123   H     0.20516   0.63216   0.51120   0.00000  Uiso   1.00
H124   H     0.21672   0.51135   0.50408   0.00000  Uiso   1.00
H125   H     0.00652   0.68668   0.47396   0.00000  Uiso   1.00
H126   H     0.38955   0.69888   0.53657   0.00000  Uiso   1.00
H127   H     0.23364   0.37676   0.52612   0.00000  Uiso   1.00
H128   H     0.79045   0.74647   0.46260   0.00000  Uiso   1.00
H129   H     0.59813   0.77220   0.59462   0.00000  Uiso   1.00
O130   O     0.25547   0.29501   0.62435   0.00000  Uiso   1.00
O131   O     0.67403   0.78006   0.54102   0.00000  Uiso   1.00
O132   O     0.73369   0.81382   0.71422   0.00000  Uiso   1.00
N133   N     0.25300   0.38999   0.67812   0.00000  Uiso   1.00
N134   N     0.83864   0.73563   0.61874   0.00000  Uiso   1.00
N135   N     0.59374   0.75971   0.74216   0.00000  Uiso   1.00
N136   N     0.23828   0.39234   0.57185   0.00000  Uiso   1.00
N137   N     0.82391   0.73799   0.51246   0.00000  Uiso   1.00
N138   N     0.57901   0.76206   0.63588   0.00000  Uiso   1.00
C139   C     0.77019   0.12821   0.81096   0.00000  Uiso   1.00
C140   C     0.76738   0.06314   0.83994   0.00000  Uiso   1.00
C141   C     0.75683   0.00711   0.80511   0.00000  Uiso   1.00
C142   C     0.75602   0.95256   0.84060   0.00000  Uiso   1.00
C143   C     0.75028   0.85129   0.87528   0.00000  Uiso   1.00
C144   C     0.88160   0.15839   0.85631   0.00000  Uiso   1.00
C145   C     0.96707   0.18245   0.83524   0.00000  Uiso   1.00
C146   C     0.06240   0.20811   0.88451   0.00000  Uiso   1.00
C147   C     0.23394   0.25475   0.94460   0.00000  Uiso   1.00
C148   C     0.67349   0.16501   0.82229   0.00000  Uiso   1.00
C149   C     0.58398   0.19467   0.77262   0.00000  Uiso   1.00
C150   C     0.50411   0.22591   0.79326   0.00000  Uiso   1.00
C151   C     0.35253   0.28284   0.80052   0.00000  Uiso   1.00
C152   C     0.78752   0.13099   0.93595   0.00000  Uiso   1.00
C153   C     0.77679   0.06464   0.90783   0.00000  Uiso   1.00
C154   C     0.77599   0.01017   0.94338   0.00000  Uiso   1.00
C155   C     0.76544   0.95407   0.90861   0.00000  Uiso   1.00
C156   C     0.89101   0.15990   0.92419   0.00000  Uiso   1.00
C157   C     0.98623   0.18552   0.97351   0.00000  Uiso   1.00
C158   C     0.07182   0.20961   0.95252   0.00000  Uiso   1.00
C159   C     0.68289   0.16652   0.89018   0.00000  Uiso   1.00
C160   C     0.60315   0.19773   0.91090   0.00000  Uiso   1.00
C161   C     0.51354   0.22742   0.86127   0.00000  Uiso   1.00
H162   H     0.76288   0.12704   0.75811   0.00000  Uiso   1.00
H163   H     0.74956   0.00596   0.75257   0.00000  Uiso   1.00
H164   H     0.95976   0.18129   0.78270   0.00000  Uiso   1.00
H165   H     0.57673   0.19349   0.72009   0.00000  Uiso   1.00
H166   H     0.73899   0.87238   0.77637   0.00000  Uiso   1.00
H167   H     0.18218   0.24209   0.83989   0.00000  Uiso   1.00
H168   H     0.37450   0.26782   0.70787   0.00000  Uiso   1.00
H169   H     0.79484   0.13216   0.98880   0.00000  Uiso   1.00
H170   H     0.78328   0.01135   0.99592   0.00000  Uiso   1.00
H171   H     0.99348   0.18668   0.02604   0.00000  Uiso   1.00
H172   H     0.61045   0.19888   0.96343   0.00000  Uiso   1.00
H173   H     0.76636   0.87676   0.97388   0.00000  Uiso   1.00
H174   H     0.20955   0.24647   0.03740   0.00000  Uiso   1.00
H175   H     0.40187   0.27220   0.90538   0.00000  Uiso   1.00
O176   O     0.74453   0.79501   0.87565   0.00000  Uiso   1.00
O177   O     0.32597   0.28006   0.95898   0.00000  Uiso   1.00
O178   O     0.26631   0.31382   0.78578   0.00000  Uiso   1.00
N179   N     0.74700   0.88999   0.82188   0.00000  Uiso   1.00
N180   N     0.16136   0.23563   0.88126   0.00000  Uiso   1.00
N181   N     0.40626   0.25971   0.75784   0.00000  Uiso   1.00
N182   N     0.76172   0.89234   0.92815   0.00000  Uiso   1.00
N183   N     0.17609   0.23799   0.98754   0.00000  Uiso   1.00
N184   N     0.42099   0.26206   0.86412   0.00000  Uiso   1.00
