data_job_07031
_audit_creation_date              2018-12-19
_audit_creation_method            'Materials Studio'
_symmetry_space_group_name_H-M    'P1'
_symmetry_Int_Tables_number       1
_symmetry_cell_setting            triclinic
loop_
_symmetry_equiv_pos_as_xyz
  x,y,z
_cell_length_a                    21.9771
_cell_length_b                    23.9803
_cell_length_c                    24.4425
_cell_angle_alpha                 112.0765
_cell_angle_beta                  99.8647
_cell_angle_gamma                 110.3935
loop_
_atom_site_label
_atom_site_type_symbol
_atom_site_fract_x
_atom_site_fract_y
_atom_site_fract_z
_atom_site_U_iso_or_equiv
_atom_site_adp_type
_atom_site_occupancy
C1     C     0.87790   0.65581   0.75951   0.00000  Uiso   1.00
C2     C     0.86835   0.71945   0.78700   0.00000  Uiso   1.00
C3     C     0.88131   0.75886   0.85022   0.00000  Uiso   1.00
C4     C     0.86932   0.81507   0.86584   0.00000  Uiso   1.00
C5     C     0.85811   0.91140   0.91552   0.00000  Uiso   1.00
C6     C     0.80799   0.60019   0.71002   0.00000  Uiso   1.00
C7     C     0.77021   0.53931   0.70851   0.00000  Uiso   1.00
C8     C     0.70741   0.49512   0.65932   0.00000  Uiso   1.00
C9     C     0.60252   0.40628   0.58946   0.00000  Uiso   1.00
C10    C     0.92697   0.66819   0.72348   0.00000  Uiso   1.00
C11    C     0.98923   0.66448   0.73328   0.00000  Uiso   1.00
C12    C     0.02659   0.67753   0.69542   0.00000  Uiso   1.00
C13    C     0.10644   0.69428   0.64646   0.00000  Uiso   1.00
C14    C     0.83355   0.68558   0.67483   0.00000  Uiso   1.00
C15    C     0.84425   0.73561   0.74100   0.00000  Uiso   1.00
C16    C     0.83224   0.79178   0.75653   0.00000  Uiso   1.00
C17    C     0.84519   0.83127   0.81977   0.00000  Uiso   1.00
C18    C     0.78389   0.61635   0.66402   0.00000  Uiso   1.00
C19    C     0.72114   0.57224   0.61482   0.00000  Uiso   1.00
C20    C     0.68327   0.51132   0.61324   0.00000  Uiso   1.00
C21    C     0.90288   0.68436   0.67748   0.00000  Uiso   1.00
C22    C     0.94015   0.69741   0.63959   0.00000  Uiso   1.00
C23    C     0.00246   0.69372   0.64934   0.00000  Uiso   1.00
H24    H     0.89666   0.64322   0.79531   0.00000  Uiso   1.00
H25    H     0.89995   0.74633   0.88580   0.00000  Uiso   1.00
H26    H     0.78888   0.52681   0.74411   0.00000  Uiso   1.00
H27    H     0.00786   0.65197   0.76888   0.00000  Uiso   1.00
H28    H     0.89296   0.86775   0.96583   0.00000  Uiso   1.00
H29    H     0.65875   0.40489   0.66705   0.00000  Uiso   1.00
H30    H     0.12052   0.66879   0.71928   0.00000  Uiso   1.00
H31    H     0.81479   0.69816   0.63902   0.00000  Uiso   1.00
H32    H     0.81359   0.80428   0.72093   0.00000  Uiso   1.00
H33    H     0.70251   0.58477   0.57923   0.00000  Uiso   1.00
H34    H     0.92149   0.70992   0.60400   0.00000  Uiso   1.00
H35    H     0.82286   0.91478   0.83202   0.00000  Uiso   1.00
H36    H     0.58866   0.45192   0.53323   0.00000  Uiso   1.00
H37    H     0.05042   0.71583   0.58547   0.00000  Uiso   1.00
O38    O     0.85858   0.96007   0.95563   0.00000  Uiso   1.00
O39    O     0.55132   0.35281   0.56363   0.00000  Uiso   1.00
O40    O     0.15714   0.69905   0.63216   0.00000  Uiso   1.00
N41    N     0.87664   0.86426   0.92310   0.00000  Uiso   1.00
N42    N     0.65766   0.43152   0.64376   0.00000  Uiso   1.00
N43    N     0.08937   0.67823   0.69258   0.00000  Uiso   1.00
N44    N     0.83892   0.88957   0.85110   0.00000  Uiso   1.00
N45    N     0.61995   0.45683   0.57176   0.00000  Uiso   1.00
N46    N     0.05165   0.70354   0.62058   0.00000  Uiso   1.00
C47    C     0.75767   0.11328   0.11022   0.00000  Uiso   1.00
C48    C     0.79972   0.10868   0.06656   0.00000  Uiso   1.00
C49    C     0.86677   0.11589   0.08199   0.00000  Uiso   1.00
C50    C     0.89624   0.10995   0.03547   0.00000  Uiso   1.00
C51    C     0.96708   0.10476   0.97679   0.00000  Uiso   1.00
C52    C     0.73642   0.16802   0.11250   0.00000  Uiso   1.00
C53    C     0.75024   0.22514   0.16655   0.00000  Uiso   1.00
C54    C     0.72641   0.26915   0.15870   0.00000  Uiso   1.00
C55    C     0.69893   0.35607   0.17134   0.00000  Uiso   1.00
C56    C     0.69103   0.04712   0.07617   0.00000  Uiso   1.00
C57    C     0.66666   0.00258   0.09968   0.00000  Uiso   1.00
C58    C     0.60460   0.94481   0.06125   0.00000  Uiso   1.00
C59    C     0.50664   0.84401   0.01748   0.00000  Uiso   1.00
C60    C     0.69078   0.08988   0.00016   0.00000  Uiso   1.00
C61    C     0.76339   0.09597   0.00678   0.00000  Uiso   1.00
C62    C     0.79277   0.09001   0.96023   0.00000  Uiso   1.00
C63    C     0.85984   0.09721   0.97558   0.00000  Uiso   1.00
C64    C     0.70010   0.15532   0.05272   0.00000  Uiso   1.00
C65    C     0.67624   0.19925   0.04479   0.00000  Uiso   1.00
C66    C     0.69002   0.25642   0.09882   0.00000  Uiso   1.00
C67    C     0.65470   0.03441   0.01639   0.00000  Uiso   1.00
C68    C     0.59266   0.97670   0.97792   0.00000  Uiso   1.00
C69    C     0.56821   0.93208   0.00136   0.00000  Uiso   1.00
H70    H     0.78595   0.12318   0.15676   0.00000  Uiso   1.00
H71    H     0.89487   0.12574   0.12826   0.00000  Uiso   1.00
H72    H     0.77835   0.23495   0.21281   0.00000  Uiso   1.00
H73    H     0.69479   0.01243   0.14594   0.00000  Uiso   1.00
H74    H     0.99961   0.12299   0.07031   0.00000  Uiso   1.00
H75    H     0.75390   0.35327   0.24859   0.00000  Uiso   1.00
H76    H     0.57769   0.88405   0.10759   0.00000  Uiso   1.00
H77    H     0.66250   0.07999   0.95362   0.00000  Uiso   1.00
H78    H     0.76464   0.08017   0.91397   0.00000  Uiso   1.00
H79    H     0.64812   0.18940   0.99852   0.00000  Uiso   1.00
H80    H     0.56456   0.96688   0.93166   0.00000  Uiso   1.00
H81    H     0.89391   0.08601   0.89639   0.00000  Uiso   1.00
H82    H     0.64820   0.31630   0.07466   0.00000  Uiso   1.00
H83    H     0.47200   0.84707   0.93367   0.00000  Uiso   1.00
O84    O     0.01619   0.10542   0.96094   0.00000  Uiso   1.00
O85    O     0.69382   0.40754   0.19483   0.00000  Uiso   1.00
O86    O     0.46265   0.79193   0.00985   0.00000  Uiso   1.00
N87    N     0.96071   0.11425   0.03481   0.00000  Uiso   1.00
N88    N     0.73100   0.32956   0.20149   0.00000  Uiso   1.00
N89    N     0.56625   0.89088   0.06968   0.00000  Uiso   1.00
N90    N     0.90384   0.09435   0.94123   0.00000  Uiso   1.00
N91    N     0.67412   0.30966   0.10790   0.00000  Uiso   1.00
N92    N     0.50938   0.87098   0.97610   0.00000  Uiso   1.00
C93    C     0.30370   0.25237   0.96150   0.00000  Uiso   1.00
C94    C     0.23837   0.18523   0.93014   0.00000  Uiso   1.00
C95    C     0.21554   0.14429   0.95746   0.00000  Uiso   1.00
C96    C     0.15453   0.08485   0.92099   0.00000  Uiso   1.00
C97    C     0.05870   0.98329   0.88164   0.00000  Uiso   1.00
C98    C     0.34616   0.24523   0.91834   0.00000  Uiso   1.00
C99    C     0.41396   0.25476   0.93575   0.00000  Uiso   1.00
C100   C     0.44369   0.24584   0.88935   0.00000  Uiso   1.00
C101   C     0.51522   0.23749   0.83171   0.00000  Uiso   1.00
C102   C     0.28015   0.30418   0.95833   0.00000  Uiso   1.00
C103   C     0.29246   0.36329   0.00936   0.00000  Uiso   1.00
C104   C     0.26662   0.40402   0.99662   0.00000  Uiso   1.00
C105   C     0.23566   0.48720   0.00106   0.00000  Uiso   1.00
C106   C     0.23594   0.21961   0.84813   0.00000  Uiso   1.00
C107   C     0.20157   0.16743   0.86856   0.00000  Uiso   1.00
C108   C     0.14057   0.10804   0.83203   0.00000  Uiso   1.00
C109   C     0.11765   0.06703   0.85930   0.00000  Uiso   1.00
C110   C     0.30936   0.22744   0.85677   0.00000  Uiso   1.00
C111   C     0.33899   0.21851   0.81033   0.00000  Uiso   1.00
C112   C     0.40681   0.22801   0.82766   0.00000  Uiso   1.00
C113   C     0.24334   0.28639   0.89675   0.00000  Uiso   1.00
C114   C     0.21748   0.32704   0.88393   0.00000  Uiso   1.00
C115   C     0.22975   0.38619   0.93493   0.00000  Uiso   1.00
H116   H     0.33236   0.26622   0.00944   0.00000  Uiso   1.00
H117   H     0.24405   0.15808   0.00511   0.00000  Uiso   1.00
H118   H     0.44243   0.26853   0.98341   0.00000  Uiso   1.00
H119   H     0.32095   0.37704   0.05700   0.00000  Uiso   1.00
H120   H     0.12991   0.03032   0.97316   0.00000  Uiso   1.00
H121   H     0.54823   0.26324   0.92740   0.00000  Uiso   1.00
H122   H     0.29206   0.49207   0.08258   0.00000  Uiso   1.00
H123   H     0.20728   0.20575   0.80019   0.00000  Uiso   1.00
H124   H     0.11210   0.09429   0.78438   0.00000  Uiso   1.00
H125   H     0.31049   0.20474   0.76268   0.00000  Uiso   1.00
H126   H     0.18900   0.31326   0.83627   0.00000  Uiso   1.00
H127   H     0.02282   0.97854   0.79400   0.00000  Uiso   1.00
H128   H     0.44114   0.21147   0.74825   0.00000  Uiso   1.00
H129   H     0.18496   0.44029   0.90343   0.00000  Uiso   1.00
O130   O     0.01602   0.93219   0.87695   0.00000  Uiso   1.00
O131   O     0.56484   0.23779   0.81693   0.00000  Uiso   1.00
O132   O     0.22874   0.53799   0.02052   0.00000  Uiso   1.00
N133   N     0.11776   0.03344   0.93317   0.00000  Uiso   1.00
N134   N     0.50886   0.25120   0.89039   0.00000  Uiso   1.00
N135   N     0.26938   0.46514   0.03547   0.00000  Uiso   1.00
N136   N     0.06013   0.00558   0.83677   0.00000  Uiso   1.00
N137   N     0.45124   0.22334   0.79399   0.00000  Uiso   1.00
N138   N     0.21175   0.43728   0.93907   0.00000  Uiso   1.00
C139   C     0.69242   0.93121   0.48072   0.00000  Uiso   1.00
C140   C     0.73678   0.94095   0.44032   0.00000  Uiso   1.00
C141   C     0.79627   0.93225   0.44355   0.00000  Uiso   1.00
C142   C     0.82945   0.94359   0.40255   0.00000  Uiso   1.00
C143   C     0.90220   0.95573   0.34628   0.00000  Uiso   1.00
C144   C     0.61933   0.87946   0.43483   0.00000  Uiso   1.00
C145   C     0.58006   0.81907   0.43346   0.00000  Uiso   1.00
C146   C     0.51437   0.77866   0.38785   0.00000  Uiso   1.00
C147   C     0.40474   0.69536   0.32309   0.00000  Uiso   1.00
C148   C     0.68903   0.99764   0.51317   0.00000  Uiso   1.00
C149   C     0.70835   0.03661   0.57768   0.00000  Uiso   1.00
C150   C     0.70132   0.09570   0.59802   0.00000  Uiso   1.00
C151   C     0.69992   0.19589   0.65490   0.00000  Uiso   1.00
C152   C     0.64557   0.96684   0.40214   0.00000  Uiso   1.00
C153   C     0.71134   0.96030   0.39763   0.00000  Uiso   1.00
C154   C     0.74444   0.97167   0.35662   0.00000  Uiso   1.00
C155   C     0.80397   0.96298   0.35979   0.00000  Uiso   1.00
C156   C     0.59389   0.89881   0.39215   0.00000  Uiso   1.00
C157   C     0.52824   0.85849   0.34653   0.00000  Uiso   1.00
C158   C     0.48888   0.79805   0.34509   0.00000  Uiso   1.00
C159   C     0.66359   0.01700   0.47049   0.00000  Uiso   1.00
C160   C     0.65653   0.07603   0.49074   0.00000  Uiso   1.00
C161   C     0.67584   0.11508   0.55526   0.00000  Uiso   1.00
H162   H     0.71222   0.91614   0.51395   0.00000  Uiso   1.00
H163   H     0.81594   0.91726   0.47659   0.00000  Uiso   1.00
H164   H     0.59976   0.80411   0.46650   0.00000  Uiso   1.00
H165   H     0.72803   0.02162   0.61069   0.00000  Uiso   1.00
H166   H     0.91969   0.92701   0.41632   0.00000  Uiso   1.00
H167   H     0.46386   0.68843   0.39508   0.00000  Uiso   1.00
H168   H     0.73435   0.14709   0.69913   0.00000  Uiso   1.00
H169   H     0.62576   0.98191   0.36891   0.00000  Uiso   1.00
H170   H     0.72474   0.98664   0.32359   0.00000  Uiso   1.00
H171   H     0.50856   0.87348   0.31351   0.00000  Uiso   1.00
H172   H     0.63684   0.09099   0.45770   0.00000  Uiso   1.00
H173   H     0.84568   0.98332   0.29215   0.00000  Uiso   1.00
H174   H     0.38984   0.74474   0.27090   0.00000  Uiso   1.00
H175   H     0.66033   0.20340   0.57495   0.00000  Uiso   1.00
O176   O     0.94934   0.95707   0.32702   0.00000  Uiso   1.00
O177   O     0.35130   0.64406   0.29916   0.00000  Uiso   1.00
O178   O     0.70618   0.24582   0.69806   0.00000  Uiso   1.00
N179   N     0.88870   0.93963   0.39333   0.00000  Uiso   1.00
N180   N     0.46253   0.71656   0.37346   0.00000  Uiso   1.00
N181   N     0.71539   0.14536   0.65772   0.00000  Uiso   1.00
N182   N     0.84887   0.96993   0.32651   0.00000  Uiso   1.00
N183   N     0.42270   0.74686   0.30664   0.00000  Uiso   1.00
N184   N     0.67557   0.17566   0.59090   0.00000  Uiso   1.00
C185   C     0.12196   0.72297   0.18368   0.00000  Uiso   1.00
C186   C     0.09826   0.77480   0.18080   0.00000  Uiso   1.00
C187   C     0.11544   0.83642   0.23117   0.00000  Uiso   1.00
C188   C     0.08854   0.87667   0.21884   0.00000  Uiso   1.00
C189   C     0.05823   0.96031   0.22357   0.00000  Uiso   1.00
C190   C     0.15779   0.71059   0.13529   0.00000  Uiso   1.00
C191   C     0.22504   0.71822   0.14740   0.00000  Uiso   1.00
C192   C     0.24825   0.70441   0.09676   0.00000  Uiso   1.00
C193   C     0.31036   0.68832   0.03083   0.00000  Uiso   1.00
C194   C     0.05615   0.65744   0.15857   0.00000  Uiso   1.00
C195   C     0.03793   0.62035   0.19025   0.00000  Uiso   1.00
C196   C     0.97557   0.56178   0.15920   0.00000  Uiso   1.00
C197   C     0.87986   0.46315   0.12941   0.00000  Uiso   1.00
C198   C     0.04361   0.68489   0.07222   0.00000  Uiso   1.00
C199   C     0.05570   0.75412   0.12026   0.00000  Uiso   1.00
C200   C     0.02876   0.79429   0.10785   0.00000  Uiso   1.00
C201   C     0.04590   0.85595   0.15820   0.00000  Uiso   1.00
C202   C     0.11524   0.68991   0.07475   0.00000  Uiso   1.00
C203   C     0.13835   0.67609   0.02408   0.00000  Uiso   1.00
C204   C     0.20562   0.68369   0.03611   0.00000  Uiso   1.00
C205   C     0.01359   0.63675   0.09803   0.00000  Uiso   1.00
C206   C     0.95125   0.57822   0.06693   0.00000  Uiso   1.00
C207   C     0.93294   0.54106   0.09855   0.00000  Uiso   1.00
H208   H     0.15509   0.73908   0.23081   0.00000  Uiso   1.00
H209   H     0.14838   0.85241   0.27801   0.00000  Uiso   1.00
H210   H     0.25795   0.73422   0.19426   0.00000  Uiso   1.00
H211   H     0.07088   0.63637   0.23709   0.00000  Uiso   1.00
H212   H     0.12220   0.96895   0.30364   0.00000  Uiso   1.00
H213   H     0.35323   0.71971   0.12703   0.00000  Uiso   1.00
H214   H     0.95874   0.51338   0.21736   0.00000  Uiso   1.00
H215   H     0.01048   0.66879   0.02509   0.00000  Uiso   1.00
H216   H     0.99583   0.77827   0.06100   0.00000  Uiso   1.00
H217   H     0.10541   0.66008   0.97724   0.00000  Uiso   1.00
H218   H     0.91833   0.56223   0.02008   0.00000  Uiso   1.00
H219   H     0.99838   0.90877   0.12750   0.00000  Uiso   1.00
H220   H     0.22941   0.65954   0.95089   0.00000  Uiso   1.00
H221   H     0.83492   0.45321   0.04122   0.00000  Uiso   1.00
O222   O     0.05328   0.01216   0.24290   0.00000  Uiso   1.00
O223   O     0.35638   0.68516   0.01119   0.00000  Uiso   1.00
O224   O     0.83882   0.41447   0.12971   0.00000  Uiso   1.00
N225   N     0.09506   0.93975   0.25726   0.00000  Uiso   1.00
N226   N     0.31106   0.70675   0.09214   0.00000  Uiso   1.00
N227   N     0.94225   0.51384   0.17659   0.00000  Uiso   1.00
N228   N     0.02843   0.90738   0.16248   0.00000  Uiso   1.00
N229   N     0.24444   0.67437   0.99736   0.00000  Uiso   1.00
N230   N     0.87563   0.48146   0.08181   0.00000  Uiso   1.00
C231   C     0.14270   0.25159   0.58948   0.00000  Uiso   1.00
C232   C     0.07187   0.20387   0.58411   0.00000  Uiso   1.00
C233   C     0.05940   0.17468   0.62302   0.00000  Uiso   1.00
C234   C     0.99094   0.13246   0.61036   0.00000  Uiso   1.00
C235   C     0.88918   0.06029   0.60962   0.00000  Uiso   1.00
C236   C     0.13799   0.31558   0.59587   0.00000  Uiso   1.00
C237   C     0.18113   0.38031   0.64467   0.00000  Uiso   1.00
C238   C     0.16834   0.43213   0.64191   0.00000  Uiso   1.00
C239   C     0.16926   0.53340   0.65941   0.00000  Uiso   1.00
C240   C     0.15011   0.21953   0.52564   0.00000  Uiso   1.00
C241   C     0.20344   0.20352   0.51538   0.00000  Uiso   1.00
C242   C     0.20086   0.17449   0.45349   0.00000  Uiso   1.00
C243   C     0.22060   0.12663   0.36193   0.00000  Uiso   1.00
C244   C     0.04330   0.22853   0.49781   0.00000  Uiso   1.00
C245   C     0.01788   0.19135   0.53432   0.00000  Uiso   1.00
C246   C     0.94943   0.14916   0.52160   0.00000  Uiso   1.00
C247   C     0.93686   0.11991   0.56048   0.00000  Uiso   1.00
C248   C     0.08401   0.30306   0.54608   0.00000  Uiso   1.00
C249   C     0.07116   0.35480   0.54325   0.00000  Uiso   1.00
C250   C     0.11425   0.41959   0.59203   0.00000  Uiso   1.00
C251   C     0.09612   0.20701   0.47584   0.00000  Uiso   1.00
C252   C     0.09347   0.17800   0.41396   0.00000  Uiso   1.00
C253   C     0.14678   0.16194   0.40361   0.00000  Uiso   1.00
H254   H     0.18473   0.26135   0.62824   0.00000  Uiso   1.00
H255   H     0.10119   0.18439   0.66155   0.00000  Uiso   1.00
H256   H     0.22290   0.38999   0.68319   0.00000  Uiso   1.00
H257   H     0.24521   0.21322   0.55392   0.00000  Uiso   1.00
H258   H     0.98476   0.09356   0.67653   0.00000  Uiso   1.00
H259   H     0.24142   0.52708   0.72216   0.00000  Uiso   1.00
H260   H     0.28846   0.15433   0.44956   0.00000  Uiso   1.00
H261   H     0.00127   0.21878   0.45904   0.00000  Uiso   1.00
H262   H     0.90766   0.13948   0.48306   0.00000  Uiso   1.00
H263   H     0.02937   0.34509   0.50471   0.00000  Uiso   1.00
H264   H     0.05168   0.16832   0.37544   0.00000  Uiso   1.00
H265   H     0.82769   0.05711   0.53167   0.00000  Uiso   1.00
H266   H     0.08434   0.49064   0.57730   0.00000  Uiso   1.00
H267   H     0.13138   0.11789   0.30470   0.00000  Uiso   1.00
O268   O     0.84796   0.02396   0.62297   0.00000  Uiso   1.00
O269   O     0.18468   0.59272   0.68282   0.00000  Uiso   1.00
O270   O     0.24640   0.10368   0.32519   0.00000  Uiso   1.00
N271   N     0.96064   0.09585   0.63913   0.00000  Uiso   1.00
N272   N     0.20059   0.50117   0.68180   0.00000  Uiso   1.00
N273   N     0.24458   0.15270   0.42695   0.00000  Uiso   1.00
N274   N     0.87612   0.07624   0.56118   0.00000  Uiso   1.00
N275   N     0.11607   0.48156   0.60385   0.00000  Uiso   1.00
N276   N     0.16006   0.13308   0.34900   0.00000  Uiso   1.00
C277   C     0.12210   0.34419   0.24049   0.00000  Uiso   1.00
C278   C     0.13165   0.28055   0.21300   0.00000  Uiso   1.00
C279   C     0.11869   0.24114   0.14978   0.00000  Uiso   1.00
C280   C     0.13068   0.18493   0.13416   0.00000  Uiso   1.00
C281   C     0.14189   0.08860   0.08448   0.00000  Uiso   1.00
C282   C     0.19201   0.39981   0.28998   0.00000  Uiso   1.00
C283   C     0.22979   0.46069   0.29149   0.00000  Uiso   1.00
C284   C     0.29259   0.50488   0.34068   0.00000  Uiso   1.00
C285   C     0.39748   0.59372   0.41054   0.00000  Uiso   1.00
C286   C     0.07303   0.33181   0.27652   0.00000  Uiso   1.00
C287   C     0.01077   0.33552   0.26672   0.00000  Uiso   1.00
C288   C     0.97341   0.32247   0.30458   0.00000  Uiso   1.00
C289   C     0.89356   0.30572   0.35354   0.00000  Uiso   1.00
C290   C     0.16645   0.31442   0.32517   0.00000  Uiso   1.00
C291   C     0.15575   0.26439   0.25900   0.00000  Uiso   1.00
C292   C     0.16776   0.20822   0.24347   0.00000  Uiso   1.00
C293   C     0.15481   0.16873   0.18023   0.00000  Uiso   1.00
C294   C     0.21611   0.38365   0.33598   0.00000  Uiso   1.00
C295   C     0.27886   0.42776   0.38518   0.00000  Uiso   1.00
C296   C     0.31673   0.48868   0.38676   0.00000  Uiso   1.00
C297   C     0.09712   0.31564   0.32252   0.00000  Uiso   1.00
C298   C     0.05985   0.30259   0.36041   0.00000  Uiso   1.00
C299   C     0.99754   0.30628   0.35066   0.00000  Uiso   1.00
H300   H     0.10334   0.35678   0.20469   0.00000  Uiso   1.00
H301   H     0.10005   0.25367   0.11420   0.00000  Uiso   1.00
H302   H     0.21112   0.47319   0.25589   0.00000  Uiso   1.00
H303   H     0.99214   0.34803   0.23112   0.00000  Uiso   1.00
H304   H     0.10704   0.13225   0.03417   0.00000  Uiso   1.00
H305   H     0.34125   0.59511   0.33295   0.00000  Uiso   1.00
H306   H     0.87948   0.33121   0.28072   0.00000  Uiso   1.00
H307   H     0.18521   0.30184   0.36098   0.00000  Uiso   1.00
H308   H     0.18641   0.19572   0.27907   0.00000  Uiso   1.00
H309   H     0.29749   0.41523   0.42077   0.00000  Uiso   1.00
H310   H     0.07851   0.29008   0.39600   0.00000  Uiso   1.00
H311   H     0.17714   0.08522   0.16798   0.00000  Uiso   1.00
H312   H     0.41134   0.54808   0.46677   0.00000  Uiso   1.00
H313   H     0.94958   0.28417   0.41453   0.00000  Uiso   1.00
O314   O     0.14142   0.03993   0.04437   0.00000  Uiso   1.00
O315   O     0.44868   0.64719   0.43637   0.00000  Uiso   1.00
O316   O     0.84286   0.30095   0.36784   0.00000  Uiso   1.00
N317   N     0.12336   0.13574   0.07690   0.00000  Uiso   1.00
N318   N     0.34234   0.56848   0.35624   0.00000  Uiso   1.00
N319   N     0.91063   0.32177   0.30742   0.00000  Uiso   1.00
N320   N     0.16108   0.11043   0.14890   0.00000  Uiso   1.00
N321   N     0.38005   0.54317   0.42824   0.00000  Uiso   1.00
N322   N     0.94835   0.29646   0.37942   0.00000  Uiso   1.00
C323   C     0.24233   0.88672   0.88978   0.00000  Uiso   1.00
C324   C     0.20028   0.89132   0.93344   0.00000  Uiso   1.00
C325   C     0.13323   0.88411   0.91801   0.00000  Uiso   1.00
C326   C     0.10376   0.89005   0.96453   0.00000  Uiso   1.00
C327   C     0.03292   0.89524   0.02321   0.00000  Uiso   1.00
C328   C     0.26358   0.83198   0.88750   0.00000  Uiso   1.00
C329   C     0.24976   0.77486   0.83345   0.00000  Uiso   1.00
C330   C     0.27359   0.73085   0.84130   0.00000  Uiso   1.00
C331   C     0.30107   0.64393   0.82866   0.00000  Uiso   1.00
C332   C     0.30897   0.95288   0.92383   0.00000  Uiso   1.00
C333   C     0.33334   0.99742   0.90032   0.00000  Uiso   1.00
C334   C     0.39540   0.05519   0.93875   0.00000  Uiso   1.00
C335   C     0.49336   0.15599   0.98252   0.00000  Uiso   1.00
C336   C     0.30922   0.91012   0.99984   0.00000  Uiso   1.00
C337   C     0.23661   0.90403   0.99322   0.00000  Uiso   1.00
C338   C     0.20723   0.90999   0.03977   0.00000  Uiso   1.00
C339   C     0.14016   0.90279   0.02442   0.00000  Uiso   1.00
C340   C     0.29990   0.84468   0.94728   0.00000  Uiso   1.00
C341   C     0.32376   0.80075   0.95521   0.00000  Uiso   1.00
C342   C     0.30998   0.74358   0.90118   0.00000  Uiso   1.00
C343   C     0.34530   0.96559   0.98361   0.00000  Uiso   1.00
C344   C     0.40734   0.02330   0.02208   0.00000  Uiso   1.00
C345   C     0.43179   0.06792   0.99864   0.00000  Uiso   1.00
H346   H     0.21405   0.87682   0.84324   0.00000  Uiso   1.00
H347   H     0.10513   0.87426   0.87174   0.00000  Uiso   1.00
H348   H     0.22165   0.76505   0.78719   0.00000  Uiso   1.00
H349   H     0.30521   0.98757   0.85406   0.00000  Uiso   1.00
H350   H     0.00039   0.87701   0.92969   0.00000  Uiso   1.00
H351   H     0.24610   0.64673   0.75141   0.00000  Uiso   1.00
H352   H     0.42231   0.11595   0.89241   0.00000  Uiso   1.00
H353   H     0.33750   0.92001   0.04638   0.00000  Uiso   1.00
H354   H     0.23536   0.91983   0.08603   0.00000  Uiso   1.00
H355   H     0.35188   0.81060   0.00148   0.00000  Uiso   1.00
H356   H     0.43544   0.03312   0.06834   0.00000  Uiso   1.00
H357   H     0.10609   0.91399   0.10361   0.00000  Uiso   1.00
H358   H     0.35180   0.68370   0.92534   0.00000  Uiso   1.00
H359   H     0.52800   0.15293   0.06633   0.00000  Uiso   1.00
O360   O     0.98381   0.89458   0.03906   0.00000  Uiso   1.00
O361   O     0.30618   0.59246   0.80517   0.00000  Uiso   1.00
O362   O     0.53735   0.20807   0.99015   0.00000  Uiso   1.00
N363   N     0.03929   0.88575   0.96519   0.00000  Uiso   1.00
N364   N     0.26900   0.67044   0.79851   0.00000  Uiso   1.00
N365   N     0.43375   0.10912   0.93032   0.00000  Uiso   1.00
N366   N     0.09616   0.90565   0.05877   0.00000  Uiso   1.00
N367   N     0.32588   0.69034   0.89210   0.00000  Uiso   1.00
N368   N     0.49062   0.12902   0.02390   0.00000  Uiso   1.00
C369   C     0.69630   0.74763   0.03850   0.00000  Uiso   1.00
C370   C     0.76163   0.81477   0.06986   0.00000  Uiso   1.00
C371   C     0.78446   0.85571   0.04254   0.00000  Uiso   1.00
C372   C     0.84547   0.91515   0.07901   0.00000  Uiso   1.00
C373   C     0.94130   0.01671   0.11836   0.00000  Uiso   1.00
C374   C     0.65384   0.75477   0.08166   0.00000  Uiso   1.00
C375   C     0.58604   0.74524   0.06425   0.00000  Uiso   1.00
C376   C     0.55631   0.75416   0.11065   0.00000  Uiso   1.00
C377   C     0.48478   0.76251   0.16829   0.00000  Uiso   1.00
C378   C     0.71985   0.69582   0.04167   0.00000  Uiso   1.00
C379   C     0.70754   0.63671   0.99064   0.00000  Uiso   1.00
C380   C     0.73338   0.59598   0.00338   0.00000  Uiso   1.00
C381   C     0.76434   0.51280   0.99894   0.00000  Uiso   1.00
C382   C     0.76406   0.78039   0.15187   0.00000  Uiso   1.00
C383   C     0.79843   0.83257   0.13144   0.00000  Uiso   1.00
C384   C     0.85943   0.89196   0.16797   0.00000  Uiso   1.00
C385   C     0.88235   0.93297   0.14070   0.00000  Uiso   1.00
C386   C     0.69064   0.77256   0.14323   0.00000  Uiso   1.00
C387   C     0.66101   0.78149   0.18967   0.00000  Uiso   1.00
C388   C     0.59319   0.77199   0.17234   0.00000  Uiso   1.00
C389   C     0.75666   0.71361   0.10325   0.00000  Uiso   1.00
C390   C     0.78252   0.67296   0.11607   0.00000  Uiso   1.00
C391   C     0.77025   0.61381   0.06507   0.00000  Uiso   1.00
H392   H     0.66764   0.73378   0.99056   0.00000  Uiso   1.00
H393   H     0.75595   0.84192   0.99489   0.00000  Uiso   1.00
H394   H     0.55757   0.73147   0.01659   0.00000  Uiso   1.00
H395   H     0.67905   0.62296   0.94300   0.00000  Uiso   1.00
H396   H     0.87009   0.96968   0.02684   0.00000  Uiso   1.00
H397   H     0.45177   0.73676   0.07260   0.00000  Uiso   1.00
H398   H     0.70794   0.50793   0.91742   0.00000  Uiso   1.00
H399   H     0.79272   0.79425   0.19981   0.00000  Uiso   1.00
H400   H     0.88790   0.90571   0.21562   0.00000  Uiso   1.00
H401   H     0.68951   0.79526   0.23732   0.00000  Uiso   1.00
H402   H     0.81100   0.68674   0.16373   0.00000  Uiso   1.00
H403   H     0.97718   0.02146   0.20600   0.00000  Uiso   1.00
H404   H     0.55886   0.78853   0.25175   0.00000  Uiso   1.00
H405   H     0.81504   0.55971   0.09657   0.00000  Uiso   1.00
O406   O     0.98398   0.06781   0.12305   0.00000  Uiso   1.00
O407   O     0.43516   0.76221   0.18307   0.00000  Uiso   1.00
O408   O     0.77126   0.46201   0.97948   0.00000  Uiso   1.00
N409   N     0.88224   0.96656   0.06683   0.00000  Uiso   1.00
N410   N     0.49114   0.74880   0.10961   0.00000  Uiso   1.00
N411   N     0.73062   0.53486   0.96453   0.00000  Uiso   1.00
N412   N     0.93987   0.99442   0.16323   0.00000  Uiso   1.00
N413   N     0.54876   0.77666   0.20601   0.00000  Uiso   1.00
N414   N     0.78825   0.56272   0.06093   0.00000  Uiso   1.00
C415   C     0.30758   0.06879   0.51928   0.00000  Uiso   1.00
C416   C     0.26322   0.05905   0.55968   0.00000  Uiso   1.00
C417   C     0.20373   0.06775   0.55645   0.00000  Uiso   1.00
C418   C     0.17055   0.05641   0.59745   0.00000  Uiso   1.00
C419   C     0.09780   0.04427   0.65372   0.00000  Uiso   1.00
C420   C     0.38067   0.12054   0.56517   0.00000  Uiso   1.00
C421   C     0.41994   0.18093   0.56654   0.00000  Uiso   1.00
C422   C     0.48563   0.22134   0.61215   0.00000  Uiso   1.00
C423   C     0.59526   0.30464   0.67691   0.00000  Uiso   1.00
C424   C     0.31097   0.00236   0.48683   0.00000  Uiso   1.00
C425   C     0.29165   0.96339   0.42232   0.00000  Uiso   1.00
C426   C     0.29868   0.90430   0.40198   0.00000  Uiso   1.00
C427   C     0.30008   0.80411   0.34510   0.00000  Uiso   1.00
C428   C     0.35443   0.03316   0.59786   0.00000  Uiso   1.00
C429   C     0.28866   0.03970   0.60237   0.00000  Uiso   1.00
C430   C     0.25556   0.02833   0.64338   0.00000  Uiso   1.00
C431   C     0.19603   0.03702   0.64021   0.00000  Uiso   1.00
C432   C     0.40611   0.10119   0.60785   0.00000  Uiso   1.00
C433   C     0.47176   0.14151   0.65347   0.00000  Uiso   1.00
C434   C     0.51112   0.20195   0.65491   0.00000  Uiso   1.00
C435   C     0.33641   0.98300   0.52951   0.00000  Uiso   1.00
C436   C     0.34347   0.92397   0.50926   0.00000  Uiso   1.00
C437   C     0.32416   0.88492   0.44474   0.00000  Uiso   1.00
H438   H     0.28778   0.08386   0.48605   0.00000  Uiso   1.00
H439   H     0.18406   0.08274   0.52341   0.00000  Uiso   1.00
H440   H     0.40024   0.19589   0.53350   0.00000  Uiso   1.00
H441   H     0.27197   0.97838   0.38931   0.00000  Uiso   1.00
H442   H     0.08031   0.07299   0.58368   0.00000  Uiso   1.00
H443   H     0.53614   0.31157   0.60492   0.00000  Uiso   1.00
H444   H     0.26565   0.85291   0.30087   0.00000  Uiso   1.00
H445   H     0.37424   0.01809   0.63109   0.00000  Uiso   1.00
H446   H     0.27526   0.01336   0.67641   0.00000  Uiso   1.00
H447   H     0.49144   0.12652   0.68649   0.00000  Uiso   1.00
H448   H     0.36316   0.90901   0.54230   0.00000  Uiso   1.00
H449   H     0.15432   0.01668   0.70785   0.00000  Uiso   1.00
H450   H     0.61016   0.25526   0.72910   0.00000  Uiso   1.00
H451   H     0.33967   0.79660   0.42505   0.00000  Uiso   1.00
O452   O     0.05066   0.04293   0.67298   0.00000  Uiso   1.00
O453   O     0.64870   0.35594   0.70084   0.00000  Uiso   1.00
O454   O     0.29382   0.75418   0.30194   0.00000  Uiso   1.00
N455   N     0.11130   0.06037   0.60667   0.00000  Uiso   1.00
N456   N     0.53747   0.28344   0.62654   0.00000  Uiso   1.00
N457   N     0.28461   0.85464   0.34228   0.00000  Uiso   1.00
N458   N     0.15113   0.03007   0.67349   0.00000  Uiso   1.00
N459   N     0.57730   0.25314   0.69336   0.00000  Uiso   1.00
N460   N     0.32443   0.82434   0.40910   0.00000  Uiso   1.00
C461   C     0.87804   0.27703   0.81632   0.00000  Uiso   1.00
C462   C     0.90174   0.22520   0.81920   0.00000  Uiso   1.00
C463   C     0.88456   0.16358   0.76883   0.00000  Uiso   1.00
C464   C     0.91146   0.12333   0.78116   0.00000  Uiso   1.00
C465   C     0.94177   0.03969   0.77643   0.00000  Uiso   1.00
C466   C     0.84221   0.28941   0.86471   0.00000  Uiso   1.00
C467   C     0.77496   0.28178   0.85260   0.00000  Uiso   1.00
C468   C     0.75175   0.29559   0.90324   0.00000  Uiso   1.00
C469   C     0.68964   0.31168   0.96917   0.00000  Uiso   1.00
C470   C     0.94385   0.34256   0.84143   0.00000  Uiso   1.00
C471   C     0.96207   0.37965   0.80975   0.00000  Uiso   1.00
C472   C     0.02443   0.43822   0.84080   0.00000  Uiso   1.00
C473   C     0.12014   0.53685   0.87059   0.00000  Uiso   1.00
C474   C     0.95639   0.31511   0.92778   0.00000  Uiso   1.00
C475   C     0.94430   0.24588   0.87974   0.00000  Uiso   1.00
C476   C     0.97124   0.20571   0.89215   0.00000  Uiso   1.00
C477   C     0.95410   0.14405   0.84180   0.00000  Uiso   1.00
C478   C     0.88476   0.31009   0.92525   0.00000  Uiso   1.00
C479   C     0.86165   0.32391   0.97592   0.00000  Uiso   1.00
C480   C     0.79438   0.31631   0.96389   0.00000  Uiso   1.00
C481   C     0.98641   0.36325   0.90197   0.00000  Uiso   1.00
C482   C     0.04875   0.42178   0.93307   0.00000  Uiso   1.00
C483   C     0.06706   0.45894   0.90145   0.00000  Uiso   1.00
H484   H     0.84491   0.26092   0.76919   0.00000  Uiso   1.00
H485   H     0.85162   0.14759   0.72199   0.00000  Uiso   1.00
H486   H     0.74205   0.26578   0.80574   0.00000  Uiso   1.00
H487   H     0.92912   0.36363   0.76291   0.00000  Uiso   1.00
H488   H     0.87780   0.03105   0.69636   0.00000  Uiso   1.00
H489   H     0.64677   0.28029   0.87297   0.00000  Uiso   1.00
H490   H     0.04126   0.48662   0.78264   0.00000  Uiso   1.00
H491   H     0.98952   0.33121   0.97491   0.00000  Uiso   1.00
H492   H     0.00417   0.22173   0.93900   0.00000  Uiso   1.00
H493   H     0.89459   0.33992   0.02276   0.00000  Uiso   1.00
H494   H     0.08167   0.43777   0.97992   0.00000  Uiso   1.00
H495   H     0.00162   0.09123   0.87250   0.00000  Uiso   1.00
H496   H     0.77059   0.34046   0.04911   0.00000  Uiso   1.00
H497   H     0.16508   0.54679   0.95878   0.00000  Uiso   1.00
O498   O     0.94672   0.98784   0.75710   0.00000  Uiso   1.00
O499   O     0.64362   0.31484   0.98881   0.00000  Uiso   1.00
O500   O     0.16118   0.58553   0.87029   0.00000  Uiso   1.00
N501   N     0.90494   0.06025   0.74274   0.00000  Uiso   1.00
N502   N     0.68894   0.29325   0.90786   0.00000  Uiso   1.00
N503   N     0.05775   0.48616   0.82341   0.00000  Uiso   1.00
N504   N     0.97157   0.09262   0.83752   0.00000  Uiso   1.00
N505   N     0.75556   0.32563   0.00264   0.00000  Uiso   1.00
N506   N     0.12437   0.51854   0.91819   0.00000  Uiso   1.00
C507   C     0.85730   0.74841   0.41052   0.00000  Uiso   1.00
C508   C     0.92813   0.79613   0.41589   0.00000  Uiso   1.00
C509   C     0.94060   0.82532   0.37698   0.00000  Uiso   1.00
C510   C     0.00906   0.86754   0.38964   0.00000  Uiso   1.00
C511   C     0.11082   0.93971   0.39038   0.00000  Uiso   1.00
C512   C     0.86201   0.68442   0.40413   0.00000  Uiso   1.00
C513   C     0.81887   0.61969   0.35533   0.00000  Uiso   1.00
C514   C     0.83166   0.56787   0.35809   0.00000  Uiso   1.00
C515   C     0.83074   0.46660   0.34059   0.00000  Uiso   1.00
C516   C     0.84989   0.78047   0.47436   0.00000  Uiso   1.00
C517   C     0.79656   0.79648   0.48462   0.00000  Uiso   1.00
C518   C     0.79914   0.82551   0.54651   0.00000  Uiso   1.00
C519   C     0.77940   0.87337   0.63807   0.00000  Uiso   1.00
C520   C     0.95670   0.77147   0.50219   0.00000  Uiso   1.00
C521   C     0.98212   0.80865   0.46568   0.00000  Uiso   1.00
C522   C     0.05057   0.85084   0.47840   0.00000  Uiso   1.00
C523   C     0.06314   0.88009   0.43952   0.00000  Uiso   1.00
C524   C     0.91599   0.69694   0.45392   0.00000  Uiso   1.00
C525   C     0.92884   0.64520   0.45675   0.00000  Uiso   1.00
C526   C     0.88575   0.58041   0.40797   0.00000  Uiso   1.00
C527   C     0.90388   0.79299   0.52416   0.00000  Uiso   1.00
C528   C     0.90653   0.82200   0.58604   0.00000  Uiso   1.00
C529   C     0.85322   0.83806   0.59639   0.00000  Uiso   1.00
H530   H     0.81527   0.73865   0.37176   0.00000  Uiso   1.00
H531   H     0.89881   0.81561   0.33845   0.00000  Uiso   1.00
H532   H     0.77710   0.61001   0.31681   0.00000  Uiso   1.00
H533   H     0.75479   0.78678   0.44608   0.00000  Uiso   1.00
H534   H     0.01524   0.90644   0.32347   0.00000  Uiso   1.00
H535   H     0.75858   0.47292   0.27784   0.00000  Uiso   1.00
H536   H     0.71154   0.84567   0.55044   0.00000  Uiso   1.00
H537   H     0.99873   0.78122   0.54096   0.00000  Uiso   1.00
H538   H     0.09234   0.86052   0.51694   0.00000  Uiso   1.00
H539   H     0.97063   0.65491   0.49529   0.00000  Uiso   1.00
H540   H     0.94832   0.83168   0.62456   0.00000  Uiso   1.00
H541   H     0.17231   0.94289   0.46833   0.00000  Uiso   1.00
H542   H     0.91566   0.50936   0.42270   0.00000  Uiso   1.00
H543   H     0.86862   0.88211   0.69530   0.00000  Uiso   1.00
O544   O     0.15204   0.97604   0.37703   0.00000  Uiso   1.00
O545   O     0.81532   0.40728   0.31718   0.00000  Uiso   1.00
O546   O     0.75360   0.89632   0.67481   0.00000  Uiso   1.00
N547   N     0.03936   0.90415   0.36087   0.00000  Uiso   1.00
N548   N     0.79941   0.49883   0.31820   0.00000  Uiso   1.00
N549   N     0.75542   0.84730   0.57305   0.00000  Uiso   1.00
N550   N     0.12388   0.92376   0.43882   0.00000  Uiso   1.00
N551   N     0.88393   0.51844   0.39615   0.00000  Uiso   1.00
N552   N     0.83994   0.86692   0.65100   0.00000  Uiso   1.00
