data_job_05051
_audit_creation_date              2018-12-19
_audit_creation_method            'Materials Studio'
_symmetry_space_group_name_H-M    'P1'
_symmetry_Int_Tables_number       1
_symmetry_cell_setting            triclinic
loop_
_symmetry_equiv_pos_as_xyz
  x,y,z
_cell_length_a                    10.8894
_cell_length_b                    50.0076
_cell_length_c                    12.5750
_cell_angle_alpha                 90.0000
_cell_angle_beta                  115.7865
_cell_angle_gamma                 90.0000
loop_
_atom_site_label
_atom_site_type_symbol
_atom_site_fract_x
_atom_site_fract_y
_atom_site_fract_z
_atom_site_U_iso_or_equiv
_atom_site_adp_type
_atom_site_occupancy
C1     C     0.48903   0.19606   0.72995   0.00000  Uiso   1.00
C2     C     0.51450   0.18257   0.63263   0.00000  Uiso   1.00
C3     C     0.41577   0.17099   0.53114   0.00000  Uiso   1.00
C4     C     0.45974   0.15967   0.45291   0.00000  Uiso   1.00
C5     C     0.47833   0.13866   0.29839   0.00000  Uiso   1.00
C6     C     0.58000   0.18165   0.84416   0.00000  Uiso   1.00
C7     C     0.53635   0.16931   0.92052   0.00000  Uiso   1.00
C8     C     0.63546   0.15722   0.02036   0.00000  Uiso   1.00
C9     C     0.75577   0.13481   0.19428   0.00000  Uiso   1.00
C10    C     0.54642   0.22429   0.74154   0.00000  Uiso   1.00
C11    C     0.47453   0.24780   0.73165   0.00000  Uiso   1.00
C12    C     0.54539   0.27161   0.74511   0.00000  Uiso   1.00
C13    C     0.61354   0.31541   0.75970   0.00000  Uiso   1.00
C14    C     0.74269   0.19653   0.77148   0.00000  Uiso   1.00
C15    C     0.65228   0.18282   0.65520   0.00000  Uiso   1.00
C16    C     0.69641   0.17151   0.57709   0.00000  Uiso   1.00
C17    C     0.59776   0.15992   0.47550   0.00000  Uiso   1.00
C18    C     0.71778   0.18191   0.86672   0.00000  Uiso   1.00
C19    C     0.81698   0.16983   0.96647   0.00000  Uiso   1.00
C20    C     0.77349   0.15748   0.04296   0.00000  Uiso   1.00
C21    C     0.68419   0.22455   0.76409   0.00000  Uiso   1.00
C22    C     0.75517   0.24832   0.77759   0.00000  Uiso   1.00
C23    C     0.68341   0.27187   0.76771   0.00000  Uiso   1.00
H24    H     0.38177   0.19586   0.71240   0.00000  Uiso   1.00
H25    H     0.30916   0.17079   0.51372   0.00000  Uiso   1.00
H26    H     0.42972   0.16912   0.90305   0.00000  Uiso   1.00
H27    H     0.36792   0.24760   0.71419   0.00000  Uiso   1.00
H28    H     0.28942   0.14311   0.30342   0.00000  Uiso   1.00
H29    H     0.54364   0.13958   0.12435   0.00000  Uiso   1.00
H30    H     0.41331   0.30507   0.72612   0.00000  Uiso   1.00
H31    H     0.84996   0.19673   0.78905   0.00000  Uiso   1.00
H32    H     0.80303   0.17171   0.59457   0.00000  Uiso   1.00
H33    H     0.92359   0.17004   0.98390   0.00000  Uiso   1.00
H34    H     0.86179   0.24852   0.79505   0.00000  Uiso   1.00
H35    H     0.69027   0.14385   0.36905   0.00000  Uiso   1.00
H36    H     0.94448   0.14033   0.18998   0.00000  Uiso   1.00
H37    H     0.81416   0.30581   0.79175   0.00000  Uiso   1.00
O38    O     0.45053   0.12700   0.20694   0.00000  Uiso   1.00
O39    O     0.78406   0.12237   0.28398   0.00000  Uiso   1.00
O40    O     0.61308   0.33949   0.76150   0.00000  Uiso   1.00
N41    N     0.39019   0.14672   0.34554   0.00000  Uiso   1.00
N42    N     0.62787   0.14342   0.11306   0.00000  Uiso   1.00
N43    N     0.50604   0.29814   0.74078   0.00000  Uiso   1.00
N44    N     0.60589   0.14712   0.38086   0.00000  Uiso   1.00
N45    N     0.84356   0.14382   0.14837   0.00000  Uiso   1.00
N46    N     0.72173   0.29854   0.77609   0.00000  Uiso   1.00
C47    C     0.86316   0.55362   0.28501   0.00000  Uiso   1.00
C48    C     0.98542   0.56745   0.38199   0.00000  Uiso   1.00
C49    C     0.98752   0.57919   0.48275   0.00000  Uiso   1.00
C50    C     0.10931   0.59082   0.56079   0.00000  Uiso   1.00
C51    C     0.28157   0.61232   0.71470   0.00000  Uiso   1.00
C52    C     0.83918   0.56781   0.17028   0.00000  Uiso   1.00
C53    C     0.71832   0.57985   0.09303   0.00000  Uiso   1.00
C54    C     0.71701   0.59177   0.99283   0.00000  Uiso   1.00
C55    C     0.66220   0.61382   0.81802   0.00000  Uiso   1.00
C56    C     0.91054   0.52544   0.27492   0.00000  Uiso   1.00
C57    C     0.84966   0.50185   0.28564   0.00000  Uiso   1.00
C58    C     0.90843   0.47811   0.27352   0.00000  Uiso   1.00
C59    C     0.96442   0.43437   0.26118   0.00000  Uiso   1.00
C60    C     0.07573   0.55338   0.24440   0.00000  Uiso   1.00
C61    C     0.10088   0.56732   0.35993   0.00000  Uiso   1.00
C62    C     0.22271   0.57893   0.43783   0.00000  Uiso   1.00
C63    C     0.22499   0.59069   0.53870   0.00000  Uiso   1.00
C64    C     0.95464   0.56768   0.14822   0.00000  Uiso   1.00
C65    C     0.95351   0.57958   0.04811   0.00000  Uiso   1.00
C66    C     0.83268   0.59164   0.97074   0.00000  Uiso   1.00
C67    C     0.02601   0.52531   0.25287   0.00000  Uiso   1.00
C68    C     0.08486   0.50159   0.24072   0.00000  Uiso   1.00
C69    C     0.02410   0.47798   0.25142   0.00000  Uiso   1.00
H70    H     0.77326   0.55372   0.30217   0.00000  Uiso   1.00
H71    H     0.89813   0.57929   0.49979   0.00000  Uiso   1.00
H72    H     0.62898   0.57994   0.11012   0.00000  Uiso   1.00
H73    H     0.76032   0.50196   0.30270   0.00000  Uiso   1.00
H74    H     0.08749   0.60759   0.70913   0.00000  Uiso   1.00
H75    H     0.51994   0.60896   0.88748   0.00000  Uiso   1.00
H76    H     0.79688   0.44452   0.29357   0.00000  Uiso   1.00
H77    H     0.16563   0.55328   0.22723   0.00000  Uiso   1.00
H78    H     0.31204   0.57882   0.42074   0.00000  Uiso   1.00
H79    H     0.04288   0.57948   0.03107   0.00000  Uiso   1.00
H80    H     0.17422   0.50150   0.22365   0.00000  Uiso   1.00
H81    H     0.42343   0.60721   0.64497   0.00000  Uiso   1.00
H82    H     0.85587   0.60858   0.82331   0.00000  Uiso   1.00
H83    H     0.13282   0.44414   0.22941   0.00000  Uiso   1.00
O84    O     0.34468   0.62422   0.80568   0.00000  Uiso   1.00
O85    O     0.60007   0.62602   0.72769   0.00000  Uiso   1.00
O86    O     0.96342   0.41028   0.26049   0.00000  Uiso   1.00
N87    N     0.14647   0.60399   0.66749   0.00000  Uiso   1.00
N88    N     0.61585   0.60528   0.89930   0.00000  Uiso   1.00
N89    N     0.87475   0.45154   0.27893   0.00000  Uiso   1.00
N90    N     0.32723   0.60379   0.63296   0.00000  Uiso   1.00
N91    N     0.79661   0.60507   0.86477   0.00000  Uiso   1.00
N92    N     0.05551   0.45134   0.24441   0.00000  Uiso   1.00
C93    C     0.98903   0.69606   0.72995   0.00000  Uiso   1.00
C94    C     0.01450   0.68257   0.63263   0.00000  Uiso   1.00
C95    C     0.91577   0.67099   0.53114   0.00000  Uiso   1.00
C96    C     0.95974   0.65967   0.45291   0.00000  Uiso   1.00
C97    C     0.97833   0.63866   0.29839   0.00000  Uiso   1.00
C98    C     0.08000   0.68165   0.84416   0.00000  Uiso   1.00
C99    C     0.03635   0.66931   0.92052   0.00000  Uiso   1.00
C100   C     0.13546   0.65722   0.02036   0.00000  Uiso   1.00
C101   C     0.25577   0.63481   0.19428   0.00000  Uiso   1.00
C102   C     0.04642   0.72429   0.74154   0.00000  Uiso   1.00
C103   C     0.97453   0.74780   0.73165   0.00000  Uiso   1.00
C104   C     0.04539   0.77161   0.74511   0.00000  Uiso   1.00
C105   C     0.11354   0.81541   0.75970   0.00000  Uiso   1.00
C106   C     0.24269   0.69653   0.77148   0.00000  Uiso   1.00
C107   C     0.15228   0.68282   0.65520   0.00000  Uiso   1.00
C108   C     0.19641   0.67151   0.57709   0.00000  Uiso   1.00
C109   C     0.09776   0.65992   0.47550   0.00000  Uiso   1.00
C110   C     0.21778   0.68191   0.86672   0.00000  Uiso   1.00
C111   C     0.31698   0.66983   0.96647   0.00000  Uiso   1.00
C112   C     0.27349   0.65748   0.04296   0.00000  Uiso   1.00
C113   C     0.18419   0.72455   0.76409   0.00000  Uiso   1.00
C114   C     0.25517   0.74832   0.77759   0.00000  Uiso   1.00
C115   C     0.18341   0.77187   0.76771   0.00000  Uiso   1.00
H116   H     0.88177   0.69586   0.71240   0.00000  Uiso   1.00
H117   H     0.80916   0.67079   0.51372   0.00000  Uiso   1.00
H118   H     0.92972   0.66912   0.90305   0.00000  Uiso   1.00
H119   H     0.86792   0.74760   0.71419   0.00000  Uiso   1.00
H120   H     0.78942   0.64311   0.30342   0.00000  Uiso   1.00
H121   H     0.04364   0.63958   0.12435   0.00000  Uiso   1.00
H122   H     0.91331   0.80507   0.72612   0.00000  Uiso   1.00
H123   H     0.34996   0.69673   0.78905   0.00000  Uiso   1.00
H124   H     0.30303   0.67171   0.59457   0.00000  Uiso   1.00
H125   H     0.42359   0.67004   0.98390   0.00000  Uiso   1.00
H126   H     0.36179   0.74852   0.79505   0.00000  Uiso   1.00
H127   H     0.19027   0.64385   0.36905   0.00000  Uiso   1.00
H128   H     0.44448   0.64033   0.18998   0.00000  Uiso   1.00
H129   H     0.31416   0.80581   0.79175   0.00000  Uiso   1.00
O130   O     0.95053   0.62700   0.20694   0.00000  Uiso   1.00
O131   O     0.28406   0.62237   0.28398   0.00000  Uiso   1.00
O132   O     0.11308   0.83949   0.76150   0.00000  Uiso   1.00
N133   N     0.89019   0.64672   0.34554   0.00000  Uiso   1.00
N134   N     0.12787   0.64342   0.11306   0.00000  Uiso   1.00
N135   N     0.00604   0.79814   0.74078   0.00000  Uiso   1.00
N136   N     0.10589   0.64712   0.38086   0.00000  Uiso   1.00
N137   N     0.34356   0.64382   0.14837   0.00000  Uiso   1.00
N138   N     0.22173   0.79854   0.77609   0.00000  Uiso   1.00
C139   C     0.36316   0.05362   0.28501   0.00000  Uiso   1.00
C140   C     0.48542   0.06745   0.38199   0.00000  Uiso   1.00
C141   C     0.48752   0.07919   0.48275   0.00000  Uiso   1.00
C142   C     0.60931   0.09082   0.56079   0.00000  Uiso   1.00
C143   C     0.78157   0.11232   0.71470   0.00000  Uiso   1.00
C144   C     0.33918   0.06781   0.17028   0.00000  Uiso   1.00
C145   C     0.21832   0.07985   0.09303   0.00000  Uiso   1.00
C146   C     0.21701   0.09177   0.99283   0.00000  Uiso   1.00
C147   C     0.16220   0.11382   0.81802   0.00000  Uiso   1.00
C148   C     0.41054   0.02544   0.27492   0.00000  Uiso   1.00
C149   C     0.34966   0.00185   0.28564   0.00000  Uiso   1.00
C150   C     0.40843   0.97811   0.27352   0.00000  Uiso   1.00
C151   C     0.46442   0.93437   0.26118   0.00000  Uiso   1.00
C152   C     0.57573   0.05338   0.24440   0.00000  Uiso   1.00
C153   C     0.60088   0.06732   0.35993   0.00000  Uiso   1.00
C154   C     0.72271   0.07893   0.43783   0.00000  Uiso   1.00
C155   C     0.72499   0.09069   0.53870   0.00000  Uiso   1.00
C156   C     0.45464   0.06768   0.14822   0.00000  Uiso   1.00
C157   C     0.45351   0.07958   0.04811   0.00000  Uiso   1.00
C158   C     0.33268   0.09164   0.97074   0.00000  Uiso   1.00
C159   C     0.52601   0.02531   0.25287   0.00000  Uiso   1.00
C160   C     0.58486   0.00159   0.24072   0.00000  Uiso   1.00
C161   C     0.52410   0.97798   0.25142   0.00000  Uiso   1.00
H162   H     0.27326   0.05372   0.30217   0.00000  Uiso   1.00
H163   H     0.39813   0.07929   0.49979   0.00000  Uiso   1.00
H164   H     0.12898   0.07994   0.11012   0.00000  Uiso   1.00
H165   H     0.26032   0.00196   0.30270   0.00000  Uiso   1.00
H166   H     0.58749   0.10759   0.70913   0.00000  Uiso   1.00
H167   H     0.01994   0.10896   0.88748   0.00000  Uiso   1.00
H168   H     0.29688   0.94452   0.29357   0.00000  Uiso   1.00
H169   H     0.66563   0.05328   0.22723   0.00000  Uiso   1.00
H170   H     0.81204   0.07882   0.42074   0.00000  Uiso   1.00
H171   H     0.54288   0.07948   0.03107   0.00000  Uiso   1.00
H172   H     0.67422   0.00150   0.22365   0.00000  Uiso   1.00
H173   H     0.92343   0.10721   0.64497   0.00000  Uiso   1.00
H174   H     0.35587   0.10858   0.82331   0.00000  Uiso   1.00
H175   H     0.63282   0.94414   0.22941   0.00000  Uiso   1.00
O176   O     0.84468   0.12422   0.80568   0.00000  Uiso   1.00
O177   O     0.10007   0.12602   0.72769   0.00000  Uiso   1.00
O178   O     0.46342   0.91028   0.26049   0.00000  Uiso   1.00
N179   N     0.64647   0.10399   0.66749   0.00000  Uiso   1.00
N180   N     0.11585   0.10528   0.89930   0.00000  Uiso   1.00
N181   N     0.37475   0.95154   0.27893   0.00000  Uiso   1.00
N182   N     0.82723   0.10379   0.63296   0.00000  Uiso   1.00
N183   N     0.29661   0.10507   0.86477   0.00000  Uiso   1.00
N184   N     0.55551   0.95134   0.24441   0.00000  Uiso   1.00
C185   C     0.48903   0.80394   0.22995   0.00000  Uiso   1.00
C186   C     0.51450   0.81743   0.13263   0.00000  Uiso   1.00
C187   C     0.41577   0.82901   0.03114   0.00000  Uiso   1.00
C188   C     0.45974   0.84033   0.95291   0.00000  Uiso   1.00
C189   C     0.47833   0.86134   0.79839   0.00000  Uiso   1.00
C190   C     0.58000   0.81835   0.34416   0.00000  Uiso   1.00
C191   C     0.53635   0.83069   0.42052   0.00000  Uiso   1.00
C192   C     0.63546   0.84278   0.52036   0.00000  Uiso   1.00
C193   C     0.75577   0.86519   0.69428   0.00000  Uiso   1.00
C194   C     0.54642   0.77571   0.24154   0.00000  Uiso   1.00
C195   C     0.47453   0.75220   0.23165   0.00000  Uiso   1.00
C196   C     0.54539   0.72839   0.24511   0.00000  Uiso   1.00
C197   C     0.61354   0.68459   0.25970   0.00000  Uiso   1.00
C198   C     0.74269   0.80347   0.27148   0.00000  Uiso   1.00
C199   C     0.65228   0.81718   0.15520   0.00000  Uiso   1.00
C200   C     0.69641   0.82849   0.07709   0.00000  Uiso   1.00
C201   C     0.59776   0.84008   0.97550   0.00000  Uiso   1.00
C202   C     0.71778   0.81809   0.36672   0.00000  Uiso   1.00
C203   C     0.81698   0.83017   0.46647   0.00000  Uiso   1.00
C204   C     0.77349   0.84252   0.54296   0.00000  Uiso   1.00
C205   C     0.68419   0.77545   0.26409   0.00000  Uiso   1.00
C206   C     0.75517   0.75168   0.27759   0.00000  Uiso   1.00
C207   C     0.68341   0.72813   0.26771   0.00000  Uiso   1.00
H208   H     0.38177   0.80414   0.21240   0.00000  Uiso   1.00
H209   H     0.30916   0.82921   0.01372   0.00000  Uiso   1.00
H210   H     0.42972   0.83088   0.40305   0.00000  Uiso   1.00
H211   H     0.36792   0.75240   0.21419   0.00000  Uiso   1.00
H212   H     0.28942   0.85689   0.80342   0.00000  Uiso   1.00
H213   H     0.54364   0.86042   0.62435   0.00000  Uiso   1.00
H214   H     0.41331   0.69493   0.22612   0.00000  Uiso   1.00
H215   H     0.84996   0.80327   0.28905   0.00000  Uiso   1.00
H216   H     0.80303   0.82829   0.09457   0.00000  Uiso   1.00
H217   H     0.92359   0.82996   0.48390   0.00000  Uiso   1.00
H218   H     0.86179   0.75148   0.29505   0.00000  Uiso   1.00
H219   H     0.69027   0.85615   0.86905   0.00000  Uiso   1.00
H220   H     0.94448   0.85967   0.68998   0.00000  Uiso   1.00
H221   H     0.81416   0.69419   0.29175   0.00000  Uiso   1.00
O222   O     0.45053   0.87300   0.70694   0.00000  Uiso   1.00
O223   O     0.78406   0.87763   0.78398   0.00000  Uiso   1.00
O224   O     0.61308   0.66051   0.26150   0.00000  Uiso   1.00
N225   N     0.39019   0.85328   0.84554   0.00000  Uiso   1.00
N226   N     0.62787   0.85658   0.61306   0.00000  Uiso   1.00
N227   N     0.50604   0.70186   0.24078   0.00000  Uiso   1.00
N228   N     0.60589   0.85288   0.88086   0.00000  Uiso   1.00
N229   N     0.84356   0.85618   0.64837   0.00000  Uiso   1.00
N230   N     0.72173   0.70146   0.27609   0.00000  Uiso   1.00
C231   C     0.86316   0.44638   0.78501   0.00000  Uiso   1.00
C232   C     0.98542   0.43255   0.88199   0.00000  Uiso   1.00
C233   C     0.98752   0.42081   0.98275   0.00000  Uiso   1.00
C234   C     0.10931   0.40918   0.06079   0.00000  Uiso   1.00
C235   C     0.28157   0.38768   0.21470   0.00000  Uiso   1.00
C236   C     0.83918   0.43219   0.67028   0.00000  Uiso   1.00
C237   C     0.71832   0.42015   0.59303   0.00000  Uiso   1.00
C238   C     0.71701   0.40823   0.49283   0.00000  Uiso   1.00
C239   C     0.66220   0.38618   0.31802   0.00000  Uiso   1.00
C240   C     0.91054   0.47456   0.77492   0.00000  Uiso   1.00
C241   C     0.84966   0.49815   0.78564   0.00000  Uiso   1.00
C242   C     0.90843   0.52189   0.77352   0.00000  Uiso   1.00
C243   C     0.96442   0.56563   0.76118   0.00000  Uiso   1.00
C244   C     0.07573   0.44662   0.74440   0.00000  Uiso   1.00
C245   C     0.10088   0.43268   0.85993   0.00000  Uiso   1.00
C246   C     0.22271   0.42107   0.93783   0.00000  Uiso   1.00
C247   C     0.22499   0.40931   0.03870   0.00000  Uiso   1.00
C248   C     0.95464   0.43232   0.64822   0.00000  Uiso   1.00
C249   C     0.95351   0.42042   0.54811   0.00000  Uiso   1.00
C250   C     0.83268   0.40836   0.47074   0.00000  Uiso   1.00
C251   C     0.02601   0.47469   0.75287   0.00000  Uiso   1.00
C252   C     0.08486   0.49841   0.74072   0.00000  Uiso   1.00
C253   C     0.02410   0.52202   0.75142   0.00000  Uiso   1.00
H254   H     0.77326   0.44628   0.80217   0.00000  Uiso   1.00
H255   H     0.89813   0.42071   0.99979   0.00000  Uiso   1.00
H256   H     0.62898   0.42006   0.61012   0.00000  Uiso   1.00
H257   H     0.76032   0.49804   0.80270   0.00000  Uiso   1.00
H258   H     0.08749   0.39241   0.20913   0.00000  Uiso   1.00
H259   H     0.51994   0.39104   0.38748   0.00000  Uiso   1.00
H260   H     0.79688   0.55548   0.79357   0.00000  Uiso   1.00
H261   H     0.16563   0.44672   0.72723   0.00000  Uiso   1.00
H262   H     0.31204   0.42118   0.92074   0.00000  Uiso   1.00
H263   H     0.04288   0.42052   0.53107   0.00000  Uiso   1.00
H264   H     0.17422   0.49850   0.72365   0.00000  Uiso   1.00
H265   H     0.42343   0.39279   0.14497   0.00000  Uiso   1.00
H266   H     0.85587   0.39142   0.32331   0.00000  Uiso   1.00
H267   H     0.13282   0.55586   0.72941   0.00000  Uiso   1.00
O268   O     0.34468   0.37578   0.30568   0.00000  Uiso   1.00
O269   O     0.60007   0.37398   0.22769   0.00000  Uiso   1.00
O270   O     0.96342   0.58972   0.76049   0.00000  Uiso   1.00
N271   N     0.14647   0.39601   0.16749   0.00000  Uiso   1.00
N272   N     0.61585   0.39472   0.39930   0.00000  Uiso   1.00
N273   N     0.87475   0.54846   0.77893   0.00000  Uiso   1.00
N274   N     0.32723   0.39621   0.13296   0.00000  Uiso   1.00
N275   N     0.79661   0.39493   0.36477   0.00000  Uiso   1.00
N276   N     0.05551   0.54866   0.74441   0.00000  Uiso   1.00
C277   C     0.98903   0.30394   0.22995   0.00000  Uiso   1.00
C278   C     0.01450   0.31743   0.13263   0.00000  Uiso   1.00
C279   C     0.91577   0.32901   0.03114   0.00000  Uiso   1.00
C280   C     0.95974   0.34033   0.95291   0.00000  Uiso   1.00
C281   C     0.97833   0.36134   0.79839   0.00000  Uiso   1.00
C282   C     0.08000   0.31835   0.34416   0.00000  Uiso   1.00
C283   C     0.03635   0.33069   0.42052   0.00000  Uiso   1.00
C284   C     0.13546   0.34278   0.52036   0.00000  Uiso   1.00
C285   C     0.25577   0.36519   0.69428   0.00000  Uiso   1.00
C286   C     0.04642   0.27571   0.24154   0.00000  Uiso   1.00
C287   C     0.97453   0.25220   0.23165   0.00000  Uiso   1.00
C288   C     0.04539   0.22839   0.24511   0.00000  Uiso   1.00
C289   C     0.11354   0.18459   0.25970   0.00000  Uiso   1.00
C290   C     0.24269   0.30347   0.27148   0.00000  Uiso   1.00
C291   C     0.15228   0.31718   0.15520   0.00000  Uiso   1.00
C292   C     0.19641   0.32849   0.07709   0.00000  Uiso   1.00
C293   C     0.09776   0.34008   0.97550   0.00000  Uiso   1.00
C294   C     0.21778   0.31809   0.36672   0.00000  Uiso   1.00
C295   C     0.31698   0.33017   0.46647   0.00000  Uiso   1.00
C296   C     0.27349   0.34252   0.54296   0.00000  Uiso   1.00
C297   C     0.18419   0.27545   0.26409   0.00000  Uiso   1.00
C298   C     0.25517   0.25168   0.27759   0.00000  Uiso   1.00
C299   C     0.18341   0.22813   0.26771   0.00000  Uiso   1.00
H300   H     0.88177   0.30414   0.21240   0.00000  Uiso   1.00
H301   H     0.80916   0.32921   0.01372   0.00000  Uiso   1.00
H302   H     0.92972   0.33088   0.40305   0.00000  Uiso   1.00
H303   H     0.86792   0.25240   0.21419   0.00000  Uiso   1.00
H304   H     0.78942   0.35689   0.80342   0.00000  Uiso   1.00
H305   H     0.04364   0.36042   0.62435   0.00000  Uiso   1.00
H306   H     0.91331   0.19493   0.22612   0.00000  Uiso   1.00
H307   H     0.34996   0.30327   0.28905   0.00000  Uiso   1.00
H308   H     0.30303   0.32829   0.09457   0.00000  Uiso   1.00
H309   H     0.42359   0.32996   0.48390   0.00000  Uiso   1.00
H310   H     0.36179   0.25148   0.29505   0.00000  Uiso   1.00
H311   H     0.19027   0.35615   0.86905   0.00000  Uiso   1.00
H312   H     0.44448   0.35967   0.68998   0.00000  Uiso   1.00
H313   H     0.31416   0.19419   0.29175   0.00000  Uiso   1.00
O314   O     0.95053   0.37300   0.70694   0.00000  Uiso   1.00
O315   O     0.28406   0.37763   0.78398   0.00000  Uiso   1.00
O316   O     0.11308   0.16051   0.26150   0.00000  Uiso   1.00
N317   N     0.89019   0.35328   0.84554   0.00000  Uiso   1.00
N318   N     0.12787   0.35658   0.61306   0.00000  Uiso   1.00
N319   N     0.00604   0.20186   0.24078   0.00000  Uiso   1.00
N320   N     0.10589   0.35288   0.88086   0.00000  Uiso   1.00
N321   N     0.34356   0.35618   0.64837   0.00000  Uiso   1.00
N322   N     0.22173   0.20146   0.27609   0.00000  Uiso   1.00
C323   C     0.36316   0.94638   0.78501   0.00000  Uiso   1.00
C324   C     0.48542   0.93255   0.88199   0.00000  Uiso   1.00
C325   C     0.48752   0.92081   0.98275   0.00000  Uiso   1.00
C326   C     0.60931   0.90918   0.06079   0.00000  Uiso   1.00
C327   C     0.78157   0.88768   0.21470   0.00000  Uiso   1.00
C328   C     0.33918   0.93219   0.67028   0.00000  Uiso   1.00
C329   C     0.21832   0.92015   0.59303   0.00000  Uiso   1.00
C330   C     0.21701   0.90823   0.49283   0.00000  Uiso   1.00
C331   C     0.16220   0.88618   0.31802   0.00000  Uiso   1.00
C332   C     0.41054   0.97456   0.77492   0.00000  Uiso   1.00
C333   C     0.34966   0.99815   0.78564   0.00000  Uiso   1.00
C334   C     0.40843   0.02189   0.77352   0.00000  Uiso   1.00
C335   C     0.46442   0.06563   0.76118   0.00000  Uiso   1.00
C336   C     0.57573   0.94662   0.74440   0.00000  Uiso   1.00
C337   C     0.60088   0.93268   0.85993   0.00000  Uiso   1.00
C338   C     0.72271   0.92107   0.93783   0.00000  Uiso   1.00
C339   C     0.72499   0.90931   0.03870   0.00000  Uiso   1.00
C340   C     0.45464   0.93232   0.64822   0.00000  Uiso   1.00
C341   C     0.45351   0.92042   0.54811   0.00000  Uiso   1.00
C342   C     0.33268   0.90836   0.47074   0.00000  Uiso   1.00
C343   C     0.52601   0.97469   0.75287   0.00000  Uiso   1.00
C344   C     0.58486   0.99841   0.74072   0.00000  Uiso   1.00
C345   C     0.52410   0.02202   0.75142   0.00000  Uiso   1.00
H346   H     0.27326   0.94628   0.80217   0.00000  Uiso   1.00
H347   H     0.39813   0.92071   0.99979   0.00000  Uiso   1.00
H348   H     0.12898   0.92006   0.61012   0.00000  Uiso   1.00
H349   H     0.26032   0.99804   0.80270   0.00000  Uiso   1.00
H350   H     0.58749   0.89241   0.20913   0.00000  Uiso   1.00
H351   H     0.01994   0.89104   0.38748   0.00000  Uiso   1.00
H352   H     0.29688   0.05548   0.79357   0.00000  Uiso   1.00
H353   H     0.66563   0.94672   0.72723   0.00000  Uiso   1.00
H354   H     0.81204   0.92118   0.92074   0.00000  Uiso   1.00
H355   H     0.54288   0.92052   0.53107   0.00000  Uiso   1.00
H356   H     0.67422   0.99850   0.72365   0.00000  Uiso   1.00
H357   H     0.92343   0.89279   0.14497   0.00000  Uiso   1.00
H358   H     0.35587   0.89142   0.32331   0.00000  Uiso   1.00
H359   H     0.63282   0.05586   0.72941   0.00000  Uiso   1.00
O360   O     0.84468   0.87578   0.30568   0.00000  Uiso   1.00
O361   O     0.10007   0.87398   0.22769   0.00000  Uiso   1.00
O362   O     0.46342   0.08972   0.76049   0.00000  Uiso   1.00
N363   N     0.64647   0.89601   0.16749   0.00000  Uiso   1.00
N364   N     0.11585   0.89472   0.39930   0.00000  Uiso   1.00
N365   N     0.37475   0.04846   0.77893   0.00000  Uiso   1.00
N366   N     0.82723   0.89621   0.13296   0.00000  Uiso   1.00
N367   N     0.29661   0.89493   0.36477   0.00000  Uiso   1.00
N368   N     0.55551   0.04866   0.74441   0.00000  Uiso   1.00
