data_job_04587
_audit_creation_date              2018-12-19
_audit_creation_method            'Materials Studio'
_symmetry_space_group_name_H-M    'P1'
_symmetry_Int_Tables_number       1
_symmetry_cell_setting            triclinic
loop_
_symmetry_equiv_pos_as_xyz
  x,y,z
_cell_length_a                    12.4458
_cell_length_b                    17.0866
_cell_length_c                    24.5916
_cell_angle_alpha                 90.0000
_cell_angle_beta                  90.0000
_cell_angle_gamma                 90.0000
loop_
_atom_site_label
_atom_site_type_symbol
_atom_site_fract_x
_atom_site_fract_y
_atom_site_fract_z
_atom_site_U_iso_or_equiv
_atom_site_adp_type
_atom_site_occupancy
C1     C     0.97218   0.07230   0.93569   0.00000  Uiso   1.00
C2     C     0.05889   0.07333   0.89189   0.00000  Uiso   1.00
C3     C     0.15884   0.03771   0.89550   0.00000  Uiso   1.00
C4     C     0.22677   0.04543   0.85104   0.00000  Uiso   1.00
C5     C     0.36615   0.04070   0.79009   0.00000  Uiso   1.00
C6     C     0.94655   0.15778   0.94792   0.00000  Uiso   1.00
C7     C     0.95204   0.19315   0.99865   0.00000  Uiso   1.00
C8     C     0.92539   0.27196   0.00135   0.00000  Uiso   1.00
C9     C     0.89029   0.39832   0.02740   0.00000  Uiso   1.00
C10    C     0.87198   0.03860   0.90876   0.00000  Uiso   1.00
C11    C     0.81474   0.97378   0.92658   0.00000  Uiso   1.00
C12    C     0.72529   0.95227   0.89633   0.00000  Uiso   1.00
C13    C     0.57440   0.89359   0.86158   0.00000  Uiso   1.00
C14    C     0.91509   0.14936   0.85031   0.00000  Uiso   1.00
C15    C     0.02787   0.11519   0.84551   0.00000  Uiso   1.00
C16    C     0.09567   0.12297   0.80103   0.00000  Uiso   1.00
C17    C     0.19571   0.08736   0.80458   0.00000  Uiso   1.00
C18    C     0.91554   0.19964   0.90154   0.00000  Uiso   1.00
C19    C     0.88887   0.27841   0.90418   0.00000  Uiso   1.00
C20    C     0.89433   0.31390   0.95489   0.00000  Uiso   1.00
C21    C     0.84097   0.08046   0.86238   0.00000  Uiso   1.00
C22    C     0.75158   0.05904   0.83211   0.00000  Uiso   1.00
C23    C     0.69423   0.99420   0.84987   0.00000  Uiso   1.00
H24    H     0.99632   0.03971   0.97180   0.00000  Uiso   1.00
H25    H     0.18281   0.00532   0.93140   0.00000  Uiso   1.00
H26    H     0.97603   0.16074   0.03453   0.00000  Uiso   1.00
H27    H     0.83876   0.94141   0.96247   0.00000  Uiso   1.00
H28    H     0.37591   0.98568   0.86616   0.00000  Uiso   1.00
H29    H     0.93987   0.31338   0.08362   0.00000  Uiso   1.00
H30    H     0.65041   0.85087   0.93167   0.00000  Uiso   1.00
H31    H     0.89094   0.18195   0.81420   0.00000  Uiso   1.00
H32    H     0.07165   0.15537   0.76515   0.00000  Uiso   1.00
H33    H     0.86488   0.31079   0.86828   0.00000  Uiso   1.00
H34    H     0.72761   0.09145   0.79622   0.00000  Uiso   1.00
H35    H     0.28569   0.10746   0.73123   0.00000  Uiso   1.00
H36    H     0.84965   0.43516   0.94869   0.00000  Uiso   1.00
H37    H     0.56019   0.97265   0.79673   0.00000  Uiso   1.00
O38    O     0.45159   0.02654   0.76928   0.00000  Uiso   1.00
O39    O     0.87950   0.45646   0.05458   0.00000  Uiso   1.00
O40    O     0.49975   0.84965   0.85522   0.00000  Uiso   1.00
N41    N     0.32987   0.01798   0.84113   0.00000  Uiso   1.00
N42    N     0.92221   0.32436   0.04444   0.00000  Uiso   1.00
N43    N     0.65157   0.89196   0.90239   0.00000  Uiso   1.00
N44    N     0.28132   0.08351   0.76853   0.00000  Uiso   1.00
N45    N     0.87367   0.38989   0.97183   0.00000  Uiso   1.00
N46    N     0.60303   0.95749   0.82978   0.00000  Uiso   1.00
C47    C     0.52782   0.42770   0.93569   0.00000  Uiso   1.00
C48    C     0.44111   0.42667   0.89189   0.00000  Uiso   1.00
C49    C     0.34116   0.46229   0.89550   0.00000  Uiso   1.00
C50    C     0.27323   0.45457   0.85104   0.00000  Uiso   1.00
C51    C     0.13385   0.45930   0.79009   0.00000  Uiso   1.00
C52    C     0.55345   0.34222   0.94792   0.00000  Uiso   1.00
C53    C     0.54796   0.30685   0.99865   0.00000  Uiso   1.00
C54    C     0.57461   0.22804   0.00135   0.00000  Uiso   1.00
C55    C     0.60971   0.10168   0.02740   0.00000  Uiso   1.00
C56    C     0.62802   0.46140   0.90876   0.00000  Uiso   1.00
C57    C     0.68526   0.52622   0.92658   0.00000  Uiso   1.00
C58    C     0.77471   0.54773   0.89633   0.00000  Uiso   1.00
C59    C     0.92560   0.60641   0.86158   0.00000  Uiso   1.00
C60    C     0.58491   0.35064   0.85031   0.00000  Uiso   1.00
C61    C     0.47213   0.38481   0.84551   0.00000  Uiso   1.00
C62    C     0.40433   0.37703   0.80103   0.00000  Uiso   1.00
C63    C     0.30429   0.41264   0.80458   0.00000  Uiso   1.00
C64    C     0.58446   0.30036   0.90154   0.00000  Uiso   1.00
C65    C     0.61113   0.22159   0.90418   0.00000  Uiso   1.00
C66    C     0.60567   0.18610   0.95489   0.00000  Uiso   1.00
C67    C     0.65903   0.41954   0.86238   0.00000  Uiso   1.00
C68    C     0.74842   0.44096   0.83211   0.00000  Uiso   1.00
C69    C     0.80577   0.50580   0.84987   0.00000  Uiso   1.00
H70    H     0.50368   0.46029   0.97180   0.00000  Uiso   1.00
H71    H     0.31719   0.49468   0.93140   0.00000  Uiso   1.00
H72    H     0.52397   0.33926   0.03453   0.00000  Uiso   1.00
H73    H     0.66124   0.55859   0.96247   0.00000  Uiso   1.00
H74    H     0.12409   0.51432   0.86616   0.00000  Uiso   1.00
H75    H     0.56013   0.18662   0.08362   0.00000  Uiso   1.00
H76    H     0.84959   0.64913   0.93167   0.00000  Uiso   1.00
H77    H     0.60906   0.31805   0.81420   0.00000  Uiso   1.00
H78    H     0.42835   0.34463   0.76515   0.00000  Uiso   1.00
H79    H     0.63512   0.18921   0.86828   0.00000  Uiso   1.00
H80    H     0.77239   0.40855   0.79622   0.00000  Uiso   1.00
H81    H     0.21431   0.39254   0.73123   0.00000  Uiso   1.00
H82    H     0.65035   0.06484   0.94869   0.00000  Uiso   1.00
H83    H     0.93981   0.52735   0.79673   0.00000  Uiso   1.00
O84    O     0.04841   0.47346   0.76928   0.00000  Uiso   1.00
O85    O     0.62050   0.04354   0.05458   0.00000  Uiso   1.00
O86    O     0.00025   0.65035   0.85522   0.00000  Uiso   1.00
N87    N     0.17013   0.48202   0.84113   0.00000  Uiso   1.00
N88    N     0.57779   0.17564   0.04444   0.00000  Uiso   1.00
N89    N     0.84843   0.60804   0.90239   0.00000  Uiso   1.00
N90    N     0.21868   0.41649   0.76853   0.00000  Uiso   1.00
N91    N     0.62633   0.11011   0.97183   0.00000  Uiso   1.00
N92    N     0.89697   0.54251   0.82978   0.00000  Uiso   1.00
C93    C     0.02782   0.57230   0.56431   0.00000  Uiso   1.00
C94    C     0.94111   0.57333   0.60811   0.00000  Uiso   1.00
C95    C     0.84116   0.53771   0.60450   0.00000  Uiso   1.00
C96    C     0.77323   0.54543   0.64896   0.00000  Uiso   1.00
C97    C     0.63385   0.54070   0.70991   0.00000  Uiso   1.00
C98    C     0.05345   0.65778   0.55208   0.00000  Uiso   1.00
C99    C     0.04796   0.69315   0.50135   0.00000  Uiso   1.00
C100   C     0.07461   0.77196   0.49865   0.00000  Uiso   1.00
C101   C     0.10971   0.89832   0.47260   0.00000  Uiso   1.00
C102   C     0.12802   0.53860   0.59124   0.00000  Uiso   1.00
C103   C     0.18526   0.47378   0.57342   0.00000  Uiso   1.00
C104   C     0.27471   0.45227   0.60367   0.00000  Uiso   1.00
C105   C     0.42560   0.39359   0.63842   0.00000  Uiso   1.00
C106   C     0.08491   0.64936   0.64969   0.00000  Uiso   1.00
C107   C     0.97213   0.61519   0.65449   0.00000  Uiso   1.00
C108   C     0.90433   0.62297   0.69897   0.00000  Uiso   1.00
C109   C     0.80429   0.58736   0.69542   0.00000  Uiso   1.00
C110   C     0.08446   0.69964   0.59846   0.00000  Uiso   1.00
C111   C     0.11113   0.77841   0.59582   0.00000  Uiso   1.00
C112   C     0.10567   0.81390   0.54511   0.00000  Uiso   1.00
C113   C     0.15903   0.58046   0.63762   0.00000  Uiso   1.00
C114   C     0.24842   0.55904   0.66789   0.00000  Uiso   1.00
C115   C     0.30577   0.49420   0.65013   0.00000  Uiso   1.00
H116   H     0.00368   0.53971   0.52820   0.00000  Uiso   1.00
H117   H     0.81719   0.50532   0.56860   0.00000  Uiso   1.00
H118   H     0.02397   0.66074   0.46547   0.00000  Uiso   1.00
H119   H     0.16124   0.44141   0.53753   0.00000  Uiso   1.00
H120   H     0.62409   0.48568   0.63384   0.00000  Uiso   1.00
H121   H     0.06013   0.81338   0.41638   0.00000  Uiso   1.00
H122   H     0.34959   0.35087   0.56833   0.00000  Uiso   1.00
H123   H     0.10906   0.68195   0.68580   0.00000  Uiso   1.00
H124   H     0.92835   0.65537   0.73485   0.00000  Uiso   1.00
H125   H     0.13512   0.81079   0.63172   0.00000  Uiso   1.00
H126   H     0.27239   0.59145   0.70378   0.00000  Uiso   1.00
H127   H     0.71431   0.60746   0.76877   0.00000  Uiso   1.00
H128   H     0.15035   0.93516   0.55131   0.00000  Uiso   1.00
H129   H     0.43981   0.47265   0.70327   0.00000  Uiso   1.00
O130   O     0.54841   0.52654   0.73072   0.00000  Uiso   1.00
O131   O     0.12050   0.95646   0.44542   0.00000  Uiso   1.00
O132   O     0.50025   0.34965   0.64478   0.00000  Uiso   1.00
N133   N     0.67013   0.51798   0.65887   0.00000  Uiso   1.00
N134   N     0.07779   0.82436   0.45556   0.00000  Uiso   1.00
N135   N     0.34843   0.39196   0.59761   0.00000  Uiso   1.00
N136   N     0.71868   0.58351   0.73147   0.00000  Uiso   1.00
N137   N     0.12633   0.88989   0.52817   0.00000  Uiso   1.00
N138   N     0.39697   0.45749   0.67022   0.00000  Uiso   1.00
C139   C     0.47218   0.92770   0.56431   0.00000  Uiso   1.00
C140   C     0.55889   0.92667   0.60811   0.00000  Uiso   1.00
C141   C     0.65884   0.96229   0.60450   0.00000  Uiso   1.00
C142   C     0.72677   0.95457   0.64896   0.00000  Uiso   1.00
C143   C     0.86615   0.95930   0.70991   0.00000  Uiso   1.00
C144   C     0.44655   0.84222   0.55208   0.00000  Uiso   1.00
C145   C     0.45204   0.80685   0.50135   0.00000  Uiso   1.00
C146   C     0.42539   0.72804   0.49865   0.00000  Uiso   1.00
C147   C     0.39029   0.60168   0.47260   0.00000  Uiso   1.00
C148   C     0.37198   0.96140   0.59124   0.00000  Uiso   1.00
C149   C     0.31474   0.02622   0.57342   0.00000  Uiso   1.00
C150   C     0.22529   0.04773   0.60367   0.00000  Uiso   1.00
C151   C     0.07440   0.10641   0.63842   0.00000  Uiso   1.00
C152   C     0.41509   0.85064   0.64969   0.00000  Uiso   1.00
C153   C     0.52787   0.88481   0.65449   0.00000  Uiso   1.00
C154   C     0.59567   0.87703   0.69897   0.00000  Uiso   1.00
C155   C     0.69571   0.91264   0.69542   0.00000  Uiso   1.00
C156   C     0.41554   0.80036   0.59846   0.00000  Uiso   1.00
C157   C     0.38887   0.72159   0.59582   0.00000  Uiso   1.00
C158   C     0.39433   0.68610   0.54511   0.00000  Uiso   1.00
C159   C     0.34097   0.91954   0.63762   0.00000  Uiso   1.00
C160   C     0.25158   0.94096   0.66789   0.00000  Uiso   1.00
C161   C     0.19423   0.00580   0.65013   0.00000  Uiso   1.00
H162   H     0.49632   0.96029   0.52820   0.00000  Uiso   1.00
H163   H     0.68281   0.99468   0.56860   0.00000  Uiso   1.00
H164   H     0.47603   0.83926   0.46547   0.00000  Uiso   1.00
H165   H     0.33876   0.05859   0.53753   0.00000  Uiso   1.00
H166   H     0.87591   0.01432   0.63384   0.00000  Uiso   1.00
H167   H     0.43987   0.68662   0.41638   0.00000  Uiso   1.00
H168   H     0.15041   0.14913   0.56833   0.00000  Uiso   1.00
H169   H     0.39094   0.81805   0.68580   0.00000  Uiso   1.00
H170   H     0.57165   0.84463   0.73485   0.00000  Uiso   1.00
H171   H     0.36488   0.68921   0.63172   0.00000  Uiso   1.00
H172   H     0.22761   0.90855   0.70378   0.00000  Uiso   1.00
H173   H     0.78569   0.89254   0.76877   0.00000  Uiso   1.00
H174   H     0.34965   0.56484   0.55131   0.00000  Uiso   1.00
H175   H     0.06019   0.02735   0.70327   0.00000  Uiso   1.00
O176   O     0.95159   0.97346   0.73072   0.00000  Uiso   1.00
O177   O     0.37950   0.54354   0.44542   0.00000  Uiso   1.00
O178   O     0.99975   0.15035   0.64478   0.00000  Uiso   1.00
N179   N     0.82987   0.98202   0.65887   0.00000  Uiso   1.00
N180   N     0.42221   0.67564   0.45556   0.00000  Uiso   1.00
N181   N     0.15157   0.10804   0.59761   0.00000  Uiso   1.00
N182   N     0.78132   0.91649   0.73147   0.00000  Uiso   1.00
N183   N     0.37367   0.61011   0.52817   0.00000  Uiso   1.00
N184   N     0.10303   0.04251   0.67022   0.00000  Uiso   1.00
C185   C     0.02782   0.92770   0.06431   0.00000  Uiso   1.00
C186   C     0.94111   0.92667   0.10811   0.00000  Uiso   1.00
C187   C     0.84116   0.96229   0.10450   0.00000  Uiso   1.00
C188   C     0.77323   0.95457   0.14896   0.00000  Uiso   1.00
C189   C     0.63385   0.95930   0.20991   0.00000  Uiso   1.00
C190   C     0.05345   0.84222   0.05208   0.00000  Uiso   1.00
C191   C     0.04796   0.80685   0.00135   0.00000  Uiso   1.00
C192   C     0.07461   0.72804   0.99865   0.00000  Uiso   1.00
C193   C     0.10971   0.60168   0.97260   0.00000  Uiso   1.00
C194   C     0.12802   0.96140   0.09124   0.00000  Uiso   1.00
C195   C     0.18526   0.02622   0.07342   0.00000  Uiso   1.00
C196   C     0.27471   0.04773   0.10367   0.00000  Uiso   1.00
C197   C     0.42560   0.10641   0.13842   0.00000  Uiso   1.00
C198   C     0.08491   0.85064   0.14969   0.00000  Uiso   1.00
C199   C     0.97213   0.88481   0.15449   0.00000  Uiso   1.00
C200   C     0.90433   0.87703   0.19897   0.00000  Uiso   1.00
C201   C     0.80429   0.91264   0.19542   0.00000  Uiso   1.00
C202   C     0.08446   0.80036   0.09846   0.00000  Uiso   1.00
C203   C     0.11113   0.72159   0.09582   0.00000  Uiso   1.00
C204   C     0.10567   0.68610   0.04511   0.00000  Uiso   1.00
C205   C     0.15903   0.91954   0.13762   0.00000  Uiso   1.00
C206   C     0.24842   0.94096   0.16789   0.00000  Uiso   1.00
C207   C     0.30577   0.00580   0.15013   0.00000  Uiso   1.00
H208   H     0.00368   0.96029   0.02820   0.00000  Uiso   1.00
H209   H     0.81719   0.99468   0.06860   0.00000  Uiso   1.00
H210   H     0.02397   0.83926   0.96547   0.00000  Uiso   1.00
H211   H     0.16124   0.05859   0.03753   0.00000  Uiso   1.00
H212   H     0.62409   0.01432   0.13384   0.00000  Uiso   1.00
H213   H     0.06013   0.68662   0.91638   0.00000  Uiso   1.00
H214   H     0.34959   0.14913   0.06833   0.00000  Uiso   1.00
H215   H     0.10906   0.81805   0.18580   0.00000  Uiso   1.00
H216   H     0.92835   0.84463   0.23485   0.00000  Uiso   1.00
H217   H     0.13512   0.68921   0.13172   0.00000  Uiso   1.00
H218   H     0.27239   0.90855   0.20378   0.00000  Uiso   1.00
H219   H     0.71431   0.89254   0.26877   0.00000  Uiso   1.00
H220   H     0.15035   0.56484   0.05131   0.00000  Uiso   1.00
H221   H     0.43981   0.02735   0.20327   0.00000  Uiso   1.00
O222   O     0.54841   0.97346   0.23072   0.00000  Uiso   1.00
O223   O     0.12050   0.54354   0.94542   0.00000  Uiso   1.00
O224   O     0.50025   0.15035   0.14478   0.00000  Uiso   1.00
N225   N     0.67013   0.98202   0.15887   0.00000  Uiso   1.00
N226   N     0.07779   0.67564   0.95556   0.00000  Uiso   1.00
N227   N     0.34843   0.10804   0.09761   0.00000  Uiso   1.00
N228   N     0.71868   0.91649   0.23147   0.00000  Uiso   1.00
N229   N     0.12633   0.61011   0.02817   0.00000  Uiso   1.00
N230   N     0.39697   0.04251   0.17022   0.00000  Uiso   1.00
C231   C     0.47218   0.57230   0.06431   0.00000  Uiso   1.00
C232   C     0.55889   0.57333   0.10811   0.00000  Uiso   1.00
C233   C     0.65884   0.53771   0.10450   0.00000  Uiso   1.00
C234   C     0.72677   0.54543   0.14896   0.00000  Uiso   1.00
C235   C     0.86615   0.54070   0.20991   0.00000  Uiso   1.00
C236   C     0.44655   0.65778   0.05208   0.00000  Uiso   1.00
C237   C     0.45204   0.69315   0.00135   0.00000  Uiso   1.00
C238   C     0.42539   0.77196   0.99865   0.00000  Uiso   1.00
C239   C     0.39029   0.89832   0.97260   0.00000  Uiso   1.00
C240   C     0.37198   0.53860   0.09124   0.00000  Uiso   1.00
C241   C     0.31474   0.47378   0.07342   0.00000  Uiso   1.00
C242   C     0.22529   0.45227   0.10367   0.00000  Uiso   1.00
C243   C     0.07440   0.39359   0.13842   0.00000  Uiso   1.00
C244   C     0.41509   0.64936   0.14969   0.00000  Uiso   1.00
C245   C     0.52787   0.61519   0.15449   0.00000  Uiso   1.00
C246   C     0.59567   0.62297   0.19897   0.00000  Uiso   1.00
C247   C     0.69571   0.58736   0.19542   0.00000  Uiso   1.00
C248   C     0.41554   0.69964   0.09846   0.00000  Uiso   1.00
C249   C     0.38887   0.77841   0.09582   0.00000  Uiso   1.00
C250   C     0.39433   0.81390   0.04511   0.00000  Uiso   1.00
C251   C     0.34097   0.58046   0.13762   0.00000  Uiso   1.00
C252   C     0.25158   0.55904   0.16789   0.00000  Uiso   1.00
C253   C     0.19423   0.49420   0.15013   0.00000  Uiso   1.00
H254   H     0.49632   0.53971   0.02820   0.00000  Uiso   1.00
H255   H     0.68281   0.50532   0.06860   0.00000  Uiso   1.00
H256   H     0.47603   0.66074   0.96547   0.00000  Uiso   1.00
H257   H     0.33876   0.44141   0.03753   0.00000  Uiso   1.00
H258   H     0.87591   0.48568   0.13384   0.00000  Uiso   1.00
H259   H     0.43987   0.81338   0.91638   0.00000  Uiso   1.00
H260   H     0.15041   0.35087   0.06833   0.00000  Uiso   1.00
H261   H     0.39094   0.68195   0.18580   0.00000  Uiso   1.00
H262   H     0.57165   0.65537   0.23485   0.00000  Uiso   1.00
H263   H     0.36488   0.81079   0.13172   0.00000  Uiso   1.00
H264   H     0.22761   0.59145   0.20378   0.00000  Uiso   1.00
H265   H     0.78569   0.60746   0.26877   0.00000  Uiso   1.00
H266   H     0.34965   0.93516   0.05131   0.00000  Uiso   1.00
H267   H     0.06019   0.47265   0.20327   0.00000  Uiso   1.00
O268   O     0.95159   0.52654   0.23072   0.00000  Uiso   1.00
O269   O     0.37950   0.95646   0.94542   0.00000  Uiso   1.00
O270   O     0.99975   0.34965   0.14478   0.00000  Uiso   1.00
N271   N     0.82987   0.51798   0.15887   0.00000  Uiso   1.00
N272   N     0.42221   0.82436   0.95556   0.00000  Uiso   1.00
N273   N     0.15157   0.39196   0.09761   0.00000  Uiso   1.00
N274   N     0.78132   0.58351   0.23147   0.00000  Uiso   1.00
N275   N     0.37367   0.88989   0.02817   0.00000  Uiso   1.00
N276   N     0.10303   0.45749   0.17022   0.00000  Uiso   1.00
C277   C     0.97218   0.42770   0.43569   0.00000  Uiso   1.00
C278   C     0.05889   0.42667   0.39189   0.00000  Uiso   1.00
C279   C     0.15884   0.46229   0.39550   0.00000  Uiso   1.00
C280   C     0.22677   0.45457   0.35104   0.00000  Uiso   1.00
C281   C     0.36615   0.45930   0.29009   0.00000  Uiso   1.00
C282   C     0.94655   0.34222   0.44792   0.00000  Uiso   1.00
C283   C     0.95204   0.30685   0.49865   0.00000  Uiso   1.00
C284   C     0.92539   0.22804   0.50135   0.00000  Uiso   1.00
C285   C     0.89029   0.10168   0.52740   0.00000  Uiso   1.00
C286   C     0.87198   0.46140   0.40876   0.00000  Uiso   1.00
C287   C     0.81474   0.52622   0.42658   0.00000  Uiso   1.00
C288   C     0.72529   0.54773   0.39633   0.00000  Uiso   1.00
C289   C     0.57440   0.60641   0.36158   0.00000  Uiso   1.00
C290   C     0.91509   0.35064   0.35031   0.00000  Uiso   1.00
C291   C     0.02787   0.38481   0.34551   0.00000  Uiso   1.00
C292   C     0.09567   0.37703   0.30103   0.00000  Uiso   1.00
C293   C     0.19571   0.41264   0.30458   0.00000  Uiso   1.00
C294   C     0.91554   0.30036   0.40154   0.00000  Uiso   1.00
C295   C     0.88887   0.22159   0.40418   0.00000  Uiso   1.00
C296   C     0.89433   0.18610   0.45489   0.00000  Uiso   1.00
C297   C     0.84097   0.41954   0.36238   0.00000  Uiso   1.00
C298   C     0.75158   0.44096   0.33211   0.00000  Uiso   1.00
C299   C     0.69423   0.50580   0.34987   0.00000  Uiso   1.00
H300   H     0.99632   0.46029   0.47180   0.00000  Uiso   1.00
H301   H     0.18281   0.49468   0.43140   0.00000  Uiso   1.00
H302   H     0.97603   0.33926   0.53453   0.00000  Uiso   1.00
H303   H     0.83876   0.55859   0.46247   0.00000  Uiso   1.00
H304   H     0.37591   0.51432   0.36616   0.00000  Uiso   1.00
H305   H     0.93987   0.18662   0.58362   0.00000  Uiso   1.00
H306   H     0.65041   0.64913   0.43167   0.00000  Uiso   1.00
H307   H     0.89094   0.31805   0.31420   0.00000  Uiso   1.00
H308   H     0.07165   0.34463   0.26515   0.00000  Uiso   1.00
H309   H     0.86488   0.18921   0.36828   0.00000  Uiso   1.00
H310   H     0.72761   0.40855   0.29622   0.00000  Uiso   1.00
H311   H     0.28569   0.39254   0.23123   0.00000  Uiso   1.00
H312   H     0.84965   0.06484   0.44869   0.00000  Uiso   1.00
H313   H     0.56019   0.52735   0.29673   0.00000  Uiso   1.00
O314   O     0.45159   0.47346   0.26928   0.00000  Uiso   1.00
O315   O     0.87950   0.04354   0.55458   0.00000  Uiso   1.00
O316   O     0.49975   0.65035   0.35522   0.00000  Uiso   1.00
N317   N     0.32987   0.48202   0.34113   0.00000  Uiso   1.00
N318   N     0.92221   0.17564   0.54444   0.00000  Uiso   1.00
N319   N     0.65157   0.60804   0.40239   0.00000  Uiso   1.00
N320   N     0.28132   0.41649   0.26853   0.00000  Uiso   1.00
N321   N     0.87367   0.11011   0.47183   0.00000  Uiso   1.00
N322   N     0.60303   0.54251   0.32978   0.00000  Uiso   1.00
C323   C     0.52782   0.07230   0.43569   0.00000  Uiso   1.00
C324   C     0.44111   0.07333   0.39189   0.00000  Uiso   1.00
C325   C     0.34116   0.03771   0.39550   0.00000  Uiso   1.00
C326   C     0.27323   0.04543   0.35104   0.00000  Uiso   1.00
C327   C     0.13385   0.04070   0.29009   0.00000  Uiso   1.00
C328   C     0.55345   0.15778   0.44792   0.00000  Uiso   1.00
C329   C     0.54796   0.19315   0.49865   0.00000  Uiso   1.00
C330   C     0.57461   0.27196   0.50135   0.00000  Uiso   1.00
C331   C     0.60971   0.39832   0.52740   0.00000  Uiso   1.00
C332   C     0.62802   0.03860   0.40876   0.00000  Uiso   1.00
C333   C     0.68526   0.97378   0.42658   0.00000  Uiso   1.00
C334   C     0.77471   0.95227   0.39633   0.00000  Uiso   1.00
C335   C     0.92560   0.89359   0.36158   0.00000  Uiso   1.00
C336   C     0.58491   0.14936   0.35031   0.00000  Uiso   1.00
C337   C     0.47213   0.11519   0.34551   0.00000  Uiso   1.00
C338   C     0.40433   0.12297   0.30103   0.00000  Uiso   1.00
C339   C     0.30429   0.08736   0.30458   0.00000  Uiso   1.00
C340   C     0.58446   0.19964   0.40154   0.00000  Uiso   1.00
C341   C     0.61113   0.27841   0.40418   0.00000  Uiso   1.00
C342   C     0.60567   0.31390   0.45489   0.00000  Uiso   1.00
C343   C     0.65903   0.08046   0.36238   0.00000  Uiso   1.00
C344   C     0.74842   0.05904   0.33211   0.00000  Uiso   1.00
C345   C     0.80577   0.99420   0.34987   0.00000  Uiso   1.00
H346   H     0.50368   0.03971   0.47180   0.00000  Uiso   1.00
H347   H     0.31719   0.00532   0.43140   0.00000  Uiso   1.00
H348   H     0.52397   0.16074   0.53453   0.00000  Uiso   1.00
H349   H     0.66124   0.94141   0.46247   0.00000  Uiso   1.00
H350   H     0.12409   0.98568   0.36616   0.00000  Uiso   1.00
H351   H     0.56013   0.31338   0.58362   0.00000  Uiso   1.00
H352   H     0.84959   0.85087   0.43167   0.00000  Uiso   1.00
H353   H     0.60906   0.18195   0.31420   0.00000  Uiso   1.00
H354   H     0.42835   0.15537   0.26515   0.00000  Uiso   1.00
H355   H     0.63512   0.31079   0.36828   0.00000  Uiso   1.00
H356   H     0.77239   0.09145   0.29622   0.00000  Uiso   1.00
H357   H     0.21431   0.10746   0.23123   0.00000  Uiso   1.00
H358   H     0.65035   0.43516   0.44869   0.00000  Uiso   1.00
H359   H     0.93981   0.97265   0.29673   0.00000  Uiso   1.00
O360   O     0.04841   0.02654   0.26928   0.00000  Uiso   1.00
O361   O     0.62050   0.45646   0.55458   0.00000  Uiso   1.00
O362   O     0.00025   0.84965   0.35522   0.00000  Uiso   1.00
N363   N     0.17013   0.01798   0.34113   0.00000  Uiso   1.00
N364   N     0.57779   0.32436   0.54444   0.00000  Uiso   1.00
N365   N     0.84843   0.89196   0.40239   0.00000  Uiso   1.00
N366   N     0.21868   0.08351   0.26853   0.00000  Uiso   1.00
N367   N     0.62633   0.38989   0.47183   0.00000  Uiso   1.00
N368   N     0.89697   0.95749   0.32978   0.00000  Uiso   1.00
