data_job_05212
_audit_creation_date              2018-12-19
_audit_creation_method            'Materials Studio'
_symmetry_space_group_name_H-M    'P1'
_symmetry_Int_Tables_number       1
_symmetry_cell_setting            triclinic
loop_
_symmetry_equiv_pos_as_xyz
  x,y,z
_cell_length_a                    21.6005
_cell_length_b                    15.9969
_cell_length_c                    15.4355
_cell_angle_alpha                 90.0000
_cell_angle_beta                  90.0000
_cell_angle_gamma                 90.0000
loop_
_atom_site_label
_atom_site_type_symbol
_atom_site_fract_x
_atom_site_fract_y
_atom_site_fract_z
_atom_site_U_iso_or_equiv
_atom_site_adp_type
_atom_site_occupancy
C1     C     0.15565   0.87260   0.33387   0.00000  Uiso   1.00
C2     C     0.14292   0.96465   0.35238   0.00000  Uiso   1.00
C3     C     0.08927   0.00762   0.33085   0.00000  Uiso   1.00
C4     C     0.08661   0.09157   0.35340   0.00000  Uiso   1.00
C5     C     0.05934   0.22848   0.37570   0.00000  Uiso   1.00
C6     C     0.17056   0.83275   0.42116   0.00000  Uiso   1.00
C7     C     0.14015   0.76482   0.45746   0.00000  Uiso   1.00
C8     C     0.16075   0.73773   0.53791   0.00000  Uiso   1.00
C9     C     0.17643   0.66984   0.66697   0.00000  Uiso   1.00
C10    C     0.21559   0.87019   0.28176   0.00000  Uiso   1.00
C11    C     0.22306   0.83371   0.20085   0.00000  Uiso   1.00
C12    C     0.28158   0.83812   0.16393   0.00000  Uiso   1.00
C13    C     0.36718   0.82834   0.07654   0.00000  Uiso   1.00
C14    C     0.24631   0.94526   0.41219   0.00000  Uiso   1.00
C15    C     0.19217   0.00411   0.39492   0.00000  Uiso   1.00
C16    C     0.18958   0.08801   0.41750   0.00000  Uiso   1.00
C17    C     0.13594   0.13110   0.39601   0.00000  Uiso   1.00
C18    C     0.21980   0.87221   0.46370   0.00000  Uiso   1.00
C19    C     0.24046   0.84521   0.54411   0.00000  Uiso   1.00
C20    C     0.21009   0.77727   0.58052   0.00000  Uiso   1.00
C21    C     0.26484   0.90965   0.32429   0.00000  Uiso   1.00
C22    C     0.32337   0.91411   0.28750   0.00000  Uiso   1.00
C23    C     0.33092   0.87765   0.20655   0.00000  Uiso   1.00
H24    H     0.11731   0.84187   0.30076   0.00000  Uiso   1.00
H25    H     0.05117   0.97706   0.29794   0.00000  Uiso   1.00
H26    H     0.10205   0.73429   0.42452   0.00000  Uiso   1.00
H27    H     0.18494   0.80318   0.16795   0.00000  Uiso   1.00
H28    H     0.99955   0.14433   0.31360   0.00000  Uiso   1.00
H29    H     0.10684   0.63243   0.58050   0.00000  Uiso   1.00
H30    H     0.28164   0.77768   0.03946   0.00000  Uiso   1.00
H31    H     0.28465   0.97598   0.44531   0.00000  Uiso   1.00
H32    H     0.22770   0.11853   0.45042   0.00000  Uiso   1.00
H33    H     0.27857   0.87577   0.57701   0.00000  Uiso   1.00
H34    H     0.36146   0.94465   0.32043   0.00000  Uiso   1.00
H35    H     0.14283   0.25916   0.43736   0.00000  Uiso   1.00
H36    H     0.25012   0.74725   0.70426   0.00000  Uiso   1.00
H37    H     0.42491   0.89251   0.16323   0.00000  Uiso   1.00
O38    O     0.03070   0.29309   0.37626   0.00000  Uiso   1.00
O39    O     0.17146   0.62149   0.72641   0.00000  Uiso   1.00
O40    O     0.40078   0.81206   0.01659   0.00000  Uiso   1.00
N41    N     0.04109   0.15180   0.34201   0.00000  Uiso   1.00
N42    N     0.14139   0.67321   0.59155   0.00000  Uiso   1.00
N43    N     0.30482   0.80899   0.08574   0.00000  Uiso   1.00
N44    N     0.11819   0.21359   0.40860   0.00000  Uiso   1.00
N45    N     0.21849   0.73500   0.65815   0.00000  Uiso   1.00
N46    N     0.38191   0.87077   0.15233   0.00000  Uiso   1.00
C47    C     0.34006   0.50872   0.17713   0.00000  Uiso   1.00
C48    C     0.36015   0.41825   0.16371   0.00000  Uiso   1.00
C49    C     0.41638   0.38413   0.18903   0.00000  Uiso   1.00
C50    C     0.42592   0.30011   0.17086   0.00000  Uiso   1.00
C51    C     0.46398   0.16697   0.15637   0.00000  Uiso   1.00
C52    C     0.32386   0.54229   0.08749   0.00000  Uiso   1.00
C53    C     0.34957   0.61245   0.04873   0.00000  Uiso   1.00
C54    C     0.32855   0.63285   0.96640   0.00000  Uiso   1.00
C55    C     0.31024   0.69230   0.83360   0.00000  Uiso   1.00
C56    C     0.27927   0.50495   0.22720   0.00000  Uiso   1.00
C57    C     0.26749   0.54374   0.30592   0.00000  Uiso   1.00
C58    C     0.20892   0.53272   0.34120   0.00000  Uiso   1.00
C59    C     0.12139   0.53421   0.42533   0.00000  Uiso   1.00
C60    C     0.25702   0.42019   0.09982   0.00000  Uiso   1.00
C61    C     0.31504   0.37017   0.12171   0.00000  Uiso   1.00
C62    C     0.32450   0.28618   0.10350   0.00000  Uiso   1.00
C63    C     0.38073   0.25194   0.12879   0.00000  Uiso   1.00
C64    C     0.27875   0.49420   0.04549   0.00000  Uiso   1.00
C65    C     0.25769   0.51450   0.96320   0.00000  Uiso   1.00
C66    C     0.28337   0.58468   0.92433   0.00000  Uiso   1.00
C67    C     0.23417   0.45686   0.18521   0.00000  Uiso   1.00
C68    C     0.17561   0.44579   0.22038   0.00000  Uiso   1.00
C69    C     0.16374   0.48455   0.29913   0.00000  Uiso   1.00
H70    H     0.37518   0.54616   0.20982   0.00000  Uiso   1.00
H71    H     0.45127   0.42137   0.22152   0.00000  Uiso   1.00
H72    H     0.38447   0.64966   0.08125   0.00000  Uiso   1.00
H73    H     0.30240   0.58095   0.33839   0.00000  Uiso   1.00
H74    H     0.51575   0.26181   0.21595   0.00000  Uiso   1.00
H75    H     0.37489   0.74319   0.92019   0.00000  Uiso   1.00
H76    H     0.20183   0.59832   0.46242   0.00000  Uiso   1.00
H77    H     0.22190   0.38275   0.06712   0.00000  Uiso   1.00
H78    H     0.28958   0.24898   0.07100   0.00000  Uiso   1.00
H79    H     0.22278   0.47728   0.93072   0.00000  Uiso   1.00
H80    H     0.14071   0.40857   0.18786   0.00000  Uiso   1.00
H81    H     0.38452   0.12190   0.09378   0.00000  Uiso   1.00
H82    H     0.24365   0.60329   0.79802   0.00000  Uiso   1.00
H83    H     0.07059   0.45841   0.34025   0.00000  Uiso   1.00
O84    O     0.49744   0.10682   0.15996   0.00000  Uiso   1.00
O85    O     0.31261   0.73838   0.77195   0.00000  Uiso   1.00
O86    O     0.08557   0.54830   0.48334   0.00000  Uiso   1.00
N87    N     0.47557   0.24724   0.18668   0.00000  Uiso   1.00
N88    N     0.34388   0.69729   0.91016   0.00000  Uiso   1.00
N89    N     0.18208   0.56186   0.41709   0.00000  Uiso   1.00
N90    N     0.40496   0.17195   0.12094   0.00000  Uiso   1.00
N91    N     0.27326   0.62201   0.84442   0.00000  Uiso   1.00
N92    N     0.11146   0.48658   0.35135   0.00000  Uiso   1.00
C93    C     0.84435   0.12740   0.33387   0.00000  Uiso   1.00
C94    C     0.85708   0.03535   0.35238   0.00000  Uiso   1.00
C95    C     0.91073   0.99238   0.33085   0.00000  Uiso   1.00
C96    C     0.91339   0.90843   0.35340   0.00000  Uiso   1.00
C97    C     0.94066   0.77152   0.37570   0.00000  Uiso   1.00
C98    C     0.82944   0.16725   0.42116   0.00000  Uiso   1.00
C99    C     0.85985   0.23518   0.45746   0.00000  Uiso   1.00
C100   C     0.83925   0.26227   0.53791   0.00000  Uiso   1.00
C101   C     0.82357   0.33016   0.66697   0.00000  Uiso   1.00
C102   C     0.78441   0.12981   0.28176   0.00000  Uiso   1.00
C103   C     0.77694   0.16629   0.20085   0.00000  Uiso   1.00
C104   C     0.71842   0.16188   0.16393   0.00000  Uiso   1.00
C105   C     0.63282   0.17166   0.07654   0.00000  Uiso   1.00
C106   C     0.75369   0.05474   0.41219   0.00000  Uiso   1.00
C107   C     0.80783   0.99589   0.39492   0.00000  Uiso   1.00
C108   C     0.81042   0.91199   0.41750   0.00000  Uiso   1.00
C109   C     0.86406   0.86890   0.39601   0.00000  Uiso   1.00
C110   C     0.78020   0.12779   0.46370   0.00000  Uiso   1.00
C111   C     0.75954   0.15479   0.54411   0.00000  Uiso   1.00
C112   C     0.78991   0.22273   0.58052   0.00000  Uiso   1.00
C113   C     0.73516   0.09035   0.32429   0.00000  Uiso   1.00
C114   C     0.67663   0.08589   0.28750   0.00000  Uiso   1.00
C115   C     0.66908   0.12235   0.20655   0.00000  Uiso   1.00
H116   H     0.88269   0.15813   0.30076   0.00000  Uiso   1.00
H117   H     0.94883   0.02294   0.29794   0.00000  Uiso   1.00
H118   H     0.89795   0.26571   0.42452   0.00000  Uiso   1.00
H119   H     0.81506   0.19682   0.16795   0.00000  Uiso   1.00
H120   H     0.00045   0.85567   0.31360   0.00000  Uiso   1.00
H121   H     0.89316   0.36757   0.58050   0.00000  Uiso   1.00
H122   H     0.71836   0.22232   0.03946   0.00000  Uiso   1.00
H123   H     0.71535   0.02402   0.44531   0.00000  Uiso   1.00
H124   H     0.77230   0.88147   0.45042   0.00000  Uiso   1.00
H125   H     0.72143   0.12423   0.57701   0.00000  Uiso   1.00
H126   H     0.63854   0.05535   0.32043   0.00000  Uiso   1.00
H127   H     0.85717   0.74084   0.43736   0.00000  Uiso   1.00
H128   H     0.74988   0.25275   0.70426   0.00000  Uiso   1.00
H129   H     0.57509   0.10749   0.16323   0.00000  Uiso   1.00
O130   O     0.96930   0.70691   0.37626   0.00000  Uiso   1.00
O131   O     0.82854   0.37851   0.72641   0.00000  Uiso   1.00
O132   O     0.59922   0.18794   0.01659   0.00000  Uiso   1.00
N133   N     0.95891   0.84820   0.34201   0.00000  Uiso   1.00
N134   N     0.85861   0.32679   0.59155   0.00000  Uiso   1.00
N135   N     0.69518   0.19101   0.08574   0.00000  Uiso   1.00
N136   N     0.88181   0.78641   0.40860   0.00000  Uiso   1.00
N137   N     0.78151   0.26500   0.65815   0.00000  Uiso   1.00
N138   N     0.61809   0.12923   0.15233   0.00000  Uiso   1.00
C139   C     0.65994   0.49128   0.17713   0.00000  Uiso   1.00
C140   C     0.63985   0.58175   0.16371   0.00000  Uiso   1.00
C141   C     0.58362   0.61587   0.18903   0.00000  Uiso   1.00
C142   C     0.57408   0.69989   0.17086   0.00000  Uiso   1.00
C143   C     0.53602   0.83303   0.15637   0.00000  Uiso   1.00
C144   C     0.67614   0.45771   0.08749   0.00000  Uiso   1.00
C145   C     0.65043   0.38755   0.04873   0.00000  Uiso   1.00
C146   C     0.67145   0.36715   0.96640   0.00000  Uiso   1.00
C147   C     0.68976   0.30770   0.83360   0.00000  Uiso   1.00
C148   C     0.72073   0.49505   0.22720   0.00000  Uiso   1.00
C149   C     0.73251   0.45626   0.30592   0.00000  Uiso   1.00
C150   C     0.79108   0.46728   0.34120   0.00000  Uiso   1.00
C151   C     0.87861   0.46579   0.42533   0.00000  Uiso   1.00
C152   C     0.74298   0.57981   0.09982   0.00000  Uiso   1.00
C153   C     0.68496   0.62983   0.12171   0.00000  Uiso   1.00
C154   C     0.67550   0.71382   0.10350   0.00000  Uiso   1.00
C155   C     0.61927   0.74806   0.12879   0.00000  Uiso   1.00
C156   C     0.72125   0.50580   0.04549   0.00000  Uiso   1.00
C157   C     0.74231   0.48550   0.96320   0.00000  Uiso   1.00
C158   C     0.71663   0.41532   0.92433   0.00000  Uiso   1.00
C159   C     0.76583   0.54314   0.18521   0.00000  Uiso   1.00
C160   C     0.82439   0.55421   0.22038   0.00000  Uiso   1.00
C161   C     0.83626   0.51545   0.29913   0.00000  Uiso   1.00
H162   H     0.62482   0.45384   0.20982   0.00000  Uiso   1.00
H163   H     0.54873   0.57863   0.22152   0.00000  Uiso   1.00
H164   H     0.61553   0.35034   0.08125   0.00000  Uiso   1.00
H165   H     0.69760   0.41905   0.33839   0.00000  Uiso   1.00
H166   H     0.48425   0.73819   0.21595   0.00000  Uiso   1.00
H167   H     0.62511   0.25681   0.92019   0.00000  Uiso   1.00
H168   H     0.79817   0.40168   0.46242   0.00000  Uiso   1.00
H169   H     0.77810   0.61725   0.06712   0.00000  Uiso   1.00
H170   H     0.71042   0.75102   0.07100   0.00000  Uiso   1.00
H171   H     0.77722   0.52272   0.93072   0.00000  Uiso   1.00
H172   H     0.85929   0.59143   0.18786   0.00000  Uiso   1.00
H173   H     0.61548   0.87810   0.09378   0.00000  Uiso   1.00
H174   H     0.75635   0.39671   0.79802   0.00000  Uiso   1.00
H175   H     0.92941   0.54159   0.34025   0.00000  Uiso   1.00
O176   O     0.50256   0.89318   0.15996   0.00000  Uiso   1.00
O177   O     0.68739   0.26162   0.77195   0.00000  Uiso   1.00
O178   O     0.91443   0.45170   0.48334   0.00000  Uiso   1.00
N179   N     0.52443   0.75276   0.18668   0.00000  Uiso   1.00
N180   N     0.65612   0.30271   0.91016   0.00000  Uiso   1.00
N181   N     0.81792   0.43814   0.41709   0.00000  Uiso   1.00
N182   N     0.59504   0.82805   0.12094   0.00000  Uiso   1.00
N183   N     0.72674   0.37799   0.84442   0.00000  Uiso   1.00
N184   N     0.88854   0.51342   0.35135   0.00000  Uiso   1.00
C185   C     0.34435   0.37260   0.66613   0.00000  Uiso   1.00
C186   C     0.35708   0.46465   0.64762   0.00000  Uiso   1.00
C187   C     0.41073   0.50762   0.66915   0.00000  Uiso   1.00
C188   C     0.41339   0.59157   0.64660   0.00000  Uiso   1.00
C189   C     0.44066   0.72848   0.62430   0.00000  Uiso   1.00
C190   C     0.32944   0.33275   0.57884   0.00000  Uiso   1.00
C191   C     0.35985   0.26482   0.54254   0.00000  Uiso   1.00
C192   C     0.33925   0.23773   0.46209   0.00000  Uiso   1.00
C193   C     0.32357   0.16984   0.33303   0.00000  Uiso   1.00
C194   C     0.28441   0.37019   0.71824   0.00000  Uiso   1.00
C195   C     0.27694   0.33371   0.79915   0.00000  Uiso   1.00
C196   C     0.21842   0.33812   0.83607   0.00000  Uiso   1.00
C197   C     0.13282   0.32834   0.92346   0.00000  Uiso   1.00
C198   C     0.25369   0.44526   0.58781   0.00000  Uiso   1.00
C199   C     0.30783   0.50411   0.60508   0.00000  Uiso   1.00
C200   C     0.31042   0.58801   0.58250   0.00000  Uiso   1.00
C201   C     0.36406   0.63110   0.60399   0.00000  Uiso   1.00
C202   C     0.28020   0.37221   0.53630   0.00000  Uiso   1.00
C203   C     0.25954   0.34521   0.45589   0.00000  Uiso   1.00
C204   C     0.28991   0.27727   0.41948   0.00000  Uiso   1.00
C205   C     0.23516   0.40965   0.67571   0.00000  Uiso   1.00
C206   C     0.17663   0.41411   0.71250   0.00000  Uiso   1.00
C207   C     0.16908   0.37765   0.79345   0.00000  Uiso   1.00
H208   H     0.38269   0.34187   0.69924   0.00000  Uiso   1.00
H209   H     0.44883   0.47706   0.70206   0.00000  Uiso   1.00
H210   H     0.39795   0.23429   0.57548   0.00000  Uiso   1.00
H211   H     0.31506   0.30318   0.83205   0.00000  Uiso   1.00
H212   H     0.50045   0.64433   0.68640   0.00000  Uiso   1.00
H213   H     0.39316   0.13243   0.41950   0.00000  Uiso   1.00
H214   H     0.21836   0.27768   0.96054   0.00000  Uiso   1.00
H215   H     0.21535   0.47598   0.55469   0.00000  Uiso   1.00
H216   H     0.27230   0.61853   0.54958   0.00000  Uiso   1.00
H217   H     0.22143   0.37577   0.42299   0.00000  Uiso   1.00
H218   H     0.13854   0.44465   0.67957   0.00000  Uiso   1.00
H219   H     0.35717   0.75916   0.56264   0.00000  Uiso   1.00
H220   H     0.24988   0.24725   0.29574   0.00000  Uiso   1.00
H221   H     0.07509   0.39251   0.83677   0.00000  Uiso   1.00
O222   O     0.46930   0.79309   0.62374   0.00000  Uiso   1.00
O223   O     0.32854   0.12149   0.27359   0.00000  Uiso   1.00
O224   O     0.09922   0.31206   0.98341   0.00000  Uiso   1.00
N225   N     0.45891   0.65180   0.65799   0.00000  Uiso   1.00
N226   N     0.35861   0.17321   0.40845   0.00000  Uiso   1.00
N227   N     0.19518   0.30899   0.91426   0.00000  Uiso   1.00
N228   N     0.38181   0.71359   0.59140   0.00000  Uiso   1.00
N229   N     0.28151   0.23500   0.34185   0.00000  Uiso   1.00
N230   N     0.11809   0.37077   0.84767   0.00000  Uiso   1.00
C231   C     0.15994   0.00872   0.82287   0.00000  Uiso   1.00
C232   C     0.13985   0.91825   0.83629   0.00000  Uiso   1.00
C233   C     0.08362   0.88413   0.81097   0.00000  Uiso   1.00
C234   C     0.07408   0.80011   0.82914   0.00000  Uiso   1.00
C235   C     0.03602   0.66697   0.84363   0.00000  Uiso   1.00
C236   C     0.17614   0.04229   0.91251   0.00000  Uiso   1.00
C237   C     0.15043   0.11245   0.95127   0.00000  Uiso   1.00
C238   C     0.17145   0.13285   0.03360   0.00000  Uiso   1.00
C239   C     0.18976   0.19230   0.16640   0.00000  Uiso   1.00
C240   C     0.22073   0.00495   0.77280   0.00000  Uiso   1.00
C241   C     0.23251   0.04374   0.69408   0.00000  Uiso   1.00
C242   C     0.29108   0.03272   0.65880   0.00000  Uiso   1.00
C243   C     0.37861   0.03421   0.57467   0.00000  Uiso   1.00
C244   C     0.24298   0.92019   0.90018   0.00000  Uiso   1.00
C245   C     0.18496   0.87017   0.87829   0.00000  Uiso   1.00
C246   C     0.17550   0.78618   0.89650   0.00000  Uiso   1.00
C247   C     0.11927   0.75194   0.87121   0.00000  Uiso   1.00
C248   C     0.22125   0.99420   0.95451   0.00000  Uiso   1.00
C249   C     0.24231   0.01450   0.03680   0.00000  Uiso   1.00
C250   C     0.21663   0.08468   0.07567   0.00000  Uiso   1.00
C251   C     0.26583   0.95686   0.81479   0.00000  Uiso   1.00
C252   C     0.32439   0.94579   0.77962   0.00000  Uiso   1.00
C253   C     0.33626   0.98455   0.70087   0.00000  Uiso   1.00
H254   H     0.12482   0.04616   0.79018   0.00000  Uiso   1.00
H255   H     0.04873   0.92137   0.77848   0.00000  Uiso   1.00
H256   H     0.11553   0.14966   0.91875   0.00000  Uiso   1.00
H257   H     0.19760   0.08095   0.66161   0.00000  Uiso   1.00
H258   H     0.98425   0.76181   0.78405   0.00000  Uiso   1.00
H259   H     0.12511   0.24319   0.07981   0.00000  Uiso   1.00
H260   H     0.29817   0.09832   0.53758   0.00000  Uiso   1.00
H261   H     0.27810   0.88275   0.93288   0.00000  Uiso   1.00
H262   H     0.21042   0.74898   0.92900   0.00000  Uiso   1.00
H263   H     0.27722   0.97728   0.06928   0.00000  Uiso   1.00
H264   H     0.35929   0.90857   0.81214   0.00000  Uiso   1.00
H265   H     0.11548   0.62190   0.90622   0.00000  Uiso   1.00
H266   H     0.25635   0.10329   0.20198   0.00000  Uiso   1.00
H267   H     0.42941   0.95841   0.65975   0.00000  Uiso   1.00
O268   O     0.00256   0.60682   0.84004   0.00000  Uiso   1.00
O269   O     0.18739   0.23838   0.22805   0.00000  Uiso   1.00
O270   O     0.41443   0.04830   0.51666   0.00000  Uiso   1.00
N271   N     0.02443   0.74724   0.81332   0.00000  Uiso   1.00
N272   N     0.15612   0.19729   0.08984   0.00000  Uiso   1.00
N273   N     0.31792   0.06186   0.58291   0.00000  Uiso   1.00
N274   N     0.09504   0.67195   0.87906   0.00000  Uiso   1.00
N275   N     0.22674   0.12201   0.15558   0.00000  Uiso   1.00
N276   N     0.38854   0.98658   0.64865   0.00000  Uiso   1.00
C277   C     0.65565   0.62740   0.66613   0.00000  Uiso   1.00
C278   C     0.64292   0.53535   0.64762   0.00000  Uiso   1.00
C279   C     0.58927   0.49238   0.66915   0.00000  Uiso   1.00
C280   C     0.58661   0.40843   0.64660   0.00000  Uiso   1.00
C281   C     0.55934   0.27152   0.62430   0.00000  Uiso   1.00
C282   C     0.67056   0.66725   0.57884   0.00000  Uiso   1.00
C283   C     0.64015   0.73518   0.54254   0.00000  Uiso   1.00
C284   C     0.66075   0.76227   0.46209   0.00000  Uiso   1.00
C285   C     0.67643   0.83016   0.33303   0.00000  Uiso   1.00
C286   C     0.71559   0.62981   0.71824   0.00000  Uiso   1.00
C287   C     0.72306   0.66629   0.79915   0.00000  Uiso   1.00
C288   C     0.78158   0.66188   0.83607   0.00000  Uiso   1.00
C289   C     0.86718   0.67166   0.92346   0.00000  Uiso   1.00
C290   C     0.74631   0.55474   0.58781   0.00000  Uiso   1.00
C291   C     0.69217   0.49589   0.60508   0.00000  Uiso   1.00
C292   C     0.68958   0.41199   0.58250   0.00000  Uiso   1.00
C293   C     0.63594   0.36890   0.60399   0.00000  Uiso   1.00
C294   C     0.71980   0.62779   0.53630   0.00000  Uiso   1.00
C295   C     0.74046   0.65479   0.45589   0.00000  Uiso   1.00
C296   C     0.71009   0.72273   0.41948   0.00000  Uiso   1.00
C297   C     0.76484   0.59035   0.67571   0.00000  Uiso   1.00
C298   C     0.82337   0.58589   0.71250   0.00000  Uiso   1.00
C299   C     0.83092   0.62235   0.79345   0.00000  Uiso   1.00
H300   H     0.61731   0.65813   0.69924   0.00000  Uiso   1.00
H301   H     0.55117   0.52294   0.70206   0.00000  Uiso   1.00
H302   H     0.60205   0.76571   0.57548   0.00000  Uiso   1.00
H303   H     0.68494   0.69682   0.83205   0.00000  Uiso   1.00
H304   H     0.49955   0.35567   0.68640   0.00000  Uiso   1.00
H305   H     0.60684   0.86757   0.41950   0.00000  Uiso   1.00
H306   H     0.78164   0.72232   0.96054   0.00000  Uiso   1.00
H307   H     0.78465   0.52402   0.55469   0.00000  Uiso   1.00
H308   H     0.72770   0.38147   0.54958   0.00000  Uiso   1.00
H309   H     0.77857   0.62423   0.42299   0.00000  Uiso   1.00
H310   H     0.86146   0.55535   0.67957   0.00000  Uiso   1.00
H311   H     0.64283   0.24084   0.56264   0.00000  Uiso   1.00
H312   H     0.75012   0.75275   0.29574   0.00000  Uiso   1.00
H313   H     0.92491   0.60749   0.83677   0.00000  Uiso   1.00
O314   O     0.53070   0.20691   0.62374   0.00000  Uiso   1.00
O315   O     0.67146   0.87851   0.27359   0.00000  Uiso   1.00
O316   O     0.90078   0.68794   0.98341   0.00000  Uiso   1.00
N317   N     0.54109   0.34820   0.65799   0.00000  Uiso   1.00
N318   N     0.64139   0.82679   0.40845   0.00000  Uiso   1.00
N319   N     0.80482   0.69101   0.91426   0.00000  Uiso   1.00
N320   N     0.61819   0.28641   0.59140   0.00000  Uiso   1.00
N321   N     0.71849   0.76500   0.34185   0.00000  Uiso   1.00
N322   N     0.88191   0.62923   0.84767   0.00000  Uiso   1.00
C323   C     0.84006   0.99128   0.82287   0.00000  Uiso   1.00
C324   C     0.86015   0.08175   0.83629   0.00000  Uiso   1.00
C325   C     0.91638   0.11587   0.81097   0.00000  Uiso   1.00
C326   C     0.92592   0.19989   0.82914   0.00000  Uiso   1.00
C327   C     0.96398   0.33303   0.84363   0.00000  Uiso   1.00
C328   C     0.82386   0.95771   0.91251   0.00000  Uiso   1.00
C329   C     0.84957   0.88755   0.95127   0.00000  Uiso   1.00
C330   C     0.82855   0.86715   0.03360   0.00000  Uiso   1.00
C331   C     0.81024   0.80770   0.16640   0.00000  Uiso   1.00
C332   C     0.77927   0.99505   0.77280   0.00000  Uiso   1.00
C333   C     0.76749   0.95626   0.69408   0.00000  Uiso   1.00
C334   C     0.70892   0.96728   0.65880   0.00000  Uiso   1.00
C335   C     0.62139   0.96579   0.57467   0.00000  Uiso   1.00
C336   C     0.75702   0.07981   0.90018   0.00000  Uiso   1.00
C337   C     0.81504   0.12983   0.87829   0.00000  Uiso   1.00
C338   C     0.82450   0.21382   0.89650   0.00000  Uiso   1.00
C339   C     0.88073   0.24806   0.87121   0.00000  Uiso   1.00
C340   C     0.77875   0.00580   0.95451   0.00000  Uiso   1.00
C341   C     0.75769   0.98550   0.03680   0.00000  Uiso   1.00
C342   C     0.78337   0.91532   0.07567   0.00000  Uiso   1.00
C343   C     0.73417   0.04314   0.81479   0.00000  Uiso   1.00
C344   C     0.67561   0.05421   0.77962   0.00000  Uiso   1.00
C345   C     0.66374   0.01545   0.70087   0.00000  Uiso   1.00
H346   H     0.87518   0.95384   0.79018   0.00000  Uiso   1.00
H347   H     0.95127   0.07863   0.77848   0.00000  Uiso   1.00
H348   H     0.88447   0.85034   0.91875   0.00000  Uiso   1.00
H349   H     0.80240   0.91905   0.66161   0.00000  Uiso   1.00
H350   H     0.01575   0.23819   0.78405   0.00000  Uiso   1.00
H351   H     0.87489   0.75681   0.07981   0.00000  Uiso   1.00
H352   H     0.70183   0.90168   0.53758   0.00000  Uiso   1.00
H353   H     0.72190   0.11725   0.93288   0.00000  Uiso   1.00
H354   H     0.78958   0.25102   0.92900   0.00000  Uiso   1.00
H355   H     0.72278   0.02272   0.06928   0.00000  Uiso   1.00
H356   H     0.64071   0.09143   0.81214   0.00000  Uiso   1.00
H357   H     0.88452   0.37810   0.90622   0.00000  Uiso   1.00
H358   H     0.74365   0.89671   0.20198   0.00000  Uiso   1.00
H359   H     0.57059   0.04159   0.65975   0.00000  Uiso   1.00
O360   O     0.99744   0.39318   0.84004   0.00000  Uiso   1.00
O361   O     0.81261   0.76162   0.22805   0.00000  Uiso   1.00
O362   O     0.58557   0.95170   0.51666   0.00000  Uiso   1.00
N363   N     0.97557   0.25276   0.81332   0.00000  Uiso   1.00
N364   N     0.84388   0.80271   0.08984   0.00000  Uiso   1.00
N365   N     0.68208   0.93814   0.58291   0.00000  Uiso   1.00
N366   N     0.90496   0.32805   0.87906   0.00000  Uiso   1.00
N367   N     0.77326   0.87799   0.15558   0.00000  Uiso   1.00
N368   N     0.61146   0.01342   0.64865   0.00000  Uiso   1.00
