data_job_06099
_audit_creation_date              2018-12-19
_audit_creation_method            'Materials Studio'
_symmetry_space_group_name_H-M    'P1'
_symmetry_Int_Tables_number       1
_symmetry_cell_setting            triclinic
loop_
_symmetry_equiv_pos_as_xyz
  x,y,z
_cell_length_a                    12.4228
_cell_length_b                    19.2155
_cell_length_c                    19.2871
_cell_angle_alpha                 63.9330
_cell_angle_beta                  79.1137
_cell_angle_gamma                 100.8176
loop_
_atom_site_label
_atom_site_type_symbol
_atom_site_fract_x
_atom_site_fract_y
_atom_site_fract_z
_atom_site_U_iso_or_equiv
_atom_site_adp_type
_atom_site_occupancy
C1     C     0.71860   0.39265   0.56690   0.00000  Uiso   1.00
C2     C     0.76591   0.32703   0.61866   0.00000  Uiso   1.00
C3     C     0.85915   0.33999   0.64619   0.00000  Uiso   1.00
C4     C     0.88897   0.27198   0.69275   0.00000  Uiso   1.00
C5     C     0.97178   0.18198   0.77030   0.00000  Uiso   1.00
C6     C     0.72077   0.38486   0.49134   0.00000  Uiso   1.00
C7     C     0.77604   0.44644   0.41182   0.00000  Uiso   1.00
C8     C     0.76784   0.42711   0.35121   0.00000  Uiso   1.00
C9     C     0.78051   0.42691   0.23108   0.00000  Uiso   1.00
C10    C     0.59180   0.36749   0.61381   0.00000  Uiso   1.00
C11    C     0.53862   0.41448   0.63725   0.00000  Uiso   1.00
C12    C     0.42183   0.38054   0.67973   0.00000  Uiso   1.00
C13    C     0.23425   0.35337   0.74977   0.00000  Uiso   1.00
C14    C     0.60576   0.24882   0.60063   0.00000  Uiso   1.00
C15    C     0.70462   0.24891   0.63698   0.00000  Uiso   1.00
C16    C     0.73430   0.18086   0.68351   0.00000  Uiso   1.00
C17    C     0.82756   0.19371   0.71111   0.00000  Uiso   1.00
C18    C     0.65948   0.30674   0.50966   0.00000  Uiso   1.00
C19    C     0.65119   0.28731   0.44914   0.00000  Uiso   1.00
C20    C     0.70644   0.34885   0.36956   0.00000  Uiso   1.00
C21    C     0.53051   0.28937   0.63214   0.00000  Uiso   1.00
C22    C     0.41377   0.25535   0.67458   0.00000  Uiso   1.00
C23    C     0.36043   0.30227   0.69808   0.00000  Uiso   1.00
H24    H     0.76632   0.45347   0.55263   0.00000  Uiso   1.00
H25    H     0.90656   0.40046   0.63199   0.00000  Uiso   1.00
H26    H     0.82345   0.50689   0.39766   0.00000  Uiso   1.00
H27    H     0.58607   0.47493   0.62307   0.00000  Uiso   1.00
H28    H     0.03505   0.30723   0.72803   0.00000  Uiso   1.00
H29    H     0.85978   0.53167   0.23394   0.00000  Uiso   1.00
H30    H     0.35921   0.46428   0.70924   0.00000  Uiso   1.00
H31    H     0.55804   0.18800   0.61490   0.00000  Uiso   1.00
H32    H     0.68685   0.12041   0.69768   0.00000  Uiso   1.00
H33    H     0.60375   0.22685   0.46335   0.00000  Uiso   1.00
H34    H     0.36637   0.19489   0.68875   0.00000  Uiso   1.00
H35    H     0.85673   0.07994   0.78134   0.00000  Uiso   1.00
H36    H     0.68146   0.30438   0.28724   0.00000  Uiso   1.00
H37    H     0.18090   0.23699   0.76254   0.00000  Uiso   1.00
O38    O     0.03441   0.15392   0.80800   0.00000  Uiso   1.00
O39    O     0.80445   0.44838   0.15976   0.00000  Uiso   1.00
O40    O     0.14772   0.35996   0.78335   0.00000  Uiso   1.00
N41    N     0.97539   0.26301   0.72923   0.00000  Uiso   1.00
N42    N     0.81154   0.47284   0.26728   0.00000  Uiso   1.00
N43    N     0.34355   0.40985   0.71163   0.00000  Uiso   1.00
N44    N     0.87943   0.14071   0.75792   0.00000  Uiso   1.00
N45    N     0.71558   0.35054   0.29597   0.00000  Uiso   1.00
N46    N     0.24759   0.28755   0.74031   0.00000  Uiso   1.00
C47    C     0.33577   0.04108   0.39354   0.00000  Uiso   1.00
C48    C     0.44260   0.05307   0.33041   0.00000  Uiso   1.00
C49    C     0.52272   0.01129   0.34583   0.00000  Uiso   1.00
C50    C     0.61449   0.03113   0.27984   0.00000  Uiso   1.00
C51    C     0.77870   0.04074   0.19376   0.00000  Uiso   1.00
C52    C     0.34495   0.12450   0.38606   0.00000  Uiso   1.00
C53    C     0.34294   0.14276   0.44828   0.00000  Uiso   1.00
C54    C     0.35250   0.22273   0.42913   0.00000  Uiso   1.00
C55    C     0.36502   0.34322   0.42946   0.00000  Uiso   1.00
C56    C     0.23381   0.02072   0.36505   0.00000  Uiso   1.00
C57    C     0.13835   0.95173   0.40962   0.00000  Uiso   1.00
C58    C     0.05432   0.94433   0.37279   0.00000  Uiso   1.00
C59    C     0.89429   0.90367   0.34051   0.00000  Uiso   1.00
C60    C     0.35627   0.15061   0.24890   0.00000  Uiso   1.00
C61    C     0.45373   0.11257   0.25184   0.00000  Uiso   1.00
C62    C     0.54540   0.13248   0.18580   0.00000  Uiso   1.00
C63    C     0.62564   0.09073   0.20113   0.00000  Uiso   1.00
C64    C     0.35608   0.18400   0.30750   0.00000  Uiso   1.00
C65    C     0.36563   0.26395   0.28825   0.00000  Uiso   1.00
C66    C     0.36365   0.28233   0.35042   0.00000  Uiso   1.00
C67    C     0.24495   0.08021   0.28649   0.00000  Uiso   1.00
C68    C     0.16104   0.07292   0.24958   0.00000  Uiso   1.00
C69    C     0.06547   0.00393   0.29408   0.00000  Uiso   1.00
H70    H     0.32710   0.99476   0.45471   0.00000  Uiso   1.00
H71    H     0.51408   0.96526   0.40664   0.00000  Uiso   1.00
H72    H     0.33432   0.09671   0.50907   0.00000  Uiso   1.00
H73    H     0.12976   0.90570   0.47041   0.00000  Uiso   1.00
H74    H     0.72631   0.95880   0.31871   0.00000  Uiso   1.00
H75    H     0.34724   0.23597   0.53469   0.00000  Uiso   1.00
H76    H     0.91589   0.83320   0.45318   0.00000  Uiso   1.00
H77    H     0.36494   0.19693   0.18773   0.00000  Uiso   1.00
H78    H     0.55400   0.17852   0.12501   0.00000  Uiso   1.00
H79    H     0.37424   0.30997   0.22745   0.00000  Uiso   1.00
H80    H     0.16968   0.11897   0.18879   0.00000  Uiso   1.00
H81    H     0.75871   0.13190   0.09013   0.00000  Uiso   1.00
H82    H     0.37964   0.40907   0.30612   0.00000  Uiso   1.00
H83    H     0.94829   0.00630   0.22460   0.00000  Uiso   1.00
O84    O     0.86622   0.02961   0.16798   0.00000  Uiso   1.00
O85    O     0.36887   0.39324   0.45135   0.00000  Uiso   1.00
O86    O     0.80296   0.86481   0.34440   0.00000  Uiso   1.00
N87    N     0.70798   0.00206   0.27352   0.00000  Uiso   1.00
N88    N     0.35359   0.26120   0.47545   0.00000  Uiso   1.00
N89    N     0.95030   0.88465   0.39925   0.00000  Uiso   1.00
N90    N     0.72541   0.09520   0.15052   0.00000  Uiso   1.00
N91    N     0.37102   0.35434   0.35245   0.00000  Uiso   1.00
N92    N     0.96773   0.97779   0.27625   0.00000  Uiso   1.00
C93    C     0.28931   0.56416   0.04160   0.00000  Uiso   1.00
C94    C     0.38360   0.61406   0.05661   0.00000  Uiso   1.00
C95    C     0.50092   0.63853   0.01789   0.00000  Uiso   1.00
C96    C     0.57317   0.68379   0.04016   0.00000  Uiso   1.00
C97    C     0.72622   0.75818   0.05453   0.00000  Uiso   1.00
C98    C     0.22194   0.48937   0.12384   0.00000  Uiso   1.00
C99    C     0.20331   0.40900   0.14164   0.00000  Uiso   1.00
C100   C     0.13946   0.34931   0.22049   0.00000  Uiso   1.00
C101   C     0.04145   0.23011   0.33922   0.00000  Uiso   1.00
C102   C     0.20737   0.61433   0.01865   0.00000  Uiso   1.00
C103   C     0.17647   0.63903   0.94802   0.00000  Uiso   1.00
C104   C     0.10033   0.68453   0.93833   0.00000  Uiso   1.00
C105   C     0.97970   0.75936   0.89375   0.00000  Uiso   1.00
C106   C     0.20901   0.60105   0.15000   0.00000  Uiso   1.00
C107   C     0.33999   0.63409   0.11549   0.00000  Uiso   1.00
C108   C     0.41208   0.67933   0.13782   0.00000  Uiso   1.00
C109   C     0.52948   0.70387   0.09914   0.00000  Uiso   1.00
C110   C     0.17832   0.50940   0.18271   0.00000  Uiso   1.00
C111   C     0.11447   0.44981   0.26156   0.00000  Uiso   1.00
C112   C     0.09576   0.36937   0.27948   0.00000  Uiso   1.00
C113   C     0.16376   0.63437   0.07753   0.00000  Uiso   1.00
C114   C     0.08764   0.67984   0.06795   0.00000  Uiso   1.00
C115   C     0.05664   0.70460   0.99731   0.00000  Uiso   1.00
H116   H     0.32327   0.54856   0.99577   0.00000  Uiso   1.00
H117   H     0.53464   0.62301   0.97234   0.00000  Uiso   1.00
H118   H     0.23707   0.39352   0.09606   0.00000  Uiso   1.00
H119   H     0.21024   0.62351   0.90248   0.00000  Uiso   1.00
H120   H     0.74975   0.71435   0.97235   0.00000  Uiso   1.00
H121   H     0.12228   0.23046   0.23321   0.00000  Uiso   1.00
H122   H     0.06570   0.71544   0.82500   0.00000  Uiso   1.00
H123   H     0.17506   0.61664   0.19584   0.00000  Uiso   1.00
H124   H     0.37830   0.69483   0.18338   0.00000  Uiso   1.00
H125   H     0.08073   0.46533   0.30710   0.00000  Uiso   1.00
H126   H     0.05391   0.69533   0.11352   0.00000  Uiso   1.00
H127   H     0.62286   0.77264   0.14364   0.00000  Uiso   1.00
H128   H     0.99538   0.28874   0.40450   0.00000  Uiso   1.00
H129   H     0.93882   0.77373   0.99629   0.00000  Uiso   1.00
O130   O     0.82268   0.79367   0.04621   0.00000  Uiso   1.00
O131   O     0.99944   0.15883   0.38844   0.00000  Uiso   1.00
O132   O     0.92523   0.79512   0.85289   0.00000  Uiso   1.00
N133   N     0.69199   0.71735   0.01436   0.00000  Uiso   1.00
N134   N     0.10536   0.26494   0.25825   0.00000  Uiso   1.00
N135   N     0.05244   0.71834   0.87662   0.00000  Uiso   1.00
N136   N     0.62372   0.74872   0.10653   0.00000  Uiso   1.00
N137   N     0.03708   0.29631   0.35042   0.00000  Uiso   1.00
N138   N     0.98417   0.74971   0.96879   0.00000  Uiso   1.00
C139   C     0.28140   0.60735   0.43310   0.00000  Uiso   1.00
C140   C     0.23409   0.67297   0.38134   0.00000  Uiso   1.00
C141   C     0.14085   0.66001   0.35381   0.00000  Uiso   1.00
C142   C     0.11103   0.72802   0.30725   0.00000  Uiso   1.00
C143   C     0.02822   0.81802   0.22970   0.00000  Uiso   1.00
C144   C     0.27923   0.61514   0.50866   0.00000  Uiso   1.00
C145   C     0.22396   0.55356   0.58818   0.00000  Uiso   1.00
C146   C     0.23216   0.57289   0.64879   0.00000  Uiso   1.00
C147   C     0.21949   0.57309   0.76892   0.00000  Uiso   1.00
C148   C     0.40820   0.63251   0.38619   0.00000  Uiso   1.00
C149   C     0.46138   0.58552   0.36275   0.00000  Uiso   1.00
C150   C     0.57817   0.61946   0.32027   0.00000  Uiso   1.00
C151   C     0.76575   0.64663   0.25023   0.00000  Uiso   1.00
C152   C     0.39424   0.75118   0.39937   0.00000  Uiso   1.00
C153   C     0.29538   0.75109   0.36302   0.00000  Uiso   1.00
C154   C     0.26570   0.81914   0.31649   0.00000  Uiso   1.00
C155   C     0.17244   0.80629   0.28889   0.00000  Uiso   1.00
C156   C     0.34052   0.69326   0.49034   0.00000  Uiso   1.00
C157   C     0.34881   0.71269   0.55086   0.00000  Uiso   1.00
C158   C     0.29356   0.65115   0.63044   0.00000  Uiso   1.00
C159   C     0.46950   0.71063   0.36786   0.00000  Uiso   1.00
C160   C     0.58622   0.74465   0.32542   0.00000  Uiso   1.00
C161   C     0.63957   0.69773   0.30192   0.00000  Uiso   1.00
H162   H     0.23368   0.54653   0.44737   0.00000  Uiso   1.00
H163   H     0.09344   0.59954   0.36801   0.00000  Uiso   1.00
H164   H     0.17655   0.49310   0.60234   0.00000  Uiso   1.00
H165   H     0.41393   0.52507   0.37693   0.00000  Uiso   1.00
H166   H     0.96495   0.69277   0.27197   0.00000  Uiso   1.00
H167   H     0.14022   0.46833   0.76606   0.00000  Uiso   1.00
H168   H     0.64079   0.53572   0.29076   0.00000  Uiso   1.00
H169   H     0.44196   0.81200   0.38510   0.00000  Uiso   1.00
H170   H     0.31315   0.87959   0.30232   0.00000  Uiso   1.00
H171   H     0.39625   0.77315   0.53665   0.00000  Uiso   1.00
H172   H     0.63363   0.80511   0.31125   0.00000  Uiso   1.00
H173   H     0.14327   0.92006   0.21866   0.00000  Uiso   1.00
H174   H     0.31854   0.69562   0.71276   0.00000  Uiso   1.00
H175   H     0.81910   0.76301   0.23746   0.00000  Uiso   1.00
O176   O     0.96559   0.84608   0.19200   0.00000  Uiso   1.00
O177   O     0.19555   0.55162   0.84024   0.00000  Uiso   1.00
O178   O     0.85228   0.64004   0.21665   0.00000  Uiso   1.00
N179   N     0.02461   0.73699   0.27077   0.00000  Uiso   1.00
N180   N     0.18846   0.52715   0.73272   0.00000  Uiso   1.00
N181   N     0.65645   0.59015   0.28837   0.00000  Uiso   1.00
N182   N     0.12057   0.85929   0.24208   0.00000  Uiso   1.00
N183   N     0.28442   0.64946   0.70403   0.00000  Uiso   1.00
N184   N     0.75241   0.71245   0.25969   0.00000  Uiso   1.00
C185   C     0.66423   0.95892   0.60646   0.00000  Uiso   1.00
C186   C     0.55740   0.94692   0.66959   0.00000  Uiso   1.00
C187   C     0.47728   0.98871   0.65417   0.00000  Uiso   1.00
C188   C     0.38551   0.96887   0.72016   0.00000  Uiso   1.00
C189   C     0.22130   0.95926   0.80624   0.00000  Uiso   1.00
C190   C     0.65505   0.87550   0.61394   0.00000  Uiso   1.00
C191   C     0.65705   0.85723   0.55172   0.00000  Uiso   1.00
C192   C     0.64750   0.77727   0.57087   0.00000  Uiso   1.00
C193   C     0.63498   0.65678   0.57054   0.00000  Uiso   1.00
C194   C     0.76619   0.97928   0.63495   0.00000  Uiso   1.00
C195   C     0.86165   0.04827   0.59038   0.00000  Uiso   1.00
C196   C     0.94568   0.05567   0.62721   0.00000  Uiso   1.00
C197   C     0.10571   0.09633   0.65949   0.00000  Uiso   1.00
C198   C     0.64373   0.84939   0.75110   0.00000  Uiso   1.00
C199   C     0.54627   0.88743   0.74816   0.00000  Uiso   1.00
C200   C     0.45460   0.86752   0.81420   0.00000  Uiso   1.00
C201   C     0.37436   0.90927   0.79887   0.00000  Uiso   1.00
C202   C     0.64392   0.81600   0.69250   0.00000  Uiso   1.00
C203   C     0.63437   0.73605   0.71175   0.00000  Uiso   1.00
C204   C     0.63635   0.71767   0.64958   0.00000  Uiso   1.00
C205   C     0.75505   0.91979   0.71351   0.00000  Uiso   1.00
C206   C     0.83896   0.92708   0.75042   0.00000  Uiso   1.00
C207   C     0.93453   0.99607   0.70592   0.00000  Uiso   1.00
H208   H     0.67290   0.00524   0.54529   0.00000  Uiso   1.00
H209   H     0.48592   0.03474   0.59336   0.00000  Uiso   1.00
H210   H     0.66568   0.90329   0.49093   0.00000  Uiso   1.00
H211   H     0.87024   0.09430   0.52959   0.00000  Uiso   1.00
H212   H     0.27369   0.04119   0.68129   0.00000  Uiso   1.00
H213   H     0.65276   0.76403   0.46531   0.00000  Uiso   1.00
H214   H     0.08411   0.16680   0.54682   0.00000  Uiso   1.00
H215   H     0.63506   0.80307   0.81227   0.00000  Uiso   1.00
H216   H     0.44600   0.82148   0.87499   0.00000  Uiso   1.00
H217   H     0.62576   0.69003   0.77255   0.00000  Uiso   1.00
H218   H     0.83032   0.88103   0.81121   0.00000  Uiso   1.00
H219   H     0.24129   0.86810   0.90987   0.00000  Uiso   1.00
H220   H     0.62036   0.59093   0.69388   0.00000  Uiso   1.00
H221   H     0.05171   0.99370   0.77540   0.00000  Uiso   1.00
O222   O     0.13378   0.97039   0.83202   0.00000  Uiso   1.00
O223   O     0.63113   0.60676   0.54865   0.00000  Uiso   1.00
O224   O     0.19704   0.13519   0.65560   0.00000  Uiso   1.00
N225   N     0.29202   0.99794   0.72648   0.00000  Uiso   1.00
N226   N     0.64641   0.73880   0.52455   0.00000  Uiso   1.00
N227   N     0.04970   0.11535   0.60075   0.00000  Uiso   1.00
N228   N     0.27459   0.90480   0.84948   0.00000  Uiso   1.00
N229   N     0.62898   0.64566   0.64755   0.00000  Uiso   1.00
N230   N     0.03227   0.02221   0.72375   0.00000  Uiso   1.00
C231   C     0.71069   0.43584   0.95840   0.00000  Uiso   1.00
C232   C     0.61639   0.38594   0.94339   0.00000  Uiso   1.00
C233   C     0.49908   0.36147   0.98211   0.00000  Uiso   1.00
C234   C     0.42683   0.31620   0.95984   0.00000  Uiso   1.00
C235   C     0.27378   0.24182   0.94547   0.00000  Uiso   1.00
C236   C     0.77806   0.51063   0.87616   0.00000  Uiso   1.00
C237   C     0.79669   0.59100   0.85836   0.00000  Uiso   1.00
C238   C     0.86054   0.65069   0.77951   0.00000  Uiso   1.00
C239   C     0.95855   0.76989   0.66078   0.00000  Uiso   1.00
C240   C     0.79263   0.38566   0.98135   0.00000  Uiso   1.00
C241   C     0.82353   0.36097   0.05198   0.00000  Uiso   1.00
C242   C     0.89967   0.31547   0.06167   0.00000  Uiso   1.00
C243   C     0.02030   0.24064   0.10625   0.00000  Uiso   1.00
C244   C     0.79099   0.39895   0.85000   0.00000  Uiso   1.00
C245   C     0.66001   0.36591   0.88451   0.00000  Uiso   1.00
C246   C     0.58792   0.32067   0.86218   0.00000  Uiso   1.00
C247   C     0.47052   0.29613   0.90086   0.00000  Uiso   1.00
C248   C     0.82168   0.49060   0.81729   0.00000  Uiso   1.00
C249   C     0.88553   0.55019   0.73844   0.00000  Uiso   1.00
C250   C     0.90424   0.63063   0.72052   0.00000  Uiso   1.00
C251   C     0.83624   0.36563   0.92247   0.00000  Uiso   1.00
C252   C     0.91236   0.32016   0.93205   0.00000  Uiso   1.00
C253   C     0.94336   0.29540   0.00269   0.00000  Uiso   1.00
H254   H     0.67673   0.45144   0.00423   0.00000  Uiso   1.00
H255   H     0.46536   0.37699   0.02766   0.00000  Uiso   1.00
H256   H     0.76293   0.60648   0.90394   0.00000  Uiso   1.00
H257   H     0.78976   0.37649   0.09752   0.00000  Uiso   1.00
H258   H     0.25025   0.28565   0.02765   0.00000  Uiso   1.00
H259   H     0.87772   0.76954   0.76679   0.00000  Uiso   1.00
H260   H     0.93430   0.28456   0.17500   0.00000  Uiso   1.00
H261   H     0.82494   0.38336   0.80416   0.00000  Uiso   1.00
H262   H     0.62170   0.30517   0.81662   0.00000  Uiso   1.00
H263   H     0.91927   0.53467   0.69290   0.00000  Uiso   1.00
H264   H     0.94609   0.30467   0.88648   0.00000  Uiso   1.00
H265   H     0.37714   0.22736   0.85636   0.00000  Uiso   1.00
H266   H     0.00462   0.71126   0.59550   0.00000  Uiso   1.00
H267   H     0.06118   0.22627   0.00371   0.00000  Uiso   1.00
O268   O     0.17732   0.20633   0.95379   0.00000  Uiso   1.00
O269   O     0.00056   0.84117   0.61155   0.00000  Uiso   1.00
O270   O     0.07477   0.20488   0.14711   0.00000  Uiso   1.00
N271   N     0.30801   0.28265   0.98564   0.00000  Uiso   1.00
N272   N     0.89464   0.73506   0.74175   0.00000  Uiso   1.00
N273   N     0.94756   0.28166   0.12338   0.00000  Uiso   1.00
N274   N     0.37628   0.25128   0.89347   0.00000  Uiso   1.00
N275   N     0.96292   0.70369   0.64958   0.00000  Uiso   1.00
N276   N     0.01583   0.25029   0.03121   0.00000  Uiso   1.00
