data_job_01548
_audit_creation_date              2018-12-19
_audit_creation_method            'Materials Studio'
_symmetry_space_group_name_H-M    'P1'
_symmetry_Int_Tables_number       1
_symmetry_cell_setting            triclinic
loop_
_symmetry_equiv_pos_as_xyz
  x,y,z
_cell_length_a                    12.2292
_cell_length_b                    23.5806
_cell_length_c                    20.5138
_cell_angle_alpha                 90.0000
_cell_angle_beta                  90.0000
_cell_angle_gamma                 90.0000
loop_
_atom_site_label
_atom_site_type_symbol
_atom_site_fract_x
_atom_site_fract_y
_atom_site_fract_z
_atom_site_U_iso_or_equiv
_atom_site_adp_type
_atom_site_occupancy
C1     C     0.83791   0.58135   0.20236   0.00000  Uiso   1.00
C2     C     0.91722   0.61478   0.15977   0.00000  Uiso   1.00
C3     C     0.01334   0.59402   0.13288   0.00000  Uiso   1.00
C4     C     0.07461   0.63133   0.09537   0.00000  Uiso   1.00
C5     C     0.20292   0.67473   0.03083   0.00000  Uiso   1.00
C6     C     0.82701   0.61478   0.26566   0.00000  Uiso   1.00
C7     C     0.84726   0.59400   0.32780   0.00000  Uiso   1.00
C8     C     0.83257   0.63130   0.37942   0.00000  Uiso   1.00
C9     C     0.82074   0.67468   0.47928   0.00000  Uiso   1.00
C10    C     0.72693   0.58521   0.16876   0.00000  Uiso   1.00
C11    C     0.66302   0.53957   0.14944   0.00000  Uiso   1.00
C12    C     0.56405   0.55199   0.11950   0.00000  Uiso   1.00
C13    C     0.39684   0.54946   0.06890   0.00000  Uiso   1.00
C14    C     0.77578   0.68455   0.18356   0.00000  Uiso   1.00
C15    C     0.88348   0.67084   0.14957   0.00000  Uiso   1.00
C16    C     0.94461   0.70819   0.11208   0.00000  Uiso   1.00
C17    C     0.04080   0.68748   0.08514   0.00000  Uiso   1.00
C18    C     0.79326   0.67083   0.25545   0.00000  Uiso   1.00
C19    C     0.77853   0.70817   0.30700   0.00000  Uiso   1.00
C20    C     0.79876   0.68746   0.36920   0.00000  Uiso   1.00
C21    C     0.69318   0.64126   0.15855   0.00000  Uiso   1.00
C22    C     0.59429   0.65375   0.12864   0.00000  Uiso   1.00
C23    C     0.53024   0.60814   0.10927   0.00000  Uiso   1.00
H24    H     0.86418   0.53771   0.21031   0.00000  Uiso   1.00
H25    H     0.03944   0.55064   0.14080   0.00000  Uiso   1.00
H26    H     0.87337   0.55062   0.33568   0.00000  Uiso   1.00
H27    H     0.68916   0.49621   0.15735   0.00000  Uiso   1.00
H28    H     0.21888   0.58969   0.05925   0.00000  Uiso   1.00
H29    H     0.86868   0.58964   0.47018   0.00000  Uiso   1.00
H30    H     0.48024   0.47490   0.09412   0.00000  Uiso   1.00
H31    H     0.74951   0.72819   0.17561   0.00000  Uiso   1.00
H32    H     0.91847   0.75157   0.10419   0.00000  Uiso   1.00
H33    H     0.75241   0.75155   0.29908   0.00000  Uiso   1.00
H34    H     0.56820   0.69713   0.12075   0.00000  Uiso   1.00
H35    H     0.12070   0.75278   0.02954   0.00000  Uiso   1.00
H36    H     0.77050   0.75273   0.44047   0.00000  Uiso   1.00
H37    H     0.38206   0.63799   0.06441   0.00000  Uiso   1.00
O38    O     0.28303   0.68318   0.99806   0.00000  Uiso   1.00
O39    O     0.82356   0.68311   0.53718   0.00000  Uiso   1.00
O40    O     0.31394   0.53258   0.04380   0.00000  Uiso   1.00
N41    N     0.17257   0.62486   0.06205   0.00000  Uiso   1.00
N42    N     0.84517   0.62482   0.44624   0.00000  Uiso   1.00
N43    N     0.48200   0.51755   0.09468   0.00000  Uiso   1.00
N44    N     0.11974   0.71262   0.04606   0.00000  Uiso   1.00
N45    N     0.79235   0.71257   0.43025   0.00000  Uiso   1.00
N46    N     0.42917   0.60530   0.07869   0.00000  Uiso   1.00
C47    C     0.83346   0.42254   0.29423   0.00000  Uiso   1.00
C48    C     0.91671   0.38941   0.33438   0.00000  Uiso   1.00
C49    C     0.01638   0.40995   0.35648   0.00000  Uiso   1.00
C50    C     0.08092   0.37298   0.39246   0.00000  Uiso   1.00
C51    C     0.21539   0.32996   0.45274   0.00000  Uiso   1.00
C52    C     0.81406   0.38779   0.23261   0.00000  Uiso   1.00
C53    C     0.82741   0.40698   0.16915   0.00000  Uiso   1.00
C54    C     0.80553   0.36864   0.11946   0.00000  Uiso   1.00
C55    C     0.78056   0.32313   0.02175   0.00000  Uiso   1.00
C56    C     0.72668   0.42040   0.33254   0.00000  Uiso   1.00
C57    C     0.66654   0.46700   0.35308   0.00000  Uiso   1.00
C58    C     0.57107   0.45612   0.38751   0.00000  Uiso   1.00
C59    C     0.41043   0.46123   0.44496   0.00000  Uiso   1.00
C60    C     0.77082   0.32035   0.31882   0.00000  Uiso   1.00
C61    C     0.88269   0.33390   0.34773   0.00000  Uiso   1.00
C62    C     0.94709   0.29689   0.38369   0.00000  Uiso   1.00
C63    C     0.04684   0.31737   0.40584   0.00000  Uiso   1.00
C64    C     0.78004   0.33229   0.24597   0.00000  Uiso   1.00
C65    C     0.75812   0.29392   0.19636   0.00000  Uiso   1.00
C66    C     0.77144   0.31304   0.13284   0.00000  Uiso   1.00
C67    C     0.69266   0.36489   0.34590   0.00000  Uiso   1.00
C68    C     0.59726   0.35394   0.38030   0.00000  Uiso   1.00
C69    C     0.53699   0.40051   0.40089   0.00000  Uiso   1.00
H70    H     0.85994   0.46575   0.28382   0.00000  Uiso   1.00
H71    H     0.04268   0.45290   0.34613   0.00000  Uiso   1.00
H72    H     0.85373   0.44993   0.15883   0.00000  Uiso   1.00
H73    H     0.69290   0.50994   0.34274   0.00000  Uiso   1.00
H74    H     0.23030   0.41417   0.42107   0.00000  Uiso   1.00
H75    H     0.83186   0.40792   0.02614   0.00000  Uiso   1.00
H76    H     0.49269   0.53446   0.41395   0.00000  Uiso   1.00
H77    H     0.74434   0.27714   0.32922   0.00000  Uiso   1.00
H78    H     0.92074   0.25394   0.39402   0.00000  Uiso   1.00
H79    H     0.73179   0.25097   0.20671   0.00000  Uiso   1.00
H80    H     0.57096   0.31098   0.39062   0.00000  Uiso   1.00
H81    H     0.13133   0.25268   0.45994   0.00000  Uiso   1.00
H82    H     0.73288   0.24643   0.06500   0.00000  Uiso   1.00
H83    H     0.39372   0.37297   0.45282   0.00000  Uiso   1.00
O84    O     0.29896   0.32156   0.48229   0.00000  Uiso   1.00
O85    O     0.77619   0.31336   0.96416   0.00000  Uiso   1.00
O86    O     0.33123   0.47938   0.47296   0.00000  Uiso   1.00
N87    N     0.18279   0.37935   0.42134   0.00000  Uiso   1.00
N88    N     0.81028   0.37350   0.05210   0.00000  Uiso   1.00
N89    N     0.49318   0.49181   0.41465   0.00000  Uiso   1.00
N90    N     0.12954   0.29246   0.44225   0.00000  Uiso   1.00
N91    N     0.75703   0.28661   0.07301   0.00000  Uiso   1.00
N92    N     0.43993   0.40491   0.43557   0.00000  Uiso   1.00
C93    C     0.16209   0.41865   0.70236   0.00000  Uiso   1.00
C94    C     0.08278   0.38522   0.65977   0.00000  Uiso   1.00
C95    C     0.98666   0.40598   0.63288   0.00000  Uiso   1.00
C96    C     0.92539   0.36867   0.59537   0.00000  Uiso   1.00
C97    C     0.79708   0.32527   0.53083   0.00000  Uiso   1.00
C98    C     0.17299   0.38522   0.76566   0.00000  Uiso   1.00
C99    C     0.15274   0.40600   0.82780   0.00000  Uiso   1.00
C100   C     0.16743   0.36870   0.87942   0.00000  Uiso   1.00
C101   C     0.17926   0.32532   0.97928   0.00000  Uiso   1.00
C102   C     0.27307   0.41479   0.66876   0.00000  Uiso   1.00
C103   C     0.33698   0.46043   0.64944   0.00000  Uiso   1.00
C104   C     0.43595   0.44801   0.61950   0.00000  Uiso   1.00
C105   C     0.60316   0.45054   0.56890   0.00000  Uiso   1.00
C106   C     0.22422   0.31545   0.68356   0.00000  Uiso   1.00
C107   C     0.11652   0.32916   0.64957   0.00000  Uiso   1.00
C108   C     0.05539   0.29181   0.61208   0.00000  Uiso   1.00
C109   C     0.95920   0.31252   0.58514   0.00000  Uiso   1.00
C110   C     0.20674   0.32917   0.75545   0.00000  Uiso   1.00
C111   C     0.22147   0.29183   0.80700   0.00000  Uiso   1.00
C112   C     0.20124   0.31254   0.86920   0.00000  Uiso   1.00
C113   C     0.30682   0.35874   0.65855   0.00000  Uiso   1.00
C114   C     0.40571   0.34625   0.62864   0.00000  Uiso   1.00
C115   C     0.46976   0.39186   0.60927   0.00000  Uiso   1.00
H116   H     0.13582   0.46229   0.71031   0.00000  Uiso   1.00
H117   H     0.96056   0.44936   0.64080   0.00000  Uiso   1.00
H118   H     0.12663   0.44938   0.83568   0.00000  Uiso   1.00
H119   H     0.31084   0.50379   0.65735   0.00000  Uiso   1.00
H120   H     0.78112   0.41031   0.55925   0.00000  Uiso   1.00
H121   H     0.13132   0.41036   0.97018   0.00000  Uiso   1.00
H122   H     0.51976   0.52510   0.59412   0.00000  Uiso   1.00
H123   H     0.25049   0.27181   0.67561   0.00000  Uiso   1.00
H124   H     0.08153   0.24843   0.60419   0.00000  Uiso   1.00
H125   H     0.24759   0.24845   0.79908   0.00000  Uiso   1.00
H126   H     0.43180   0.30287   0.62075   0.00000  Uiso   1.00
H127   H     0.87930   0.24722   0.52954   0.00000  Uiso   1.00
H128   H     0.22950   0.24727   0.94047   0.00000  Uiso   1.00
H129   H     0.61794   0.36201   0.56441   0.00000  Uiso   1.00
O130   O     0.71697   0.31682   0.49806   0.00000  Uiso   1.00
O131   O     0.17644   0.31689   0.03718   0.00000  Uiso   1.00
O132   O     0.68606   0.46742   0.54380   0.00000  Uiso   1.00
N133   N     0.82743   0.37514   0.56205   0.00000  Uiso   1.00
N134   N     0.15483   0.37518   0.94624   0.00000  Uiso   1.00
N135   N     0.51800   0.48245   0.59468   0.00000  Uiso   1.00
N136   N     0.88026   0.28738   0.54606   0.00000  Uiso   1.00
N137   N     0.20765   0.28743   0.93025   0.00000  Uiso   1.00
N138   N     0.57083   0.39470   0.57869   0.00000  Uiso   1.00
C139   C     0.16654   0.57746   0.79423   0.00000  Uiso   1.00
C140   C     0.08329   0.61059   0.83438   0.00000  Uiso   1.00
C141   C     0.98362   0.59005   0.85648   0.00000  Uiso   1.00
C142   C     0.91908   0.62702   0.89246   0.00000  Uiso   1.00
C143   C     0.78461   0.67004   0.95274   0.00000  Uiso   1.00
C144   C     0.18594   0.61221   0.73261   0.00000  Uiso   1.00
C145   C     0.17259   0.59302   0.66915   0.00000  Uiso   1.00
C146   C     0.19447   0.63136   0.61946   0.00000  Uiso   1.00
C147   C     0.21944   0.67687   0.52175   0.00000  Uiso   1.00
C148   C     0.27332   0.57960   0.83254   0.00000  Uiso   1.00
C149   C     0.33346   0.53300   0.85308   0.00000  Uiso   1.00
C150   C     0.42893   0.54388   0.88751   0.00000  Uiso   1.00
C151   C     0.58957   0.53877   0.94496   0.00000  Uiso   1.00
C152   C     0.22918   0.67965   0.81882   0.00000  Uiso   1.00
C153   C     0.11731   0.66610   0.84773   0.00000  Uiso   1.00
C154   C     0.05291   0.70311   0.88369   0.00000  Uiso   1.00
C155   C     0.95316   0.68263   0.90584   0.00000  Uiso   1.00
C156   C     0.21996   0.66771   0.74597   0.00000  Uiso   1.00
C157   C     0.24188   0.70608   0.69636   0.00000  Uiso   1.00
C158   C     0.22856   0.68696   0.63284   0.00000  Uiso   1.00
C159   C     0.30734   0.63511   0.84590   0.00000  Uiso   1.00
C160   C     0.40274   0.64606   0.88030   0.00000  Uiso   1.00
C161   C     0.46301   0.59949   0.90089   0.00000  Uiso   1.00
H162   H     0.14006   0.53425   0.78382   0.00000  Uiso   1.00
H163   H     0.95732   0.54710   0.84613   0.00000  Uiso   1.00
H164   H     0.14627   0.55007   0.65883   0.00000  Uiso   1.00
H165   H     0.30710   0.49006   0.84274   0.00000  Uiso   1.00
H166   H     0.76970   0.58583   0.92107   0.00000  Uiso   1.00
H167   H     0.16814   0.59208   0.52614   0.00000  Uiso   1.00
H168   H     0.50731   0.46554   0.91395   0.00000  Uiso   1.00
H169   H     0.25566   0.72286   0.82922   0.00000  Uiso   1.00
H170   H     0.07926   0.74606   0.89402   0.00000  Uiso   1.00
H171   H     0.26821   0.74903   0.70671   0.00000  Uiso   1.00
H172   H     0.42904   0.68902   0.89062   0.00000  Uiso   1.00
H173   H     0.86867   0.74732   0.95994   0.00000  Uiso   1.00
H174   H     0.26712   0.75357   0.56500   0.00000  Uiso   1.00
H175   H     0.60628   0.62703   0.95282   0.00000  Uiso   1.00
O176   O     0.70104   0.67844   0.98229   0.00000  Uiso   1.00
O177   O     0.22381   0.68664   0.46416   0.00000  Uiso   1.00
O178   O     0.66877   0.52062   0.97296   0.00000  Uiso   1.00
N179   N     0.81721   0.62065   0.92134   0.00000  Uiso   1.00
N180   N     0.18972   0.62650   0.55210   0.00000  Uiso   1.00
N181   N     0.50682   0.50819   0.91465   0.00000  Uiso   1.00
N182   N     0.87046   0.70754   0.94225   0.00000  Uiso   1.00
N183   N     0.24297   0.71339   0.57301   0.00000  Uiso   1.00
N184   N     0.56007   0.59509   0.93557   0.00000  Uiso   1.00
C185   C     0.33791   0.91865   0.20236   0.00000  Uiso   1.00
C186   C     0.41722   0.88522   0.15977   0.00000  Uiso   1.00
C187   C     0.51334   0.90598   0.13288   0.00000  Uiso   1.00
C188   C     0.57461   0.86867   0.09537   0.00000  Uiso   1.00
C189   C     0.70292   0.82527   0.03083   0.00000  Uiso   1.00
C190   C     0.32701   0.88522   0.26566   0.00000  Uiso   1.00
C191   C     0.34726   0.90600   0.32780   0.00000  Uiso   1.00
C192   C     0.33257   0.86870   0.37942   0.00000  Uiso   1.00
C193   C     0.32074   0.82532   0.47928   0.00000  Uiso   1.00
C194   C     0.22693   0.91479   0.16876   0.00000  Uiso   1.00
C195   C     0.16302   0.96043   0.14944   0.00000  Uiso   1.00
C196   C     0.06405   0.94801   0.11950   0.00000  Uiso   1.00
C197   C     0.89684   0.95054   0.06890   0.00000  Uiso   1.00
C198   C     0.27578   0.81545   0.18356   0.00000  Uiso   1.00
C199   C     0.38348   0.82916   0.14957   0.00000  Uiso   1.00
C200   C     0.44461   0.79181   0.11208   0.00000  Uiso   1.00
C201   C     0.54080   0.81252   0.08514   0.00000  Uiso   1.00
C202   C     0.29326   0.82917   0.25545   0.00000  Uiso   1.00
C203   C     0.27853   0.79183   0.30700   0.00000  Uiso   1.00
C204   C     0.29876   0.81254   0.36920   0.00000  Uiso   1.00
C205   C     0.19318   0.85874   0.15855   0.00000  Uiso   1.00
C206   C     0.09429   0.84625   0.12864   0.00000  Uiso   1.00
C207   C     0.03024   0.89186   0.10927   0.00000  Uiso   1.00
H208   H     0.36418   0.96229   0.21031   0.00000  Uiso   1.00
H209   H     0.53944   0.94936   0.14080   0.00000  Uiso   1.00
H210   H     0.37337   0.94938   0.33568   0.00000  Uiso   1.00
H211   H     0.18916   0.00379   0.15735   0.00000  Uiso   1.00
H212   H     0.71888   0.91031   0.05925   0.00000  Uiso   1.00
H213   H     0.36868   0.91036   0.47018   0.00000  Uiso   1.00
H214   H     0.98024   0.02510   0.09412   0.00000  Uiso   1.00
H215   H     0.24951   0.77181   0.17561   0.00000  Uiso   1.00
H216   H     0.41847   0.74843   0.10419   0.00000  Uiso   1.00
H217   H     0.25241   0.74845   0.29908   0.00000  Uiso   1.00
H218   H     0.06820   0.80287   0.12075   0.00000  Uiso   1.00
H219   H     0.62070   0.74722   0.02954   0.00000  Uiso   1.00
H220   H     0.27050   0.74727   0.44047   0.00000  Uiso   1.00
H221   H     0.88206   0.86201   0.06441   0.00000  Uiso   1.00
O222   O     0.78303   0.81682   0.99806   0.00000  Uiso   1.00
O223   O     0.32356   0.81689   0.53718   0.00000  Uiso   1.00
O224   O     0.81394   0.96742   0.04380   0.00000  Uiso   1.00
N225   N     0.67257   0.87514   0.06205   0.00000  Uiso   1.00
N226   N     0.34517   0.87518   0.44624   0.00000  Uiso   1.00
N227   N     0.98200   0.98245   0.09468   0.00000  Uiso   1.00
N228   N     0.61974   0.78738   0.04606   0.00000  Uiso   1.00
N229   N     0.29235   0.78743   0.43025   0.00000  Uiso   1.00
N230   N     0.92917   0.89470   0.07869   0.00000  Uiso   1.00
C231   C     0.33346   0.07746   0.29423   0.00000  Uiso   1.00
C232   C     0.41671   0.11059   0.33438   0.00000  Uiso   1.00
C233   C     0.51638   0.09005   0.35648   0.00000  Uiso   1.00
C234   C     0.58092   0.12702   0.39246   0.00000  Uiso   1.00
C235   C     0.71539   0.17004   0.45274   0.00000  Uiso   1.00
C236   C     0.31406   0.11221   0.23261   0.00000  Uiso   1.00
C237   C     0.32741   0.09302   0.16915   0.00000  Uiso   1.00
C238   C     0.30553   0.13136   0.11946   0.00000  Uiso   1.00
C239   C     0.28056   0.17687   0.02175   0.00000  Uiso   1.00
C240   C     0.22668   0.07960   0.33254   0.00000  Uiso   1.00
C241   C     0.16654   0.03300   0.35308   0.00000  Uiso   1.00
C242   C     0.07107   0.04388   0.38751   0.00000  Uiso   1.00
C243   C     0.91043   0.03877   0.44496   0.00000  Uiso   1.00
C244   C     0.27082   0.17965   0.31882   0.00000  Uiso   1.00
C245   C     0.38269   0.16610   0.34773   0.00000  Uiso   1.00
C246   C     0.44709   0.20311   0.38369   0.00000  Uiso   1.00
C247   C     0.54684   0.18263   0.40584   0.00000  Uiso   1.00
C248   C     0.28004   0.16771   0.24597   0.00000  Uiso   1.00
C249   C     0.25812   0.20608   0.19636   0.00000  Uiso   1.00
C250   C     0.27144   0.18696   0.13284   0.00000  Uiso   1.00
C251   C     0.19266   0.13511   0.34590   0.00000  Uiso   1.00
C252   C     0.09726   0.14606   0.38030   0.00000  Uiso   1.00
C253   C     0.03699   0.09949   0.40089   0.00000  Uiso   1.00
H254   H     0.35994   0.03425   0.28382   0.00000  Uiso   1.00
H255   H     0.54268   0.04710   0.34613   0.00000  Uiso   1.00
H256   H     0.35373   0.05007   0.15883   0.00000  Uiso   1.00
H257   H     0.19290   0.99006   0.34274   0.00000  Uiso   1.00
H258   H     0.73030   0.08583   0.42107   0.00000  Uiso   1.00
H259   H     0.33186   0.09208   0.02614   0.00000  Uiso   1.00
H260   H     0.99269   0.96554   0.41395   0.00000  Uiso   1.00
H261   H     0.24434   0.22286   0.32922   0.00000  Uiso   1.00
H262   H     0.42074   0.24606   0.39402   0.00000  Uiso   1.00
H263   H     0.23179   0.24903   0.20671   0.00000  Uiso   1.00
H264   H     0.07096   0.18902   0.39062   0.00000  Uiso   1.00
H265   H     0.63133   0.24732   0.45994   0.00000  Uiso   1.00
H266   H     0.23288   0.25357   0.06500   0.00000  Uiso   1.00
H267   H     0.89372   0.12703   0.45282   0.00000  Uiso   1.00
O268   O     0.79896   0.17844   0.48229   0.00000  Uiso   1.00
O269   O     0.27619   0.18664   0.96416   0.00000  Uiso   1.00
O270   O     0.83123   0.02062   0.47296   0.00000  Uiso   1.00
N271   N     0.68279   0.12065   0.42134   0.00000  Uiso   1.00
N272   N     0.31028   0.12650   0.05210   0.00000  Uiso   1.00
N273   N     0.99318   0.00819   0.41465   0.00000  Uiso   1.00
N274   N     0.62954   0.20754   0.44225   0.00000  Uiso   1.00
N275   N     0.25703   0.21339   0.07301   0.00000  Uiso   1.00
N276   N     0.93993   0.09509   0.43557   0.00000  Uiso   1.00
C277   C     0.66209   0.08135   0.70236   0.00000  Uiso   1.00
C278   C     0.58278   0.11478   0.65977   0.00000  Uiso   1.00
C279   C     0.48666   0.09402   0.63288   0.00000  Uiso   1.00
C280   C     0.42539   0.13133   0.59537   0.00000  Uiso   1.00
C281   C     0.29708   0.17473   0.53083   0.00000  Uiso   1.00
C282   C     0.67299   0.11478   0.76566   0.00000  Uiso   1.00
C283   C     0.65274   0.09400   0.82780   0.00000  Uiso   1.00
C284   C     0.66743   0.13130   0.87942   0.00000  Uiso   1.00
C285   C     0.67926   0.17468   0.97928   0.00000  Uiso   1.00
C286   C     0.77307   0.08521   0.66876   0.00000  Uiso   1.00
C287   C     0.83698   0.03957   0.64944   0.00000  Uiso   1.00
C288   C     0.93595   0.05199   0.61950   0.00000  Uiso   1.00
C289   C     0.10316   0.04946   0.56890   0.00000  Uiso   1.00
C290   C     0.72422   0.18455   0.68356   0.00000  Uiso   1.00
C291   C     0.61652   0.17084   0.64957   0.00000  Uiso   1.00
C292   C     0.55539   0.20819   0.61208   0.00000  Uiso   1.00
C293   C     0.45920   0.18748   0.58514   0.00000  Uiso   1.00
C294   C     0.70674   0.17083   0.75545   0.00000  Uiso   1.00
C295   C     0.72147   0.20817   0.80700   0.00000  Uiso   1.00
C296   C     0.70124   0.18746   0.86920   0.00000  Uiso   1.00
C297   C     0.80682   0.14126   0.65855   0.00000  Uiso   1.00
C298   C     0.90571   0.15375   0.62864   0.00000  Uiso   1.00
C299   C     0.96976   0.10814   0.60927   0.00000  Uiso   1.00
H300   H     0.63582   0.03771   0.71031   0.00000  Uiso   1.00
H301   H     0.46056   0.05064   0.64080   0.00000  Uiso   1.00
H302   H     0.62663   0.05062   0.83568   0.00000  Uiso   1.00
H303   H     0.81084   0.99621   0.65735   0.00000  Uiso   1.00
H304   H     0.28112   0.08969   0.55925   0.00000  Uiso   1.00
H305   H     0.63132   0.08964   0.97018   0.00000  Uiso   1.00
H306   H     0.01976   0.97490   0.59412   0.00000  Uiso   1.00
H307   H     0.75049   0.22819   0.67561   0.00000  Uiso   1.00
H308   H     0.58153   0.25157   0.60419   0.00000  Uiso   1.00
H309   H     0.74759   0.25155   0.79908   0.00000  Uiso   1.00
H310   H     0.93180   0.19713   0.62075   0.00000  Uiso   1.00
H311   H     0.37930   0.25278   0.52954   0.00000  Uiso   1.00
H312   H     0.72950   0.25273   0.94047   0.00000  Uiso   1.00
H313   H     0.11794   0.13799   0.56441   0.00000  Uiso   1.00
O314   O     0.21697   0.18318   0.49806   0.00000  Uiso   1.00
O315   O     0.67644   0.18311   0.03718   0.00000  Uiso   1.00
O316   O     0.18606   0.03258   0.54380   0.00000  Uiso   1.00
N317   N     0.32743   0.12486   0.56205   0.00000  Uiso   1.00
N318   N     0.65483   0.12482   0.94624   0.00000  Uiso   1.00
N319   N     0.01800   0.01755   0.59468   0.00000  Uiso   1.00
N320   N     0.38026   0.21262   0.54606   0.00000  Uiso   1.00
N321   N     0.70765   0.21257   0.93025   0.00000  Uiso   1.00
N322   N     0.07083   0.10530   0.57869   0.00000  Uiso   1.00
C323   C     0.66654   0.92254   0.79423   0.00000  Uiso   1.00
C324   C     0.58329   0.88941   0.83438   0.00000  Uiso   1.00
C325   C     0.48362   0.90995   0.85648   0.00000  Uiso   1.00
C326   C     0.41908   0.87298   0.89246   0.00000  Uiso   1.00
C327   C     0.28461   0.82996   0.95274   0.00000  Uiso   1.00
C328   C     0.68594   0.88779   0.73261   0.00000  Uiso   1.00
C329   C     0.67259   0.90698   0.66915   0.00000  Uiso   1.00
C330   C     0.69447   0.86864   0.61946   0.00000  Uiso   1.00
C331   C     0.71944   0.82313   0.52175   0.00000  Uiso   1.00
C332   C     0.77332   0.92040   0.83254   0.00000  Uiso   1.00
C333   C     0.83346   0.96700   0.85308   0.00000  Uiso   1.00
C334   C     0.92893   0.95612   0.88751   0.00000  Uiso   1.00
C335   C     0.08957   0.96123   0.94496   0.00000  Uiso   1.00
C336   C     0.72918   0.82035   0.81882   0.00000  Uiso   1.00
C337   C     0.61731   0.83390   0.84773   0.00000  Uiso   1.00
C338   C     0.55291   0.79689   0.88369   0.00000  Uiso   1.00
C339   C     0.45316   0.81737   0.90584   0.00000  Uiso   1.00
C340   C     0.71996   0.83229   0.74597   0.00000  Uiso   1.00
C341   C     0.74188   0.79392   0.69636   0.00000  Uiso   1.00
C342   C     0.72856   0.81304   0.63284   0.00000  Uiso   1.00
C343   C     0.80734   0.86489   0.84590   0.00000  Uiso   1.00
C344   C     0.90274   0.85394   0.88030   0.00000  Uiso   1.00
C345   C     0.96301   0.90051   0.90089   0.00000  Uiso   1.00
H346   H     0.64006   0.96575   0.78382   0.00000  Uiso   1.00
H347   H     0.45732   0.95290   0.84613   0.00000  Uiso   1.00
H348   H     0.64627   0.94993   0.65883   0.00000  Uiso   1.00
H349   H     0.80710   0.00994   0.84274   0.00000  Uiso   1.00
H350   H     0.26970   0.91417   0.92107   0.00000  Uiso   1.00
H351   H     0.66814   0.90792   0.52614   0.00000  Uiso   1.00
H352   H     0.00731   0.03446   0.91395   0.00000  Uiso   1.00
H353   H     0.75566   0.77714   0.82922   0.00000  Uiso   1.00
H354   H     0.57926   0.75394   0.89402   0.00000  Uiso   1.00
H355   H     0.76821   0.75097   0.70671   0.00000  Uiso   1.00
H356   H     0.92904   0.81098   0.89062   0.00000  Uiso   1.00
H357   H     0.36867   0.75268   0.95994   0.00000  Uiso   1.00
H358   H     0.76712   0.74643   0.56500   0.00000  Uiso   1.00
H359   H     0.10628   0.87297   0.95282   0.00000  Uiso   1.00
O360   O     0.20104   0.82156   0.98229   0.00000  Uiso   1.00
O361   O     0.72381   0.81336   0.46416   0.00000  Uiso   1.00
O362   O     0.16877   0.97938   0.97296   0.00000  Uiso   1.00
N363   N     0.31721   0.87935   0.92134   0.00000  Uiso   1.00
N364   N     0.68972   0.87350   0.55210   0.00000  Uiso   1.00
N365   N     0.00682   0.99181   0.91465   0.00000  Uiso   1.00
N366   N     0.37046   0.79246   0.94225   0.00000  Uiso   1.00
N367   N     0.74297   0.78661   0.57301   0.00000  Uiso   1.00
N368   N     0.06007   0.90491   0.93557   0.00000  Uiso   1.00
