data_job_02986
_audit_creation_date              2018-12-19
_audit_creation_method            'Materials Studio'
_symmetry_space_group_name_H-M    'P1'
_symmetry_Int_Tables_number       1
_symmetry_cell_setting            triclinic
loop_
_symmetry_equiv_pos_as_xyz
  x,y,z
_cell_length_a                    23.8023
_cell_length_b                    23.8023
_cell_length_c                    9.4895
_cell_angle_alpha                 90.0000
_cell_angle_beta                  90.0000
_cell_angle_gamma                 90.0000
loop_
_atom_site_label
_atom_site_type_symbol
_atom_site_fract_x
_atom_site_fract_y
_atom_site_fract_z
_atom_site_U_iso_or_equiv
_atom_site_adp_type
_atom_site_occupancy
C1     C     0.74770   0.56119   0.07573   0.00000  Uiso   1.00
C2     C     0.69713   0.55257   0.97948   0.00000  Uiso   1.00
C3     C     0.65424   0.59104   0.95700   0.00000  Uiso   1.00
C4     C     0.61172   0.57522   0.86504   0.00000  Uiso   1.00
C5     C     0.53312   0.56981   0.72583   0.00000  Uiso   1.00
C6     C     0.74702   0.51231   0.17960   0.00000  Uiso   1.00
C7     C     0.74610   0.51692   0.32538   0.00000  Uiso   1.00
C8     C     0.74560   0.46720   0.40186   0.00000  Uiso   1.00
C9     C     0.74450   0.39927   0.57334   0.00000  Uiso   1.00
C10    C     0.79947   0.55254   0.98359   0.00000  Uiso   1.00
C11    C     0.84265   0.59098   0.96459   0.00000  Uiso   1.00
C12    C     0.88631   0.57513   0.87608   0.00000  Uiso   1.00
C13    C     0.96665   0.56967   0.74323   0.00000  Uiso   1.00
C14    C     0.74846   0.46468   0.95237   0.00000  Uiso   1.00
C15    C     0.69754   0.50015   0.91248   0.00000  Uiso   1.00
C16    C     0.65508   0.48427   0.82052   0.00000  Uiso   1.00
C17    C     0.61214   0.52270   0.79791   0.00000  Uiso   1.00
C18    C     0.74743   0.45989   0.11260   0.00000  Uiso   1.00
C19    C     0.74694   0.41014   0.18889   0.00000  Uiso   1.00
C20    C     0.74601   0.41468   0.33474   0.00000  Uiso   1.00
C21    C     0.79988   0.50012   0.91658   0.00000  Uiso   1.00
C22    C     0.84349   0.48420   0.82810   0.00000  Uiso   1.00
C23    C     0.88673   0.52261   0.80896   0.00000  Uiso   1.00
H24    H     0.74738   0.60200   0.12791   0.00000  Uiso   1.00
H25    H     0.65393   0.63160   0.00889   0.00000  Uiso   1.00
H26    H     0.74579   0.55749   0.37720   0.00000  Uiso   1.00
H27    H     0.84232   0.63154   0.01646   0.00000  Uiso   1.00
H28    H     0.55050   0.64130   0.84743   0.00000  Uiso   1.00
H29    H     0.74419   0.48504   0.62402   0.00000  Uiso   1.00
H30    H     0.94776   0.64118   0.86335   0.00000  Uiso   1.00
H31    H     0.74878   0.42386   0.90021   0.00000  Uiso   1.00
H32    H     0.65541   0.44370   0.76868   0.00000  Uiso   1.00
H33    H     0.74726   0.36959   0.13700   0.00000  Uiso   1.00
H34    H     0.84379   0.44363   0.77626   0.00000  Uiso   1.00
H35    H     0.55169   0.48879   0.65247   0.00000  Uiso   1.00
H36    H     0.74539   0.33252   0.42908   0.00000  Uiso   1.00
H37    H     0.94895   0.48867   0.66839   0.00000  Uiso   1.00
O38    O     0.48964   0.58130   0.66758   0.00000  Uiso   1.00
O39    O     0.74377   0.37628   0.68644   0.00000  Uiso   1.00
O40    O     0.01084   0.58115   0.68845   0.00000  Uiso   1.00
N41    N     0.56360   0.60269   0.81957   0.00000  Uiso   1.00
N42    N     0.74468   0.45659   0.54565   0.00000  Uiso   1.00
N43    N     0.93501   0.60257   0.83451   0.00000  Uiso   1.00
N44    N     0.56424   0.52063   0.71467   0.00000  Uiso   1.00
N45    N     0.74533   0.37452   0.44074   0.00000  Uiso   1.00
N46    N     0.93565   0.52050   0.72960   0.00000  Uiso   1.00
C47    C     0.25230   0.43881   0.07573   0.00000  Uiso   1.00
C48    C     0.30287   0.44743   0.97948   0.00000  Uiso   1.00
C49    C     0.34576   0.40896   0.95700   0.00000  Uiso   1.00
C50    C     0.38828   0.42478   0.86504   0.00000  Uiso   1.00
C51    C     0.46688   0.43019   0.72583   0.00000  Uiso   1.00
C52    C     0.25298   0.48769   0.17960   0.00000  Uiso   1.00
C53    C     0.25390   0.48308   0.32538   0.00000  Uiso   1.00
C54    C     0.25440   0.53280   0.40186   0.00000  Uiso   1.00
C55    C     0.25550   0.60073   0.57334   0.00000  Uiso   1.00
C56    C     0.20053   0.44746   0.98359   0.00000  Uiso   1.00
C57    C     0.15735   0.40902   0.96459   0.00000  Uiso   1.00
C58    C     0.11369   0.42487   0.87608   0.00000  Uiso   1.00
C59    C     0.03335   0.43033   0.74323   0.00000  Uiso   1.00
C60    C     0.25154   0.53532   0.95237   0.00000  Uiso   1.00
C61    C     0.30246   0.49985   0.91248   0.00000  Uiso   1.00
C62    C     0.34492   0.51573   0.82052   0.00000  Uiso   1.00
C63    C     0.38786   0.47730   0.79791   0.00000  Uiso   1.00
C64    C     0.25257   0.54011   0.11260   0.00000  Uiso   1.00
C65    C     0.25306   0.58986   0.18889   0.00000  Uiso   1.00
C66    C     0.25399   0.58532   0.33474   0.00000  Uiso   1.00
C67    C     0.20012   0.49988   0.91658   0.00000  Uiso   1.00
C68    C     0.15651   0.51580   0.82810   0.00000  Uiso   1.00
C69    C     0.11327   0.47739   0.80896   0.00000  Uiso   1.00
H70    H     0.25262   0.39800   0.12791   0.00000  Uiso   1.00
H71    H     0.34607   0.36840   0.00889   0.00000  Uiso   1.00
H72    H     0.25421   0.44251   0.37720   0.00000  Uiso   1.00
H73    H     0.15768   0.36846   0.01646   0.00000  Uiso   1.00
H74    H     0.44950   0.35870   0.84743   0.00000  Uiso   1.00
H75    H     0.25581   0.51496   0.62402   0.00000  Uiso   1.00
H76    H     0.05224   0.35882   0.86335   0.00000  Uiso   1.00
H77    H     0.25122   0.57614   0.90021   0.00000  Uiso   1.00
H78    H     0.34459   0.55630   0.76868   0.00000  Uiso   1.00
H79    H     0.25274   0.63041   0.13700   0.00000  Uiso   1.00
H80    H     0.15621   0.55637   0.77626   0.00000  Uiso   1.00
H81    H     0.44831   0.51121   0.65247   0.00000  Uiso   1.00
H82    H     0.25461   0.66748   0.42908   0.00000  Uiso   1.00
H83    H     0.05105   0.51133   0.66839   0.00000  Uiso   1.00
O84    O     0.51036   0.41870   0.66758   0.00000  Uiso   1.00
O85    O     0.25623   0.62372   0.68644   0.00000  Uiso   1.00
O86    O     0.98916   0.41885   0.68845   0.00000  Uiso   1.00
N87    N     0.43640   0.39731   0.81957   0.00000  Uiso   1.00
N88    N     0.25532   0.54341   0.54565   0.00000  Uiso   1.00
N89    N     0.06499   0.39743   0.83451   0.00000  Uiso   1.00
N90    N     0.43576   0.47937   0.71467   0.00000  Uiso   1.00
N91    N     0.25467   0.62548   0.44074   0.00000  Uiso   1.00
N92    N     0.06435   0.47950   0.72960   0.00000  Uiso   1.00
C93    C     0.93881   0.24770   0.57573   0.00000  Uiso   1.00
C94    C     0.94743   0.19713   0.47948   0.00000  Uiso   1.00
C95    C     0.90896   0.15424   0.45700   0.00000  Uiso   1.00
C96    C     0.92478   0.11172   0.36504   0.00000  Uiso   1.00
C97    C     0.93019   0.03312   0.22583   0.00000  Uiso   1.00
C98    C     0.98769   0.24702   0.67960   0.00000  Uiso   1.00
C99    C     0.98308   0.24610   0.82538   0.00000  Uiso   1.00
C100   C     0.03280   0.24560   0.90186   0.00000  Uiso   1.00
C101   C     0.10073   0.24450   0.07334   0.00000  Uiso   1.00
C102   C     0.94746   0.29947   0.48359   0.00000  Uiso   1.00
C103   C     0.90902   0.34265   0.46459   0.00000  Uiso   1.00
C104   C     0.92487   0.38631   0.37608   0.00000  Uiso   1.00
C105   C     0.93033   0.46665   0.24323   0.00000  Uiso   1.00
C106   C     0.03532   0.24846   0.45237   0.00000  Uiso   1.00
C107   C     0.99985   0.19754   0.41248   0.00000  Uiso   1.00
C108   C     0.01573   0.15508   0.32052   0.00000  Uiso   1.00
C109   C     0.97730   0.11214   0.29791   0.00000  Uiso   1.00
C110   C     0.04011   0.24743   0.61260   0.00000  Uiso   1.00
C111   C     0.08986   0.24694   0.68889   0.00000  Uiso   1.00
C112   C     0.08532   0.24601   0.83474   0.00000  Uiso   1.00
C113   C     0.99988   0.29988   0.41658   0.00000  Uiso   1.00
C114   C     0.01580   0.34349   0.32810   0.00000  Uiso   1.00
C115   C     0.97739   0.38673   0.30896   0.00000  Uiso   1.00
H116   H     0.89800   0.24738   0.62791   0.00000  Uiso   1.00
H117   H     0.86840   0.15393   0.50889   0.00000  Uiso   1.00
H118   H     0.94251   0.24579   0.87720   0.00000  Uiso   1.00
H119   H     0.86846   0.34232   0.51646   0.00000  Uiso   1.00
H120   H     0.85870   0.05050   0.34743   0.00000  Uiso   1.00
H121   H     0.01496   0.24419   0.12402   0.00000  Uiso   1.00
H122   H     0.85882   0.44776   0.36335   0.00000  Uiso   1.00
H123   H     0.07614   0.24878   0.40021   0.00000  Uiso   1.00
H124   H     0.05630   0.15541   0.26868   0.00000  Uiso   1.00
H125   H     0.13041   0.24726   0.63700   0.00000  Uiso   1.00
H126   H     0.05637   0.34379   0.27626   0.00000  Uiso   1.00
H127   H     0.01121   0.05169   0.15247   0.00000  Uiso   1.00
H128   H     0.16748   0.24539   0.92908   0.00000  Uiso   1.00
H129   H     0.01133   0.44895   0.16839   0.00000  Uiso   1.00
O130   O     0.91870   0.98964   0.16758   0.00000  Uiso   1.00
O131   O     0.12372   0.24377   0.18644   0.00000  Uiso   1.00
O132   O     0.91885   0.51084   0.18845   0.00000  Uiso   1.00
N133   N     0.89731   0.06360   0.31957   0.00000  Uiso   1.00
N134   N     0.04341   0.24468   0.04565   0.00000  Uiso   1.00
N135   N     0.89743   0.43501   0.33451   0.00000  Uiso   1.00
N136   N     0.97937   0.06424   0.21467   0.00000  Uiso   1.00
N137   N     0.12548   0.24533   0.94074   0.00000  Uiso   1.00
N138   N     0.97950   0.43565   0.22960   0.00000  Uiso   1.00
C139   C     0.06119   0.75230   0.57573   0.00000  Uiso   1.00
C140   C     0.05257   0.80287   0.47948   0.00000  Uiso   1.00
C141   C     0.09104   0.84576   0.45700   0.00000  Uiso   1.00
C142   C     0.07522   0.88828   0.36504   0.00000  Uiso   1.00
C143   C     0.06981   0.96688   0.22583   0.00000  Uiso   1.00
C144   C     0.01231   0.75298   0.67960   0.00000  Uiso   1.00
C145   C     0.01692   0.75390   0.82538   0.00000  Uiso   1.00
C146   C     0.96720   0.75440   0.90186   0.00000  Uiso   1.00
C147   C     0.89927   0.75550   0.07334   0.00000  Uiso   1.00
C148   C     0.05254   0.70053   0.48359   0.00000  Uiso   1.00
C149   C     0.09098   0.65735   0.46459   0.00000  Uiso   1.00
C150   C     0.07513   0.61369   0.37608   0.00000  Uiso   1.00
C151   C     0.06967   0.53335   0.24323   0.00000  Uiso   1.00
C152   C     0.96468   0.75154   0.45237   0.00000  Uiso   1.00
C153   C     0.00015   0.80246   0.41248   0.00000  Uiso   1.00
C154   C     0.98427   0.84492   0.32052   0.00000  Uiso   1.00
C155   C     0.02270   0.88786   0.29791   0.00000  Uiso   1.00
C156   C     0.95989   0.75257   0.61260   0.00000  Uiso   1.00
C157   C     0.91014   0.75306   0.68889   0.00000  Uiso   1.00
C158   C     0.91468   0.75399   0.83474   0.00000  Uiso   1.00
C159   C     0.00012   0.70012   0.41658   0.00000  Uiso   1.00
C160   C     0.98420   0.65651   0.32810   0.00000  Uiso   1.00
C161   C     0.02261   0.61327   0.30896   0.00000  Uiso   1.00
H162   H     0.10200   0.75262   0.62791   0.00000  Uiso   1.00
H163   H     0.13160   0.84607   0.50889   0.00000  Uiso   1.00
H164   H     0.05749   0.75421   0.87720   0.00000  Uiso   1.00
H165   H     0.13154   0.65768   0.51646   0.00000  Uiso   1.00
H166   H     0.14130   0.94950   0.34743   0.00000  Uiso   1.00
H167   H     0.98504   0.75581   0.12402   0.00000  Uiso   1.00
H168   H     0.14118   0.55224   0.36335   0.00000  Uiso   1.00
H169   H     0.92386   0.75122   0.40021   0.00000  Uiso   1.00
H170   H     0.94370   0.84459   0.26868   0.00000  Uiso   1.00
H171   H     0.86959   0.75274   0.63700   0.00000  Uiso   1.00
H172   H     0.94363   0.65621   0.27626   0.00000  Uiso   1.00
H173   H     0.98879   0.94831   0.15247   0.00000  Uiso   1.00
H174   H     0.83252   0.75461   0.92908   0.00000  Uiso   1.00
H175   H     0.98867   0.55105   0.16839   0.00000  Uiso   1.00
O176   O     0.08130   0.01036   0.16758   0.00000  Uiso   1.00
O177   O     0.87628   0.75623   0.18644   0.00000  Uiso   1.00
O178   O     0.08115   0.48916   0.18845   0.00000  Uiso   1.00
N179   N     0.10269   0.93640   0.31957   0.00000  Uiso   1.00
N180   N     0.95659   0.75532   0.04565   0.00000  Uiso   1.00
N181   N     0.10257   0.56499   0.33451   0.00000  Uiso   1.00
N182   N     0.02063   0.93576   0.21467   0.00000  Uiso   1.00
N183   N     0.87452   0.75467   0.94074   0.00000  Uiso   1.00
N184   N     0.02050   0.56435   0.22960   0.00000  Uiso   1.00
C185   C     0.75230   0.93881   0.42427   0.00000  Uiso   1.00
C186   C     0.80287   0.94743   0.52052   0.00000  Uiso   1.00
C187   C     0.84576   0.90896   0.54300   0.00000  Uiso   1.00
C188   C     0.88828   0.92478   0.63496   0.00000  Uiso   1.00
C189   C     0.96688   0.93019   0.77417   0.00000  Uiso   1.00
C190   C     0.75298   0.98769   0.32040   0.00000  Uiso   1.00
C191   C     0.75390   0.98308   0.17462   0.00000  Uiso   1.00
C192   C     0.75440   0.03280   0.09814   0.00000  Uiso   1.00
C193   C     0.75550   0.10073   0.92666   0.00000  Uiso   1.00
C194   C     0.70053   0.94746   0.51641   0.00000  Uiso   1.00
C195   C     0.65735   0.90902   0.53541   0.00000  Uiso   1.00
C196   C     0.61369   0.92487   0.62392   0.00000  Uiso   1.00
C197   C     0.53335   0.93033   0.75677   0.00000  Uiso   1.00
C198   C     0.75154   0.03532   0.54763   0.00000  Uiso   1.00
C199   C     0.80246   0.99985   0.58752   0.00000  Uiso   1.00
C200   C     0.84492   0.01573   0.67948   0.00000  Uiso   1.00
C201   C     0.88786   0.97730   0.70209   0.00000  Uiso   1.00
C202   C     0.75257   0.04011   0.38740   0.00000  Uiso   1.00
C203   C     0.75306   0.08986   0.31111   0.00000  Uiso   1.00
C204   C     0.75399   0.08532   0.16526   0.00000  Uiso   1.00
C205   C     0.70012   0.99988   0.58342   0.00000  Uiso   1.00
C206   C     0.65651   0.01580   0.67190   0.00000  Uiso   1.00
C207   C     0.61327   0.97739   0.69104   0.00000  Uiso   1.00
H208   H     0.75262   0.89800   0.37209   0.00000  Uiso   1.00
H209   H     0.84607   0.86840   0.49111   0.00000  Uiso   1.00
H210   H     0.75421   0.94251   0.12280   0.00000  Uiso   1.00
H211   H     0.65768   0.86846   0.48354   0.00000  Uiso   1.00
H212   H     0.94950   0.85870   0.65257   0.00000  Uiso   1.00
H213   H     0.75581   0.01496   0.87598   0.00000  Uiso   1.00
H214   H     0.55224   0.85882   0.63665   0.00000  Uiso   1.00
H215   H     0.75122   0.07614   0.59979   0.00000  Uiso   1.00
H216   H     0.84459   0.05630   0.73132   0.00000  Uiso   1.00
H217   H     0.75274   0.13041   0.36300   0.00000  Uiso   1.00
H218   H     0.65621   0.05637   0.72374   0.00000  Uiso   1.00
H219   H     0.94831   0.01121   0.84753   0.00000  Uiso   1.00
H220   H     0.75461   0.16748   0.07092   0.00000  Uiso   1.00
H221   H     0.55105   0.01133   0.83161   0.00000  Uiso   1.00
O222   O     0.01036   0.91870   0.83242   0.00000  Uiso   1.00
O223   O     0.75623   0.12372   0.81356   0.00000  Uiso   1.00
O224   O     0.48916   0.91885   0.81155   0.00000  Uiso   1.00
N225   N     0.93640   0.89731   0.68043   0.00000  Uiso   1.00
N226   N     0.75532   0.04341   0.95435   0.00000  Uiso   1.00
N227   N     0.56499   0.89743   0.66549   0.00000  Uiso   1.00
N228   N     0.93576   0.97937   0.78533   0.00000  Uiso   1.00
N229   N     0.75467   0.12548   0.05926   0.00000  Uiso   1.00
N230   N     0.56435   0.97950   0.77040   0.00000  Uiso   1.00
C231   C     0.24770   0.06119   0.42427   0.00000  Uiso   1.00
C232   C     0.19713   0.05257   0.52052   0.00000  Uiso   1.00
C233   C     0.15424   0.09104   0.54300   0.00000  Uiso   1.00
C234   C     0.11172   0.07522   0.63496   0.00000  Uiso   1.00
C235   C     0.03312   0.06981   0.77417   0.00000  Uiso   1.00
C236   C     0.24702   0.01231   0.32040   0.00000  Uiso   1.00
C237   C     0.24610   0.01692   0.17462   0.00000  Uiso   1.00
C238   C     0.24560   0.96720   0.09814   0.00000  Uiso   1.00
C239   C     0.24450   0.89927   0.92666   0.00000  Uiso   1.00
C240   C     0.29947   0.05254   0.51641   0.00000  Uiso   1.00
C241   C     0.34265   0.09098   0.53541   0.00000  Uiso   1.00
C242   C     0.38631   0.07513   0.62392   0.00000  Uiso   1.00
C243   C     0.46665   0.06967   0.75677   0.00000  Uiso   1.00
C244   C     0.24846   0.96468   0.54763   0.00000  Uiso   1.00
C245   C     0.19754   0.00015   0.58752   0.00000  Uiso   1.00
C246   C     0.15508   0.98427   0.67948   0.00000  Uiso   1.00
C247   C     0.11214   0.02270   0.70209   0.00000  Uiso   1.00
C248   C     0.24743   0.95989   0.38740   0.00000  Uiso   1.00
C249   C     0.24694   0.91014   0.31111   0.00000  Uiso   1.00
C250   C     0.24601   0.91468   0.16526   0.00000  Uiso   1.00
C251   C     0.29988   0.00012   0.58342   0.00000  Uiso   1.00
C252   C     0.34349   0.98420   0.67190   0.00000  Uiso   1.00
C253   C     0.38673   0.02261   0.69104   0.00000  Uiso   1.00
H254   H     0.24738   0.10200   0.37209   0.00000  Uiso   1.00
H255   H     0.15393   0.13160   0.49111   0.00000  Uiso   1.00
H256   H     0.24579   0.05749   0.12280   0.00000  Uiso   1.00
H257   H     0.34232   0.13154   0.48354   0.00000  Uiso   1.00
H258   H     0.05050   0.14130   0.65257   0.00000  Uiso   1.00
H259   H     0.24419   0.98504   0.87598   0.00000  Uiso   1.00
H260   H     0.44776   0.14118   0.63665   0.00000  Uiso   1.00
H261   H     0.24878   0.92386   0.59979   0.00000  Uiso   1.00
H262   H     0.15541   0.94370   0.73132   0.00000  Uiso   1.00
H263   H     0.24726   0.86959   0.36300   0.00000  Uiso   1.00
H264   H     0.34379   0.94363   0.72374   0.00000  Uiso   1.00
H265   H     0.05169   0.98879   0.84753   0.00000  Uiso   1.00
H266   H     0.24539   0.83252   0.07092   0.00000  Uiso   1.00
H267   H     0.44895   0.98867   0.83161   0.00000  Uiso   1.00
O268   O     0.98964   0.08130   0.83242   0.00000  Uiso   1.00
O269   O     0.24377   0.87628   0.81356   0.00000  Uiso   1.00
O270   O     0.51084   0.08115   0.81155   0.00000  Uiso   1.00
N271   N     0.06360   0.10269   0.68043   0.00000  Uiso   1.00
N272   N     0.24468   0.95659   0.95435   0.00000  Uiso   1.00
N273   N     0.43501   0.10257   0.66549   0.00000  Uiso   1.00
N274   N     0.06424   0.02063   0.78533   0.00000  Uiso   1.00
N275   N     0.24533   0.87452   0.05926   0.00000  Uiso   1.00
N276   N     0.43565   0.02050   0.77040   0.00000  Uiso   1.00
C277   C     0.56119   0.25230   0.92427   0.00000  Uiso   1.00
C278   C     0.55257   0.30287   0.02052   0.00000  Uiso   1.00
C279   C     0.59104   0.34576   0.04300   0.00000  Uiso   1.00
C280   C     0.57522   0.38828   0.13496   0.00000  Uiso   1.00
C281   C     0.56981   0.46688   0.27417   0.00000  Uiso   1.00
C282   C     0.51231   0.25298   0.82040   0.00000  Uiso   1.00
C283   C     0.51692   0.25390   0.67462   0.00000  Uiso   1.00
C284   C     0.46720   0.25440   0.59814   0.00000  Uiso   1.00
C285   C     0.39927   0.25550   0.42666   0.00000  Uiso   1.00
C286   C     0.55254   0.20053   0.01641   0.00000  Uiso   1.00
C287   C     0.59098   0.15735   0.03541   0.00000  Uiso   1.00
C288   C     0.57513   0.11369   0.12392   0.00000  Uiso   1.00
C289   C     0.56967   0.03335   0.25677   0.00000  Uiso   1.00
C290   C     0.46468   0.25154   0.04763   0.00000  Uiso   1.00
C291   C     0.50015   0.30246   0.08752   0.00000  Uiso   1.00
C292   C     0.48427   0.34492   0.17948   0.00000  Uiso   1.00
C293   C     0.52270   0.38786   0.20209   0.00000  Uiso   1.00
C294   C     0.45989   0.25257   0.88740   0.00000  Uiso   1.00
C295   C     0.41014   0.25306   0.81111   0.00000  Uiso   1.00
C296   C     0.41468   0.25399   0.66526   0.00000  Uiso   1.00
C297   C     0.50012   0.20012   0.08342   0.00000  Uiso   1.00
C298   C     0.48420   0.15651   0.17190   0.00000  Uiso   1.00
C299   C     0.52261   0.11327   0.19104   0.00000  Uiso   1.00
H300   H     0.60200   0.25262   0.87209   0.00000  Uiso   1.00
H301   H     0.63160   0.34607   0.99111   0.00000  Uiso   1.00
H302   H     0.55749   0.25421   0.62280   0.00000  Uiso   1.00
H303   H     0.63154   0.15768   0.98354   0.00000  Uiso   1.00
H304   H     0.64130   0.44950   0.15257   0.00000  Uiso   1.00
H305   H     0.48504   0.25581   0.37598   0.00000  Uiso   1.00
H306   H     0.64118   0.05224   0.13665   0.00000  Uiso   1.00
H307   H     0.42386   0.25122   0.09979   0.00000  Uiso   1.00
H308   H     0.44370   0.34459   0.23132   0.00000  Uiso   1.00
H309   H     0.36959   0.25274   0.86300   0.00000  Uiso   1.00
H310   H     0.44363   0.15621   0.22374   0.00000  Uiso   1.00
H311   H     0.48879   0.44831   0.34753   0.00000  Uiso   1.00
H312   H     0.33252   0.25461   0.57092   0.00000  Uiso   1.00
H313   H     0.48867   0.05105   0.33161   0.00000  Uiso   1.00
O314   O     0.58130   0.51036   0.33242   0.00000  Uiso   1.00
O315   O     0.37628   0.25623   0.31356   0.00000  Uiso   1.00
O316   O     0.58115   0.98916   0.31155   0.00000  Uiso   1.00
N317   N     0.60269   0.43640   0.18043   0.00000  Uiso   1.00
N318   N     0.45659   0.25532   0.45435   0.00000  Uiso   1.00
N319   N     0.60257   0.06499   0.16549   0.00000  Uiso   1.00
N320   N     0.52063   0.43576   0.28533   0.00000  Uiso   1.00
N321   N     0.37452   0.25467   0.55926   0.00000  Uiso   1.00
N322   N     0.52050   0.06435   0.27040   0.00000  Uiso   1.00
C323   C     0.43881   0.74770   0.92427   0.00000  Uiso   1.00
C324   C     0.44743   0.69713   0.02052   0.00000  Uiso   1.00
C325   C     0.40896   0.65424   0.04300   0.00000  Uiso   1.00
C326   C     0.42478   0.61172   0.13496   0.00000  Uiso   1.00
C327   C     0.43019   0.53312   0.27417   0.00000  Uiso   1.00
C328   C     0.48769   0.74702   0.82040   0.00000  Uiso   1.00
C329   C     0.48308   0.74610   0.67462   0.00000  Uiso   1.00
C330   C     0.53280   0.74560   0.59814   0.00000  Uiso   1.00
C331   C     0.60073   0.74450   0.42666   0.00000  Uiso   1.00
C332   C     0.44746   0.79947   0.01641   0.00000  Uiso   1.00
C333   C     0.40902   0.84265   0.03541   0.00000  Uiso   1.00
C334   C     0.42487   0.88631   0.12392   0.00000  Uiso   1.00
C335   C     0.43033   0.96665   0.25677   0.00000  Uiso   1.00
C336   C     0.53532   0.74846   0.04763   0.00000  Uiso   1.00
C337   C     0.49985   0.69754   0.08752   0.00000  Uiso   1.00
C338   C     0.51573   0.65508   0.17948   0.00000  Uiso   1.00
C339   C     0.47730   0.61214   0.20209   0.00000  Uiso   1.00
C340   C     0.54011   0.74743   0.88740   0.00000  Uiso   1.00
C341   C     0.58986   0.74694   0.81111   0.00000  Uiso   1.00
C342   C     0.58532   0.74601   0.66526   0.00000  Uiso   1.00
C343   C     0.49988   0.79988   0.08342   0.00000  Uiso   1.00
C344   C     0.51580   0.84349   0.17190   0.00000  Uiso   1.00
C345   C     0.47739   0.88673   0.19104   0.00000  Uiso   1.00
H346   H     0.39800   0.74738   0.87209   0.00000  Uiso   1.00
H347   H     0.36840   0.65393   0.99111   0.00000  Uiso   1.00
H348   H     0.44251   0.74579   0.62280   0.00000  Uiso   1.00
H349   H     0.36846   0.84232   0.98354   0.00000  Uiso   1.00
H350   H     0.35870   0.55050   0.15257   0.00000  Uiso   1.00
H351   H     0.51496   0.74419   0.37598   0.00000  Uiso   1.00
H352   H     0.35882   0.94776   0.13665   0.00000  Uiso   1.00
H353   H     0.57614   0.74878   0.09979   0.00000  Uiso   1.00
H354   H     0.55630   0.65541   0.23132   0.00000  Uiso   1.00
H355   H     0.63041   0.74726   0.86300   0.00000  Uiso   1.00
H356   H     0.55637   0.84379   0.22374   0.00000  Uiso   1.00
H357   H     0.51121   0.55169   0.34753   0.00000  Uiso   1.00
H358   H     0.66748   0.74539   0.57092   0.00000  Uiso   1.00
H359   H     0.51133   0.94895   0.33161   0.00000  Uiso   1.00
O360   O     0.41870   0.48964   0.33242   0.00000  Uiso   1.00
O361   O     0.62372   0.74377   0.31356   0.00000  Uiso   1.00
O362   O     0.41885   0.01084   0.31155   0.00000  Uiso   1.00
N363   N     0.39731   0.56360   0.18043   0.00000  Uiso   1.00
N364   N     0.54341   0.74468   0.45435   0.00000  Uiso   1.00
N365   N     0.39743   0.93501   0.16549   0.00000  Uiso   1.00
N366   N     0.47937   0.56424   0.28533   0.00000  Uiso   1.00
N367   N     0.62548   0.74533   0.55926   0.00000  Uiso   1.00
N368   N     0.47950   0.93565   0.27040   0.00000  Uiso   1.00
