data_job_04095
_audit_creation_date              2018-12-19
_audit_creation_method            'Materials Studio'
_symmetry_space_group_name_H-M    'P1'
_symmetry_Int_Tables_number       1
_symmetry_cell_setting            triclinic
loop_
_symmetry_equiv_pos_as_xyz
  x,y,z
_cell_length_a                    16.8934
_cell_length_b                    16.8934
_cell_length_c                    27.2741
_cell_angle_alpha                 90.0000
_cell_angle_beta                  90.0000
_cell_angle_gamma                 90.0000
loop_
_atom_site_label
_atom_site_type_symbol
_atom_site_fract_x
_atom_site_fract_y
_atom_site_fract_z
_atom_site_U_iso_or_equiv
_atom_site_adp_type
_atom_site_occupancy
C1     C     0.87502   0.72872   0.51250   0.00000  Uiso   1.00
C2     C     0.78807   0.74188   0.52513   0.00000  Uiso   1.00
C3     C     0.75909   0.79784   0.55777   0.00000  Uiso   1.00
C4     C     0.67763   0.80050   0.56428   0.00000  Uiso   1.00
C5     C     0.55032   0.82874   0.58775   0.00000  Uiso   1.00
C6     C     0.89193   0.64186   0.52353   0.00000  Uiso   1.00
C7     C     0.95028   0.61372   0.55483   0.00000  Uiso   1.00
C8     C     0.95624   0.53217   0.55998   0.00000  Uiso   1.00
C9     C     0.99022   0.40512   0.58094   0.00000  Uiso   1.00
C10    C     0.88122   0.73746   0.45699   0.00000  Uiso   1.00
C11    C     0.93058   0.78969   0.43233   0.00000  Uiso   1.00
C12    C     0.92753   0.78862   0.38146   0.00000  Uiso   1.00
C13    C     0.94488   0.81000   0.29910   0.00000  Uiso   1.00
C14    C     0.78187   0.63394   0.46601   0.00000  Uiso   1.00
C15    C     0.73748   0.69040   0.49988   0.00000  Uiso   1.00
C16    C     0.65603   0.69297   0.50634   0.00000  Uiso   1.00
C17    C     0.62694   0.74892   0.53899   0.00000  Uiso   1.00
C18    C     0.84134   0.59038   0.49828   0.00000  Uiso   1.00
C19    C     0.84722   0.50885   0.50339   0.00000  Uiso   1.00
C20    C     0.90556   0.48059   0.53469   0.00000  Uiso   1.00
C21    C     0.83062   0.68598   0.43174   0.00000  Uiso   1.00
C22    C     0.82751   0.68482   0.38089   0.00000  Uiso   1.00
C23    C     0.87685   0.73704   0.35616   0.00000  Uiso   1.00
H24    H     0.91441   0.76880   0.53216   0.00000  Uiso   1.00
H25    H     0.79827   0.83767   0.57731   0.00000  Uiso   1.00
H26    H     0.98943   0.65357   0.57436   0.00000  Uiso   1.00
H27    H     0.96972   0.82952   0.45188   0.00000  Uiso   1.00
H28    H     0.64719   0.89129   0.61625   0.00000  Uiso   1.00
H29    H     0.05028   0.50313   0.61001   0.00000  Uiso   1.00
H30    H     0.00873   0.87414   0.35174   0.00000  Uiso   1.00
H31    H     0.74248   0.59385   0.44635   0.00000  Uiso   1.00
H32    H     0.61690   0.65312   0.48680   0.00000  Uiso   1.00
H33    H     0.80806   0.46903   0.48385   0.00000  Uiso   1.00
H34    H     0.78835   0.64497   0.36137   0.00000  Uiso   1.00
H35    H     0.49999   0.74151   0.54278   0.00000  Uiso   1.00
H36    H     0.90308   0.35334   0.53654   0.00000  Uiso   1.00
H37    H     0.86152   0.72435   0.27827   0.00000  Uiso   1.00
O38    O     0.49408   0.85853   0.60768   0.00000  Uiso   1.00
O39    O     0.02293   0.34927   0.59949   0.00000  Uiso   1.00
O40    O     0.96841   0.83603   0.26064   0.00000  Uiso   1.00
N41    N     0.62978   0.84792   0.59340   0.00000  Uiso   1.00
N42    N     0.00664   0.48500   0.58757   0.00000  Uiso   1.00
N43    N     0.96780   0.83185   0.34611   0.00000  Uiso   1.00
N44    N     0.55057   0.76732   0.55387   0.00000  Uiso   1.00
N45    N     0.92743   0.40441   0.54804   0.00000  Uiso   1.00
N46    N     0.88859   0.75126   0.30658   0.00000  Uiso   1.00
C47    C     0.12498   0.27128   0.01250   0.00000  Uiso   1.00
C48    C     0.21193   0.25812   0.02513   0.00000  Uiso   1.00
C49    C     0.24091   0.20216   0.05777   0.00000  Uiso   1.00
C50    C     0.32237   0.19950   0.06428   0.00000  Uiso   1.00
C51    C     0.44968   0.17126   0.08775   0.00000  Uiso   1.00
C52    C     0.10807   0.35814   0.02353   0.00000  Uiso   1.00
C53    C     0.04972   0.38628   0.05483   0.00000  Uiso   1.00
C54    C     0.04376   0.46783   0.05998   0.00000  Uiso   1.00
C55    C     0.00978   0.59488   0.08094   0.00000  Uiso   1.00
C56    C     0.11878   0.26254   0.95699   0.00000  Uiso   1.00
C57    C     0.06942   0.21031   0.93233   0.00000  Uiso   1.00
C58    C     0.07247   0.21138   0.88146   0.00000  Uiso   1.00
C59    C     0.05512   0.19000   0.79910   0.00000  Uiso   1.00
C60    C     0.21813   0.36606   0.96601   0.00000  Uiso   1.00
C61    C     0.26252   0.30960   0.99988   0.00000  Uiso   1.00
C62    C     0.34397   0.30703   0.00634   0.00000  Uiso   1.00
C63    C     0.37306   0.25108   0.03899   0.00000  Uiso   1.00
C64    C     0.15866   0.40962   0.99828   0.00000  Uiso   1.00
C65    C     0.15278   0.49115   0.00339   0.00000  Uiso   1.00
C66    C     0.09444   0.51941   0.03469   0.00000  Uiso   1.00
C67    C     0.16938   0.31402   0.93174   0.00000  Uiso   1.00
C68    C     0.17249   0.31518   0.88089   0.00000  Uiso   1.00
C69    C     0.12315   0.26296   0.85616   0.00000  Uiso   1.00
H70    H     0.08559   0.23120   0.03216   0.00000  Uiso   1.00
H71    H     0.20173   0.16233   0.07731   0.00000  Uiso   1.00
H72    H     0.01057   0.34643   0.07436   0.00000  Uiso   1.00
H73    H     0.03028   0.17048   0.95188   0.00000  Uiso   1.00
H74    H     0.35281   0.10871   0.11625   0.00000  Uiso   1.00
H75    H     0.94972   0.49687   0.11001   0.00000  Uiso   1.00
H76    H     0.99127   0.12586   0.85174   0.00000  Uiso   1.00
H77    H     0.25752   0.40615   0.94635   0.00000  Uiso   1.00
H78    H     0.38310   0.34688   0.98680   0.00000  Uiso   1.00
H79    H     0.19194   0.53097   0.98385   0.00000  Uiso   1.00
H80    H     0.21165   0.35503   0.86137   0.00000  Uiso   1.00
H81    H     0.50001   0.25849   0.04278   0.00000  Uiso   1.00
H82    H     0.09692   0.64666   0.03654   0.00000  Uiso   1.00
H83    H     0.13848   0.27565   0.77827   0.00000  Uiso   1.00
O84    O     0.50592   0.14147   0.10768   0.00000  Uiso   1.00
O85    O     0.97707   0.65073   0.09949   0.00000  Uiso   1.00
O86    O     0.03159   0.16397   0.76064   0.00000  Uiso   1.00
N87    N     0.37022   0.15208   0.09340   0.00000  Uiso   1.00
N88    N     0.99336   0.51500   0.08757   0.00000  Uiso   1.00
N89    N     0.03220   0.16815   0.84611   0.00000  Uiso   1.00
N90    N     0.44943   0.23268   0.05387   0.00000  Uiso   1.00
N91    N     0.07257   0.59559   0.04804   0.00000  Uiso   1.00
N92    N     0.11141   0.24874   0.80658   0.00000  Uiso   1.00
C93    C     0.27128   0.87502   0.76250   0.00000  Uiso   1.00
C94    C     0.25812   0.78807   0.77513   0.00000  Uiso   1.00
C95    C     0.20216   0.75909   0.80777   0.00000  Uiso   1.00
C96    C     0.19950   0.67763   0.81428   0.00000  Uiso   1.00
C97    C     0.17126   0.55032   0.83775   0.00000  Uiso   1.00
C98    C     0.35814   0.89193   0.77353   0.00000  Uiso   1.00
C99    C     0.38628   0.95028   0.80483   0.00000  Uiso   1.00
C100   C     0.46783   0.95624   0.80998   0.00000  Uiso   1.00
C101   C     0.59488   0.99022   0.83094   0.00000  Uiso   1.00
C102   C     0.26254   0.88122   0.70699   0.00000  Uiso   1.00
C103   C     0.21031   0.93058   0.68233   0.00000  Uiso   1.00
C104   C     0.21138   0.92753   0.63146   0.00000  Uiso   1.00
C105   C     0.19000   0.94488   0.54910   0.00000  Uiso   1.00
C106   C     0.36606   0.78187   0.71601   0.00000  Uiso   1.00
C107   C     0.30960   0.73748   0.74988   0.00000  Uiso   1.00
C108   C     0.30703   0.65603   0.75634   0.00000  Uiso   1.00
C109   C     0.25108   0.62694   0.78899   0.00000  Uiso   1.00
C110   C     0.40962   0.84134   0.74828   0.00000  Uiso   1.00
C111   C     0.49115   0.84722   0.75339   0.00000  Uiso   1.00
C112   C     0.51941   0.90556   0.78469   0.00000  Uiso   1.00
C113   C     0.31402   0.83062   0.68174   0.00000  Uiso   1.00
C114   C     0.31518   0.82751   0.63089   0.00000  Uiso   1.00
C115   C     0.26296   0.87685   0.60616   0.00000  Uiso   1.00
H116   H     0.23120   0.91441   0.78216   0.00000  Uiso   1.00
H117   H     0.16233   0.79827   0.82731   0.00000  Uiso   1.00
H118   H     0.34643   0.98943   0.82436   0.00000  Uiso   1.00
H119   H     0.17048   0.96972   0.70188   0.00000  Uiso   1.00
H120   H     0.10871   0.64719   0.86625   0.00000  Uiso   1.00
H121   H     0.49687   0.05028   0.86001   0.00000  Uiso   1.00
H122   H     0.12586   0.00873   0.60174   0.00000  Uiso   1.00
H123   H     0.40615   0.74248   0.69635   0.00000  Uiso   1.00
H124   H     0.34688   0.61690   0.73680   0.00000  Uiso   1.00
H125   H     0.53097   0.80806   0.73385   0.00000  Uiso   1.00
H126   H     0.35503   0.78835   0.61137   0.00000  Uiso   1.00
H127   H     0.25849   0.49999   0.79278   0.00000  Uiso   1.00
H128   H     0.64666   0.90308   0.78654   0.00000  Uiso   1.00
H129   H     0.27565   0.86152   0.52827   0.00000  Uiso   1.00
O130   O     0.14147   0.49408   0.85768   0.00000  Uiso   1.00
O131   O     0.65073   0.02293   0.84949   0.00000  Uiso   1.00
O132   O     0.16397   0.96841   0.51064   0.00000  Uiso   1.00
N133   N     0.15208   0.62978   0.84340   0.00000  Uiso   1.00
N134   N     0.51500   0.00664   0.83757   0.00000  Uiso   1.00
N135   N     0.16815   0.96780   0.59611   0.00000  Uiso   1.00
N136   N     0.23268   0.55057   0.80387   0.00000  Uiso   1.00
N137   N     0.59559   0.92743   0.79804   0.00000  Uiso   1.00
N138   N     0.24874   0.88859   0.55658   0.00000  Uiso   1.00
C139   C     0.72872   0.12498   0.26250   0.00000  Uiso   1.00
C140   C     0.74188   0.21193   0.27513   0.00000  Uiso   1.00
C141   C     0.79784   0.24091   0.30777   0.00000  Uiso   1.00
C142   C     0.80050   0.32237   0.31428   0.00000  Uiso   1.00
C143   C     0.82874   0.44968   0.33775   0.00000  Uiso   1.00
C144   C     0.64186   0.10807   0.27353   0.00000  Uiso   1.00
C145   C     0.61372   0.04972   0.30483   0.00000  Uiso   1.00
C146   C     0.53217   0.04376   0.30998   0.00000  Uiso   1.00
C147   C     0.40512   0.00978   0.33094   0.00000  Uiso   1.00
C148   C     0.73746   0.11878   0.20699   0.00000  Uiso   1.00
C149   C     0.78969   0.06942   0.18233   0.00000  Uiso   1.00
C150   C     0.78862   0.07247   0.13146   0.00000  Uiso   1.00
C151   C     0.81000   0.05512   0.04910   0.00000  Uiso   1.00
C152   C     0.63394   0.21813   0.21601   0.00000  Uiso   1.00
C153   C     0.69040   0.26252   0.24988   0.00000  Uiso   1.00
C154   C     0.69297   0.34397   0.25634   0.00000  Uiso   1.00
C155   C     0.74892   0.37306   0.28899   0.00000  Uiso   1.00
C156   C     0.59038   0.15866   0.24828   0.00000  Uiso   1.00
C157   C     0.50885   0.15278   0.25339   0.00000  Uiso   1.00
C158   C     0.48059   0.09444   0.28469   0.00000  Uiso   1.00
C159   C     0.68598   0.16938   0.18174   0.00000  Uiso   1.00
C160   C     0.68482   0.17249   0.13089   0.00000  Uiso   1.00
C161   C     0.73704   0.12315   0.10616   0.00000  Uiso   1.00
H162   H     0.76880   0.08559   0.28216   0.00000  Uiso   1.00
H163   H     0.83767   0.20173   0.32731   0.00000  Uiso   1.00
H164   H     0.65357   0.01057   0.32436   0.00000  Uiso   1.00
H165   H     0.82952   0.03028   0.20188   0.00000  Uiso   1.00
H166   H     0.89129   0.35281   0.36625   0.00000  Uiso   1.00
H167   H     0.50313   0.94972   0.36001   0.00000  Uiso   1.00
H168   H     0.87414   0.99127   0.10174   0.00000  Uiso   1.00
H169   H     0.59385   0.25752   0.19635   0.00000  Uiso   1.00
H170   H     0.65312   0.38310   0.23680   0.00000  Uiso   1.00
H171   H     0.46903   0.19194   0.23385   0.00000  Uiso   1.00
H172   H     0.64497   0.21165   0.11137   0.00000  Uiso   1.00
H173   H     0.74151   0.50001   0.29278   0.00000  Uiso   1.00
H174   H     0.35334   0.09692   0.28654   0.00000  Uiso   1.00
H175   H     0.72435   0.13848   0.02827   0.00000  Uiso   1.00
O176   O     0.85853   0.50592   0.35768   0.00000  Uiso   1.00
O177   O     0.34927   0.97707   0.34949   0.00000  Uiso   1.00
O178   O     0.83603   0.03159   0.01064   0.00000  Uiso   1.00
N179   N     0.84792   0.37022   0.34340   0.00000  Uiso   1.00
N180   N     0.48500   0.99336   0.33757   0.00000  Uiso   1.00
N181   N     0.83185   0.03220   0.09611   0.00000  Uiso   1.00
N182   N     0.76732   0.44943   0.30387   0.00000  Uiso   1.00
N183   N     0.40441   0.07257   0.29804   0.00000  Uiso   1.00
N184   N     0.75126   0.11141   0.05658   0.00000  Uiso   1.00
C185   C     0.12498   0.72872   0.48750   0.00000  Uiso   1.00
C186   C     0.21193   0.74188   0.47487   0.00000  Uiso   1.00
C187   C     0.24091   0.79784   0.44223   0.00000  Uiso   1.00
C188   C     0.32237   0.80050   0.43572   0.00000  Uiso   1.00
C189   C     0.44968   0.82874   0.41225   0.00000  Uiso   1.00
C190   C     0.10807   0.64186   0.47647   0.00000  Uiso   1.00
C191   C     0.04972   0.61372   0.44517   0.00000  Uiso   1.00
C192   C     0.04376   0.53217   0.44002   0.00000  Uiso   1.00
C193   C     0.00978   0.40512   0.41906   0.00000  Uiso   1.00
C194   C     0.11878   0.73746   0.54301   0.00000  Uiso   1.00
C195   C     0.06942   0.78969   0.56767   0.00000  Uiso   1.00
C196   C     0.07247   0.78862   0.61854   0.00000  Uiso   1.00
C197   C     0.05512   0.81000   0.70090   0.00000  Uiso   1.00
C198   C     0.21813   0.63394   0.53399   0.00000  Uiso   1.00
C199   C     0.26252   0.69040   0.50012   0.00000  Uiso   1.00
C200   C     0.34397   0.69297   0.49366   0.00000  Uiso   1.00
C201   C     0.37306   0.74892   0.46101   0.00000  Uiso   1.00
C202   C     0.15866   0.59038   0.50172   0.00000  Uiso   1.00
C203   C     0.15278   0.50885   0.49661   0.00000  Uiso   1.00
C204   C     0.09444   0.48059   0.46531   0.00000  Uiso   1.00
C205   C     0.16938   0.68598   0.56826   0.00000  Uiso   1.00
C206   C     0.17249   0.68482   0.61911   0.00000  Uiso   1.00
C207   C     0.12315   0.73704   0.64384   0.00000  Uiso   1.00
H208   H     0.08559   0.76880   0.46784   0.00000  Uiso   1.00
H209   H     0.20173   0.83767   0.42269   0.00000  Uiso   1.00
H210   H     0.01057   0.65357   0.42564   0.00000  Uiso   1.00
H211   H     0.03028   0.82952   0.54812   0.00000  Uiso   1.00
H212   H     0.35281   0.89129   0.38375   0.00000  Uiso   1.00
H213   H     0.94972   0.50313   0.38999   0.00000  Uiso   1.00
H214   H     0.99127   0.87414   0.64826   0.00000  Uiso   1.00
H215   H     0.25752   0.59385   0.55365   0.00000  Uiso   1.00
H216   H     0.38310   0.65312   0.51320   0.00000  Uiso   1.00
H217   H     0.19194   0.46903   0.51615   0.00000  Uiso   1.00
H218   H     0.21165   0.64497   0.63863   0.00000  Uiso   1.00
H219   H     0.50001   0.74151   0.45722   0.00000  Uiso   1.00
H220   H     0.09692   0.35334   0.46346   0.00000  Uiso   1.00
H221   H     0.13848   0.72435   0.72173   0.00000  Uiso   1.00
O222   O     0.50592   0.85853   0.39232   0.00000  Uiso   1.00
O223   O     0.97707   0.34927   0.40051   0.00000  Uiso   1.00
O224   O     0.03159   0.83603   0.73936   0.00000  Uiso   1.00
N225   N     0.37022   0.84792   0.40660   0.00000  Uiso   1.00
N226   N     0.99336   0.48500   0.41243   0.00000  Uiso   1.00
N227   N     0.03220   0.83185   0.65389   0.00000  Uiso   1.00
N228   N     0.44943   0.76732   0.44613   0.00000  Uiso   1.00
N229   N     0.07257   0.40441   0.45196   0.00000  Uiso   1.00
N230   N     0.11141   0.75126   0.69342   0.00000  Uiso   1.00
C231   C     0.87502   0.27128   0.98750   0.00000  Uiso   1.00
C232   C     0.78807   0.25812   0.97487   0.00000  Uiso   1.00
C233   C     0.75909   0.20216   0.94223   0.00000  Uiso   1.00
C234   C     0.67763   0.19950   0.93572   0.00000  Uiso   1.00
C235   C     0.55032   0.17126   0.91225   0.00000  Uiso   1.00
C236   C     0.89193   0.35814   0.97647   0.00000  Uiso   1.00
C237   C     0.95028   0.38628   0.94517   0.00000  Uiso   1.00
C238   C     0.95624   0.46783   0.94002   0.00000  Uiso   1.00
C239   C     0.99022   0.59488   0.91906   0.00000  Uiso   1.00
C240   C     0.88122   0.26254   0.04301   0.00000  Uiso   1.00
C241   C     0.93058   0.21031   0.06767   0.00000  Uiso   1.00
C242   C     0.92753   0.21138   0.11854   0.00000  Uiso   1.00
C243   C     0.94488   0.19000   0.20090   0.00000  Uiso   1.00
C244   C     0.78187   0.36606   0.03399   0.00000  Uiso   1.00
C245   C     0.73748   0.30960   0.00012   0.00000  Uiso   1.00
C246   C     0.65603   0.30703   0.99366   0.00000  Uiso   1.00
C247   C     0.62694   0.25108   0.96101   0.00000  Uiso   1.00
C248   C     0.84134   0.40962   0.00172   0.00000  Uiso   1.00
C249   C     0.84722   0.49115   0.99661   0.00000  Uiso   1.00
C250   C     0.90556   0.51941   0.96531   0.00000  Uiso   1.00
C251   C     0.83062   0.31402   0.06826   0.00000  Uiso   1.00
C252   C     0.82751   0.31518   0.11911   0.00000  Uiso   1.00
C253   C     0.87685   0.26296   0.14384   0.00000  Uiso   1.00
H254   H     0.91441   0.23120   0.96784   0.00000  Uiso   1.00
H255   H     0.79827   0.16233   0.92269   0.00000  Uiso   1.00
H256   H     0.98943   0.34643   0.92564   0.00000  Uiso   1.00
H257   H     0.96972   0.17048   0.04812   0.00000  Uiso   1.00
H258   H     0.64719   0.10871   0.88375   0.00000  Uiso   1.00
H259   H     0.05028   0.49687   0.88999   0.00000  Uiso   1.00
H260   H     0.00873   0.12586   0.14826   0.00000  Uiso   1.00
H261   H     0.74248   0.40615   0.05365   0.00000  Uiso   1.00
H262   H     0.61690   0.34688   0.01320   0.00000  Uiso   1.00
H263   H     0.80806   0.53097   0.01615   0.00000  Uiso   1.00
H264   H     0.78835   0.35503   0.13863   0.00000  Uiso   1.00
H265   H     0.49999   0.25849   0.95722   0.00000  Uiso   1.00
H266   H     0.90308   0.64666   0.96346   0.00000  Uiso   1.00
H267   H     0.86152   0.27565   0.22173   0.00000  Uiso   1.00
O268   O     0.49408   0.14147   0.89232   0.00000  Uiso   1.00
O269   O     0.02293   0.65073   0.90051   0.00000  Uiso   1.00
O270   O     0.96841   0.16397   0.23936   0.00000  Uiso   1.00
N271   N     0.62978   0.15208   0.90660   0.00000  Uiso   1.00
N272   N     0.00664   0.51500   0.91243   0.00000  Uiso   1.00
N273   N     0.96780   0.16815   0.15389   0.00000  Uiso   1.00
N274   N     0.55057   0.23268   0.94613   0.00000  Uiso   1.00
N275   N     0.92743   0.59559   0.95196   0.00000  Uiso   1.00
N276   N     0.88859   0.24874   0.19342   0.00000  Uiso   1.00
C277   C     0.72872   0.87502   0.23750   0.00000  Uiso   1.00
C278   C     0.74188   0.78807   0.22487   0.00000  Uiso   1.00
C279   C     0.79784   0.75909   0.19223   0.00000  Uiso   1.00
C280   C     0.80050   0.67763   0.18572   0.00000  Uiso   1.00
C281   C     0.82874   0.55032   0.16225   0.00000  Uiso   1.00
C282   C     0.64186   0.89193   0.22647   0.00000  Uiso   1.00
C283   C     0.61372   0.95028   0.19517   0.00000  Uiso   1.00
C284   C     0.53217   0.95624   0.19002   0.00000  Uiso   1.00
C285   C     0.40512   0.99022   0.16906   0.00000  Uiso   1.00
C286   C     0.73746   0.88122   0.29301   0.00000  Uiso   1.00
C287   C     0.78969   0.93058   0.31767   0.00000  Uiso   1.00
C288   C     0.78862   0.92753   0.36854   0.00000  Uiso   1.00
C289   C     0.81000   0.94488   0.45090   0.00000  Uiso   1.00
C290   C     0.63394   0.78187   0.28399   0.00000  Uiso   1.00
C291   C     0.69040   0.73748   0.25012   0.00000  Uiso   1.00
C292   C     0.69297   0.65603   0.24366   0.00000  Uiso   1.00
C293   C     0.74892   0.62694   0.21101   0.00000  Uiso   1.00
C294   C     0.59038   0.84134   0.25172   0.00000  Uiso   1.00
C295   C     0.50885   0.84722   0.24661   0.00000  Uiso   1.00
C296   C     0.48059   0.90556   0.21531   0.00000  Uiso   1.00
C297   C     0.68598   0.83062   0.31826   0.00000  Uiso   1.00
C298   C     0.68482   0.82751   0.36911   0.00000  Uiso   1.00
C299   C     0.73704   0.87685   0.39384   0.00000  Uiso   1.00
H300   H     0.76880   0.91441   0.21784   0.00000  Uiso   1.00
H301   H     0.83767   0.79827   0.17269   0.00000  Uiso   1.00
H302   H     0.65357   0.98943   0.17564   0.00000  Uiso   1.00
H303   H     0.82952   0.96972   0.29812   0.00000  Uiso   1.00
H304   H     0.89129   0.64719   0.13375   0.00000  Uiso   1.00
H305   H     0.50313   0.05028   0.13999   0.00000  Uiso   1.00
H306   H     0.87414   0.00873   0.39826   0.00000  Uiso   1.00
H307   H     0.59385   0.74248   0.30365   0.00000  Uiso   1.00
H308   H     0.65312   0.61690   0.26320   0.00000  Uiso   1.00
H309   H     0.46903   0.80806   0.26615   0.00000  Uiso   1.00
H310   H     0.64497   0.78835   0.38863   0.00000  Uiso   1.00
H311   H     0.74151   0.49999   0.20722   0.00000  Uiso   1.00
H312   H     0.35334   0.90308   0.21346   0.00000  Uiso   1.00
H313   H     0.72435   0.86152   0.47173   0.00000  Uiso   1.00
O314   O     0.85853   0.49408   0.14232   0.00000  Uiso   1.00
O315   O     0.34927   0.02293   0.15051   0.00000  Uiso   1.00
O316   O     0.83603   0.96841   0.48936   0.00000  Uiso   1.00
N317   N     0.84792   0.62978   0.15660   0.00000  Uiso   1.00
N318   N     0.48500   0.00664   0.16243   0.00000  Uiso   1.00
N319   N     0.83185   0.96780   0.40389   0.00000  Uiso   1.00
N320   N     0.76732   0.55057   0.19613   0.00000  Uiso   1.00
N321   N     0.40441   0.92743   0.20196   0.00000  Uiso   1.00
N322   N     0.75126   0.88859   0.44342   0.00000  Uiso   1.00
C323   C     0.27128   0.12498   0.73750   0.00000  Uiso   1.00
C324   C     0.25812   0.21193   0.72487   0.00000  Uiso   1.00
C325   C     0.20216   0.24091   0.69223   0.00000  Uiso   1.00
C326   C     0.19950   0.32237   0.68572   0.00000  Uiso   1.00
C327   C     0.17126   0.44968   0.66225   0.00000  Uiso   1.00
C328   C     0.35814   0.10807   0.72647   0.00000  Uiso   1.00
C329   C     0.38628   0.04972   0.69517   0.00000  Uiso   1.00
C330   C     0.46783   0.04376   0.69002   0.00000  Uiso   1.00
C331   C     0.59488   0.00978   0.66906   0.00000  Uiso   1.00
C332   C     0.26254   0.11878   0.79301   0.00000  Uiso   1.00
C333   C     0.21031   0.06942   0.81767   0.00000  Uiso   1.00
C334   C     0.21138   0.07247   0.86854   0.00000  Uiso   1.00
C335   C     0.19000   0.05512   0.95090   0.00000  Uiso   1.00
C336   C     0.36606   0.21813   0.78399   0.00000  Uiso   1.00
C337   C     0.30960   0.26252   0.75012   0.00000  Uiso   1.00
C338   C     0.30703   0.34397   0.74366   0.00000  Uiso   1.00
C339   C     0.25108   0.37306   0.71101   0.00000  Uiso   1.00
C340   C     0.40962   0.15866   0.75172   0.00000  Uiso   1.00
C341   C     0.49115   0.15278   0.74661   0.00000  Uiso   1.00
C342   C     0.51941   0.09444   0.71531   0.00000  Uiso   1.00
C343   C     0.31402   0.16938   0.81826   0.00000  Uiso   1.00
C344   C     0.31518   0.17249   0.86911   0.00000  Uiso   1.00
C345   C     0.26296   0.12315   0.89384   0.00000  Uiso   1.00
H346   H     0.23120   0.08559   0.71784   0.00000  Uiso   1.00
H347   H     0.16233   0.20173   0.67269   0.00000  Uiso   1.00
H348   H     0.34643   0.01057   0.67564   0.00000  Uiso   1.00
H349   H     0.17048   0.03028   0.79812   0.00000  Uiso   1.00
H350   H     0.10871   0.35281   0.63375   0.00000  Uiso   1.00
H351   H     0.49687   0.94972   0.63999   0.00000  Uiso   1.00
H352   H     0.12586   0.99127   0.89826   0.00000  Uiso   1.00
H353   H     0.40615   0.25752   0.80365   0.00000  Uiso   1.00
H354   H     0.34688   0.38310   0.76320   0.00000  Uiso   1.00
H355   H     0.53097   0.19194   0.76615   0.00000  Uiso   1.00
H356   H     0.35503   0.21165   0.88863   0.00000  Uiso   1.00
H357   H     0.25849   0.50001   0.70722   0.00000  Uiso   1.00
H358   H     0.64666   0.09692   0.71346   0.00000  Uiso   1.00
H359   H     0.27565   0.13848   0.97173   0.00000  Uiso   1.00
O360   O     0.14147   0.50592   0.64232   0.00000  Uiso   1.00
O361   O     0.65073   0.97707   0.65051   0.00000  Uiso   1.00
O362   O     0.16397   0.03159   0.98936   0.00000  Uiso   1.00
N363   N     0.15208   0.37022   0.65660   0.00000  Uiso   1.00
N364   N     0.51500   0.99336   0.66243   0.00000  Uiso   1.00
N365   N     0.16815   0.03220   0.90389   0.00000  Uiso   1.00
N366   N     0.23268   0.44943   0.69613   0.00000  Uiso   1.00
N367   N     0.59559   0.07257   0.70196   0.00000  Uiso   1.00
N368   N     0.24874   0.11141   0.94342   0.00000  Uiso   1.00
