data_job_02131
_audit_creation_date              2018-12-19
_audit_creation_method            'Materials Studio'
_symmetry_space_group_name_H-M    'P1'
_symmetry_Int_Tables_number       1
_symmetry_cell_setting            triclinic
loop_
_symmetry_equiv_pos_as_xyz
  x,y,z
_cell_length_a                    18.4070
_cell_length_b                    11.6742
_cell_length_c                    15.6402
_cell_angle_alpha                 90.0000
_cell_angle_beta                  49.1735
_cell_angle_gamma                 90.0000
loop_
_atom_site_label
_atom_site_type_symbol
_atom_site_fract_x
_atom_site_fract_y
_atom_site_fract_z
_atom_site_U_iso_or_equiv
_atom_site_adp_type
_atom_site_occupancy
C1     C     0.70466   0.71486   0.79017   0.00000  Uiso   1.00
C2     C     0.70140   0.58766   0.81466   0.00000  Uiso   1.00
C3     C     0.63396   0.50965   0.83694   0.00000  Uiso   1.00
C4     C     0.64333   0.39714   0.85726   0.00000  Uiso   1.00
C5     C     0.62696   0.20469   0.89564   0.00000  Uiso   1.00
C6     C     0.70213   0.77842   0.87727   0.00000  Uiso   1.00
C7     C     0.63531   0.86080   0.95218   0.00000  Uiso   1.00
C8     C     0.64531   0.90888   0.02520   0.00000  Uiso   1.00
C9     C     0.63011   0.01263   0.16072   0.00000  Uiso   1.00
C10    C     0.80402   0.73666   0.67616   0.00000  Uiso   1.00
C11    C     0.82289   0.78396   0.58199   0.00000  Uiso   1.00
C12    C     0.91868   0.79690   0.48569   0.00000  Uiso   1.00
C13    C     0.06169   0.83582   0.30896   0.00000  Uiso   1.00
C14    C     0.84122   0.65378   0.78662   0.00000  Uiso   1.00
C15    C     0.77557   0.55449   0.81273   0.00000  Uiso   1.00
C16    C     0.78505   0.44207   0.83302   0.00000  Uiso   1.00
C17    C     0.71764   0.36390   0.85533   0.00000  Uiso   1.00
C18    C     0.77630   0.74524   0.87534   0.00000  Uiso   1.00
C19    C     0.78640   0.79322   0.94826   0.00000  Uiso   1.00
C20    C     0.71962   0.87564   0.02327   0.00000  Uiso   1.00
C21    C     0.87820   0.70348   0.67423   0.00000  Uiso   1.00
C22    C     0.97398   0.71637   0.57806   0.00000  Uiso   1.00
C23    C     0.99299   0.76367   0.48376   0.00000  Uiso   1.00
H24    H     0.64691   0.74070   0.79167   0.00000  Uiso   1.00
H25    H     0.57656   0.53536   0.83844   0.00000  Uiso   1.00
H26    H     0.57793   0.88646   0.95365   0.00000  Uiso   1.00
H27    H     0.76547   0.80962   0.58351   0.00000  Uiso   1.00
H28    H     0.53127   0.29308   0.88948   0.00000  Uiso   1.00
H29    H     0.53415   0.03342   0.13238   0.00000  Uiso   1.00
H30    H     0.92964   0.87140   0.35187   0.00000  Uiso   1.00
H31    H     0.89897   0.62795   0.78512   0.00000  Uiso   1.00
H32    H     0.84246   0.41642   0.83152   0.00000  Uiso   1.00
H33    H     0.84381   0.76752   0.94674   0.00000  Uiso   1.00
H34    H     0.03136   0.69068   0.57660   0.00000  Uiso   1.00
H35    H     0.74707   0.19654   0.88387   0.00000  Uiso   1.00
H36    H     0.74996   0.93689   0.12677   0.00000  Uiso   1.00
H37    H     0.14544   0.77486   0.34626   0.00000  Uiso   1.00
O38    O     0.59743   0.10770   0.91735   0.00000  Uiso   1.00
O39    O     0.60123   0.07902   0.23602   0.00000  Uiso   1.00
O40    O     0.12009   0.86644   0.21201   0.00000  Uiso   1.00
N41    N     0.58983   0.29939   0.88176   0.00000  Uiso   1.00
N42    N     0.59251   0.99155   0.10888   0.00000  Uiso   1.00
N43    N     0.96225   0.84010   0.37918   0.00000  Uiso   1.00
N44    N     0.70595   0.24744   0.87874   0.00000  Uiso   1.00
N45    N     0.70864   0.93960   0.10586   0.00000  Uiso   1.00
N46    N     0.07838   0.78816   0.37616   0.00000  Uiso   1.00
C47    C     0.29534   0.71486   0.70983   0.00000  Uiso   1.00
C48    C     0.29860   0.58766   0.68534   0.00000  Uiso   1.00
C49    C     0.36604   0.50965   0.66306   0.00000  Uiso   1.00
C50    C     0.35667   0.39714   0.64274   0.00000  Uiso   1.00
C51    C     0.37304   0.20469   0.60436   0.00000  Uiso   1.00
C52    C     0.29787   0.77842   0.62273   0.00000  Uiso   1.00
C53    C     0.36469   0.86080   0.54782   0.00000  Uiso   1.00
C54    C     0.35469   0.90888   0.47480   0.00000  Uiso   1.00
C55    C     0.36989   0.01263   0.33928   0.00000  Uiso   1.00
C56    C     0.19598   0.73666   0.82384   0.00000  Uiso   1.00
C57    C     0.17711   0.78396   0.91801   0.00000  Uiso   1.00
C58    C     0.08132   0.79690   0.01431   0.00000  Uiso   1.00
C59    C     0.93831   0.83582   0.19104   0.00000  Uiso   1.00
C60    C     0.15878   0.65378   0.71338   0.00000  Uiso   1.00
C61    C     0.22443   0.55449   0.68727   0.00000  Uiso   1.00
C62    C     0.21495   0.44207   0.66698   0.00000  Uiso   1.00
C63    C     0.28236   0.36390   0.64467   0.00000  Uiso   1.00
C64    C     0.22370   0.74524   0.62466   0.00000  Uiso   1.00
C65    C     0.21360   0.79322   0.55174   0.00000  Uiso   1.00
C66    C     0.28038   0.87564   0.47673   0.00000  Uiso   1.00
C67    C     0.12180   0.70348   0.82577   0.00000  Uiso   1.00
C68    C     0.02602   0.71637   0.92194   0.00000  Uiso   1.00
C69    C     0.00701   0.76367   0.01624   0.00000  Uiso   1.00
H70    H     0.35309   0.74070   0.70833   0.00000  Uiso   1.00
H71    H     0.42344   0.53536   0.66156   0.00000  Uiso   1.00
H72    H     0.42207   0.88646   0.54635   0.00000  Uiso   1.00
H73    H     0.23453   0.80962   0.91649   0.00000  Uiso   1.00
H74    H     0.46873   0.29308   0.61052   0.00000  Uiso   1.00
H75    H     0.46585   0.03342   0.36762   0.00000  Uiso   1.00
H76    H     0.07036   0.87140   0.14813   0.00000  Uiso   1.00
H77    H     0.10103   0.62795   0.71488   0.00000  Uiso   1.00
H78    H     0.15754   0.41642   0.66848   0.00000  Uiso   1.00
H79    H     0.15619   0.76752   0.55326   0.00000  Uiso   1.00
H80    H     0.96864   0.69068   0.92340   0.00000  Uiso   1.00
H81    H     0.25293   0.19654   0.61613   0.00000  Uiso   1.00
H82    H     0.25004   0.93689   0.37323   0.00000  Uiso   1.00
H83    H     0.85456   0.77486   0.15374   0.00000  Uiso   1.00
O84    O     0.40257   0.10770   0.58265   0.00000  Uiso   1.00
O85    O     0.39877   0.07902   0.26398   0.00000  Uiso   1.00
O86    O     0.87991   0.86644   0.28799   0.00000  Uiso   1.00
N87    N     0.41017   0.29939   0.61824   0.00000  Uiso   1.00
N88    N     0.40749   0.99155   0.39112   0.00000  Uiso   1.00
N89    N     0.03775   0.84010   0.12082   0.00000  Uiso   1.00
N90    N     0.29405   0.24744   0.62126   0.00000  Uiso   1.00
N91    N     0.29136   0.93960   0.39414   0.00000  Uiso   1.00
N92    N     0.92162   0.78816   0.12384   0.00000  Uiso   1.00
C93    C     0.29534   0.28514   0.20983   0.00000  Uiso   1.00
C94    C     0.29860   0.41234   0.18534   0.00000  Uiso   1.00
C95    C     0.36604   0.49035   0.16306   0.00000  Uiso   1.00
C96    C     0.35667   0.60286   0.14274   0.00000  Uiso   1.00
C97    C     0.37304   0.79531   0.10436   0.00000  Uiso   1.00
C98    C     0.29787   0.22158   0.12273   0.00000  Uiso   1.00
C99    C     0.36469   0.13920   0.04782   0.00000  Uiso   1.00
C100   C     0.35469   0.09112   0.97480   0.00000  Uiso   1.00
C101   C     0.36989   0.98737   0.83928   0.00000  Uiso   1.00
C102   C     0.19598   0.26334   0.32384   0.00000  Uiso   1.00
C103   C     0.17711   0.21604   0.41801   0.00000  Uiso   1.00
C104   C     0.08132   0.20310   0.51431   0.00000  Uiso   1.00
C105   C     0.93831   0.16418   0.69104   0.00000  Uiso   1.00
C106   C     0.15878   0.34622   0.21338   0.00000  Uiso   1.00
C107   C     0.22443   0.44551   0.18727   0.00000  Uiso   1.00
C108   C     0.21495   0.55793   0.16698   0.00000  Uiso   1.00
C109   C     0.28236   0.63610   0.14467   0.00000  Uiso   1.00
C110   C     0.22370   0.25476   0.12466   0.00000  Uiso   1.00
C111   C     0.21360   0.20678   0.05174   0.00000  Uiso   1.00
C112   C     0.28038   0.12436   0.97673   0.00000  Uiso   1.00
C113   C     0.12180   0.29652   0.32577   0.00000  Uiso   1.00
C114   C     0.02602   0.28363   0.42194   0.00000  Uiso   1.00
C115   C     0.00701   0.23633   0.51624   0.00000  Uiso   1.00
H116   H     0.35309   0.25930   0.20833   0.00000  Uiso   1.00
H117   H     0.42344   0.46464   0.16156   0.00000  Uiso   1.00
H118   H     0.42207   0.11354   0.04635   0.00000  Uiso   1.00
H119   H     0.23453   0.19038   0.41649   0.00000  Uiso   1.00
H120   H     0.46873   0.70692   0.11052   0.00000  Uiso   1.00
H121   H     0.46585   0.96658   0.86762   0.00000  Uiso   1.00
H122   H     0.07036   0.12860   0.64813   0.00000  Uiso   1.00
H123   H     0.10103   0.37205   0.21488   0.00000  Uiso   1.00
H124   H     0.15754   0.58358   0.16848   0.00000  Uiso   1.00
H125   H     0.15619   0.23248   0.05326   0.00000  Uiso   1.00
H126   H     0.96864   0.30932   0.42340   0.00000  Uiso   1.00
H127   H     0.25293   0.80346   0.11613   0.00000  Uiso   1.00
H128   H     0.25004   0.06311   0.87323   0.00000  Uiso   1.00
H129   H     0.85456   0.22514   0.65374   0.00000  Uiso   1.00
O130   O     0.40257   0.89230   0.08265   0.00000  Uiso   1.00
O131   O     0.39877   0.92098   0.76398   0.00000  Uiso   1.00
O132   O     0.87991   0.13356   0.78799   0.00000  Uiso   1.00
N133   N     0.41017   0.70061   0.11824   0.00000  Uiso   1.00
N134   N     0.40749   0.00845   0.89112   0.00000  Uiso   1.00
N135   N     0.03775   0.15990   0.62082   0.00000  Uiso   1.00
N136   N     0.29405   0.75256   0.12126   0.00000  Uiso   1.00
N137   N     0.29136   0.06040   0.89414   0.00000  Uiso   1.00
N138   N     0.92162   0.21184   0.62384   0.00000  Uiso   1.00
C139   C     0.70466   0.28514   0.29017   0.00000  Uiso   1.00
C140   C     0.70140   0.41234   0.31466   0.00000  Uiso   1.00
C141   C     0.63396   0.49035   0.33694   0.00000  Uiso   1.00
C142   C     0.64333   0.60286   0.35726   0.00000  Uiso   1.00
C143   C     0.62696   0.79531   0.39564   0.00000  Uiso   1.00
C144   C     0.70213   0.22158   0.37727   0.00000  Uiso   1.00
C145   C     0.63531   0.13920   0.45218   0.00000  Uiso   1.00
C146   C     0.64531   0.09112   0.52520   0.00000  Uiso   1.00
C147   C     0.63011   0.98737   0.66072   0.00000  Uiso   1.00
C148   C     0.80402   0.26334   0.17616   0.00000  Uiso   1.00
C149   C     0.82289   0.21604   0.08199   0.00000  Uiso   1.00
C150   C     0.91868   0.20310   0.98569   0.00000  Uiso   1.00
C151   C     0.06169   0.16418   0.80896   0.00000  Uiso   1.00
C152   C     0.84122   0.34622   0.28662   0.00000  Uiso   1.00
C153   C     0.77557   0.44551   0.31273   0.00000  Uiso   1.00
C154   C     0.78505   0.55793   0.33302   0.00000  Uiso   1.00
C155   C     0.71764   0.63610   0.35533   0.00000  Uiso   1.00
C156   C     0.77630   0.25476   0.37534   0.00000  Uiso   1.00
C157   C     0.78640   0.20678   0.44826   0.00000  Uiso   1.00
C158   C     0.71962   0.12436   0.52327   0.00000  Uiso   1.00
C159   C     0.87820   0.29652   0.17423   0.00000  Uiso   1.00
C160   C     0.97398   0.28363   0.07806   0.00000  Uiso   1.00
C161   C     0.99299   0.23633   0.98376   0.00000  Uiso   1.00
H162   H     0.64691   0.25930   0.29167   0.00000  Uiso   1.00
H163   H     0.57656   0.46464   0.33844   0.00000  Uiso   1.00
H164   H     0.57793   0.11354   0.45365   0.00000  Uiso   1.00
H165   H     0.76547   0.19038   0.08351   0.00000  Uiso   1.00
H166   H     0.53127   0.70692   0.38948   0.00000  Uiso   1.00
H167   H     0.53415   0.96658   0.63238   0.00000  Uiso   1.00
H168   H     0.92964   0.12860   0.85187   0.00000  Uiso   1.00
H169   H     0.89897   0.37205   0.28512   0.00000  Uiso   1.00
H170   H     0.84246   0.58358   0.33152   0.00000  Uiso   1.00
H171   H     0.84381   0.23248   0.44674   0.00000  Uiso   1.00
H172   H     0.03136   0.30932   0.07660   0.00000  Uiso   1.00
H173   H     0.74707   0.80346   0.38387   0.00000  Uiso   1.00
H174   H     0.74996   0.06311   0.62677   0.00000  Uiso   1.00
H175   H     0.14544   0.22514   0.84626   0.00000  Uiso   1.00
O176   O     0.59743   0.89230   0.41735   0.00000  Uiso   1.00
O177   O     0.60123   0.92098   0.73602   0.00000  Uiso   1.00
O178   O     0.12009   0.13356   0.71201   0.00000  Uiso   1.00
N179   N     0.58983   0.70061   0.38176   0.00000  Uiso   1.00
N180   N     0.59251   0.00845   0.60888   0.00000  Uiso   1.00
N181   N     0.96225   0.15990   0.87918   0.00000  Uiso   1.00
N182   N     0.70595   0.75256   0.37874   0.00000  Uiso   1.00
N183   N     0.70864   0.06040   0.60586   0.00000  Uiso   1.00
N184   N     0.07838   0.21184   0.87616   0.00000  Uiso   1.00
