data_job_06851
_audit_creation_date              2018-12-19
_audit_creation_method            'Materials Studio'
_symmetry_space_group_name_H-M    'P1'
_symmetry_Int_Tables_number       1
_symmetry_cell_setting            triclinic
loop_
_symmetry_equiv_pos_as_xyz
  x,y,z
_cell_length_a                    19.3211
_cell_length_b                    22.6360
_cell_length_c                    23.5577
_cell_angle_alpha                 69.7482
_cell_angle_beta                  68.0407
_cell_angle_gamma                 67.2981
loop_
_atom_site_label
_atom_site_type_symbol
_atom_site_fract_x
_atom_site_fract_y
_atom_site_fract_z
_atom_site_U_iso_or_equiv
_atom_site_adp_type
_atom_site_occupancy
C1     C     0.69148   0.94699   0.36121   0.00000  Uiso   1.00
C2     C     0.67335   0.93951   0.43170   0.00000  Uiso   1.00
C3     C     0.61487   0.91501   0.47839   0.00000  Uiso   1.00
C4     C     0.60770   0.91215   0.54010   0.00000  Uiso   1.00
C5     C     0.57197   0.89740   0.64736   0.00000  Uiso   1.00
C6     C     0.68640   0.01936   0.33047   0.00000  Uiso   1.00
C7     C     0.63890   0.06198   0.29204   0.00000  Uiso   1.00
C8     C     0.64273   0.12633   0.26852   0.00000  Uiso   1.00
C9     C     0.62731   0.23552   0.21858   0.00000  Uiso   1.00
C10    C     0.77723   0.90847   0.33965   0.00000  Uiso   1.00
C11    C     0.80611   0.85787   0.30892   0.00000  Uiso   1.00
C12    C     0.88641   0.82886   0.29312   0.00000  Uiso   1.00
C13    C     0.01202   0.76588   0.25744   0.00000  Uiso   1.00
C14    C     0.78274   0.98547   0.38777   0.00000  Uiso   1.00
C15    C     0.72292   0.96042   0.44613   0.00000  Uiso   1.00
C16    C     0.71584   0.95759   0.50778   0.00000  Uiso   1.00
C17    C     0.65736   0.93308   0.55455   0.00000  Uiso   1.00
C18    C     0.73597   0.04026   0.34490   0.00000  Uiso   1.00
C19    C     0.73987   0.10456   0.32143   0.00000  Uiso   1.00
C20    C     0.69238   0.14727   0.28298   0.00000  Uiso   1.00
C21    C     0.82680   0.92937   0.35408   0.00000  Uiso   1.00
C22    C     0.90707   0.90044   0.33832   0.00000  Uiso   1.00
C23    C     0.93607   0.84980   0.30758   0.00000  Uiso   1.00
H24    H     0.65289   0.93072   0.34997   0.00000  Uiso   1.00
H25    H     0.57651   0.89885   0.46720   0.00000  Uiso   1.00
H26    H     0.60055   0.04579   0.28087   0.00000  Uiso   1.00
H27    H     0.76773   0.84170   0.29776   0.00000  Uiso   1.00
H28    H     0.51368   0.87275   0.60354   0.00000  Uiso   1.00
H29    H     0.56439   0.18259   0.21064   0.00000  Uiso   1.00
H30    H     0.91692   0.75223   0.24625   0.00000  Uiso   1.00
H31    H     0.82133   0.00174   0.39901   0.00000  Uiso   1.00
H32    H     0.75420   0.97377   0.51894   0.00000  Uiso   1.00
H33    H     0.77824   0.12071   0.33261   0.00000  Uiso   1.00
H34    H     0.94541   0.91663   0.34950   0.00000  Uiso   1.00
H35    H     0.65789   0.93356   0.64553   0.00000  Uiso   1.00
H36    H     0.70860   0.24340   0.25262   0.00000  Uiso   1.00
H37    H     0.06113   0.81304   0.28824   0.00000  Uiso   1.00
O38    O     0.53857   0.88349   0.70254   0.00000  Uiso   1.00
O39    O     0.60510   0.28998   0.18706   0.00000  Uiso   1.00
O40    O     0.06761   0.72536   0.23378   0.00000  Uiso   1.00
N41    N     0.55685   0.89089   0.59696   0.00000  Uiso   1.00
N42    N     0.60424   0.18057   0.22963   0.00000  Uiso   1.00
N43    N     0.93383   0.77823   0.26291   0.00000  Uiso   1.00
N44    N     0.63445   0.92361   0.61956   0.00000  Uiso   1.00
N45    N     0.68184   0.21329   0.25223   0.00000  Uiso   1.00
N46    N     0.01143   0.81095   0.28550   0.00000  Uiso   1.00
C47    C     0.73098   0.92036   0.95938   0.00000  Uiso   1.00
C48    C     0.66267   0.91134   0.94905   0.00000  Uiso   1.00
C49    C     0.59358   0.96013   0.94229   0.00000  Uiso   1.00
C50    C     0.53825   0.94196   0.93325   0.00000  Uiso   1.00
C51    C     0.43013   0.93778   0.91758   0.00000  Uiso   1.00
C52    C     0.74479   0.87014   0.01992   0.00000  Uiso   1.00
C53    C     0.74476   0.88429   0.07274   0.00000  Uiso   1.00
C54    C     0.75857   0.83144   0.12334   0.00000  Uiso   1.00
C55    C     0.77801   0.76330   0.21768   0.00000  Uiso   1.00
C56    C     0.80232   0.89804   0.90640   0.00000  Uiso   1.00
C57    C     0.85069   0.93564   0.86379   0.00000  Uiso   1.00
C58    C     0.91295   0.90628   0.81883   0.00000  Uiso   1.00
C59    C     0.02171   0.88145   0.73691   0.00000  Uiso   1.00
C60    C     0.75556   0.80136   0.95533   0.00000  Uiso   1.00
C61    C     0.67602   0.84670   0.94685   0.00000  Uiso   1.00
C62    C     0.62078   0.82846   0.93781   0.00000  Uiso   1.00
C63    C     0.55163   0.87721   0.93104   0.00000  Uiso   1.00
C64    C     0.75814   0.80551   0.01772   0.00000  Uiso   1.00
C65    C     0.77196   0.75262   0.06826   0.00000  Uiso   1.00
C66    C     0.77195   0.76669   0.12114   0.00000  Uiso   1.00
C67    C     0.81568   0.83340   0.90420   0.00000  Uiso   1.00
C68    C     0.87788   0.80397   0.85931   0.00000  Uiso   1.00
C69    C     0.92633   0.84152   0.81663   0.00000  Uiso   1.00
H70    H     0.72058   0.97068   0.96109   0.00000  Uiso   1.00
H71    H     0.58327   0.01014   0.94400   0.00000  Uiso   1.00
H72    H     0.73443   0.93431   0.07442   0.00000  Uiso   1.00
H73    H     0.84034   0.98566   0.86550   0.00000  Uiso   1.00
H74    H     0.43690   0.02538   0.92411   0.00000  Uiso   1.00
H75    H     0.75567   0.86549   0.19910   0.00000  Uiso   1.00
H76    H     0.97899   0.97376   0.75855   0.00000  Uiso   1.00
H77    H     0.76596   0.75103   0.95362   0.00000  Uiso   1.00
H78    H     0.63113   0.77844   0.93612   0.00000  Uiso   1.00
H79    H     0.78229   0.70261   0.06654   0.00000  Uiso   1.00
H80    H     0.88820   0.75395   0.85762   0.00000  Uiso   1.00
H81    H     0.47575   0.83732   0.91771   0.00000  Uiso   1.00
H82    H     0.79452   0.67743   0.19270   0.00000  Uiso   1.00
H83    H     0.01783   0.78569   0.75215   0.00000  Uiso   1.00
O84    O     0.36680   0.95333   0.90955   0.00000  Uiso   1.00
O85    O     0.78503   0.74357   0.27032   0.00000  Uiso   1.00
O86    O     0.07801   0.88561   0.69233   0.00000  Uiso   1.00
N87    N     0.46456   0.97736   0.92499   0.00000  Uiso   1.00
N88    N     0.76257   0.82788   0.18209   0.00000  Uiso   1.00
N89    N     0.97137   0.92909   0.77023   0.00000  Uiso   1.00
N90    N     0.48546   0.87617   0.92155   0.00000  Uiso   1.00
N91    N     0.78347   0.72668   0.17865   0.00000  Uiso   1.00
N92    N     0.99227   0.82790   0.76678   0.00000  Uiso   1.00
C93    C     0.67830   0.39491   0.04958   0.00000  Uiso   1.00
C94    C     0.65958   0.46671   0.01297   0.00000  Uiso   1.00
C95    C     0.58762   0.51412   0.02440   0.00000  Uiso   1.00
C96    C     0.58239   0.57700   0.98566   0.00000  Uiso   1.00
C97    C     0.54351   0.68622   0.93615   0.00000  Uiso   1.00
C98    C     0.70990   0.35378   0.00100   0.00000  Uiso   1.00
C99    C     0.68024   0.30622   0.00239   0.00000  Uiso   1.00
C100   C     0.71738   0.27402   0.95358   0.00000  Uiso   1.00
C101   C     0.75664   0.20787   0.88553   0.00000  Uiso   1.00
C102   C     0.74678   0.38299   0.07367   0.00000  Uiso   1.00
C103   C     0.74813   0.35999   0.13615   0.00000  Uiso   1.00
C104   C     0.81633   0.35237   0.14852   0.00000  Uiso   1.00
C105   C     0.91285   0.33158   0.19330   0.00000  Uiso   1.00
C106   C     0.79701   0.42227   0.96044   0.00000  Uiso   1.00
C107   C     0.72406   0.48157   0.96455   0.00000  Uiso   1.00
C108   C     0.71895   0.54440   0.92578   0.00000  Uiso   1.00
C109   C     0.64698   0.59189   0.93715   0.00000  Uiso   1.00
C110   C     0.77437   0.36864   0.95259   0.00000  Uiso   1.00
C111   C     0.81157   0.33650   0.90377   0.00000  Uiso   1.00
C112   C     0.78197   0.28891   0.90507   0.00000  Uiso   1.00
C113   C     0.81125   0.39786   0.02525   0.00000  Uiso   1.00
C114   C     0.87947   0.39027   0.03753   0.00000  Uiso   1.00
C115   C     0.88092   0.36726   0.10002   0.00000  Uiso   1.00
H116   H     0.62811   0.38334   0.08727   0.00000  Uiso   1.00
H117   H     0.53773   0.50260   0.06187   0.00000  Uiso   1.00
H118   H     0.63035   0.29473   0.03987   0.00000  Uiso   1.00
H119   H     0.69823   0.34849   0.17360   0.00000  Uiso   1.00
H120   H     0.46595   0.64137   0.01234   0.00000  Uiso   1.00
H121   H     0.66126   0.20305   0.96596   0.00000  Uiso   1.00
H122   H     0.80440   0.31641   0.24798   0.00000  Uiso   1.00
H123   H     0.84721   0.43384   0.92274   0.00000  Uiso   1.00
H124   H     0.76886   0.55588   0.88832   0.00000  Uiso   1.00
H125   H     0.86147   0.34801   0.86631   0.00000  Uiso   1.00
H126   H     0.92935   0.40177   0.00005   0.00000  Uiso   1.00
H127   H     0.65354   0.68462   0.87148   0.00000  Uiso   1.00
H128   H     0.84885   0.24629   0.82509   0.00000  Uiso   1.00
H129   H     0.99199   0.35966   0.10711   0.00000  Uiso   1.00
O130   O     0.50424   0.74235   0.92222   0.00000  Uiso   1.00
O131   O     0.76048   0.16728   0.86137   0.00000  Uiso   1.00
O132   O     0.94828   0.31602   0.23137   0.00000  Uiso   1.00
N133   N     0.52086   0.63480   0.98392   0.00000  Uiso   1.00
N134   N     0.70345   0.22500   0.94055   0.00000  Uiso   1.00
N135   N     0.83728   0.33098   0.20421   0.00000  Uiso   1.00
N136   N     0.62180   0.65807   0.90813   0.00000  Uiso   1.00
N137   N     0.80439   0.24827   0.86475   0.00000  Uiso   1.00
N138   N     0.93822   0.35425   0.12841   0.00000  Uiso   1.00
C139   C     0.16282   0.92024   0.38196   0.00000  Uiso   1.00
C140   C     0.13519   0.99318   0.38166   0.00000  Uiso   1.00
C141   C     0.06067   0.03548   0.38165   0.00000  Uiso   1.00
C142   C     0.04703   0.10045   0.38137   0.00000  Uiso   1.00
C143   C     0.99519   0.21037   0.38098   0.00000  Uiso   1.00
C144   C     0.19405   0.88361   0.43932   0.00000  Uiso   1.00
C145   C     0.16902   0.83377   0.48778   0.00000  Uiso   1.00
C146   C     0.20493   0.80650   0.53602   0.00000  Uiso   1.00
C147   C     0.24450   0.74628   0.62512   0.00000  Uiso   1.00
C148   C     0.23341   0.91145   0.32458   0.00000  Uiso   1.00
C149   C     0.24149   0.88502   0.27657   0.00000  Uiso   1.00
C150   C     0.31056   0.88118   0.22821   0.00000  Uiso   1.00
C151   C     0.41124   0.86420   0.13916   0.00000  Uiso   1.00
C152   C     0.27111   0.96040   0.38148   0.00000  Uiso   1.00
C153   C     0.19402   0.01499   0.38140   0.00000  Uiso   1.00
C154   C     0.18049   0.07991   0.38112   0.00000  Uiso   1.00
C155   C     0.10596   0.12230   0.38110   0.00000  Uiso   1.00
C156   C     0.25287   0.90542   0.43906   0.00000  Uiso   1.00
C157   C     0.28883   0.87821   0.48724   0.00000  Uiso   1.00
C158   C     0.26386   0.82835   0.53576   0.00000  Uiso   1.00
C159   C     0.29223   0.93327   0.32431   0.00000  Uiso   1.00
C160   C     0.36130   0.92946   0.27603   0.00000  Uiso   1.00
C161   C     0.36948   0.90303   0.22795   0.00000  Uiso   1.00
H162   H     0.11702   0.90325   0.38217   0.00000  Uiso   1.00
H163   H     0.01517   0.01857   0.38186   0.00000  Uiso   1.00
H164   H     0.12350   0.81690   0.48796   0.00000  Uiso   1.00
H165   H     0.19596   0.86814   0.27679   0.00000  Uiso   1.00
H166   H     0.92817   0.15605   0.38143   0.00000  Uiso   1.00
H167   H     0.15662   0.73079   0.60514   0.00000  Uiso   1.00
H168   H     0.30942   0.83884   0.15983   0.00000  Uiso   1.00
H169   H     0.31691   0.97738   0.38127   0.00000  Uiso   1.00
H170   H     0.22602   0.09678   0.38091   0.00000  Uiso   1.00
H171   H     0.33435   0.89510   0.48702   0.00000  Uiso   1.00
H172   H     0.40681   0.94634   0.27584   0.00000  Uiso   1.00
H173   H     0.09930   0.21952   0.38066   0.00000  Uiso   1.00
H174   H     0.32775   0.79425   0.60437   0.00000  Uiso   1.00
H175   H     0.48055   0.90231   0.15906   0.00000  Uiso   1.00
O176   O     0.95034   0.26498   0.38085   0.00000  Uiso   1.00
O177   O     0.25006   0.70705   0.67434   0.00000  Uiso   1.00
O178   O     0.45052   0.84882   0.09010   0.00000  Uiso   1.00
N179   N     0.98093   0.15460   0.38128   0.00000  Uiso   1.00
N180   N     0.19450   0.75702   0.59045   0.00000  Uiso   1.00
N181   N     0.33736   0.85802   0.17413   0.00000  Uiso   1.00
N182   N     0.07301   0.18876   0.38087   0.00000  Uiso   1.00
N183   N     0.28659   0.79117   0.59003   0.00000  Uiso   1.00
N184   N     0.42945   0.89218   0.17371   0.00000  Uiso   1.00
C185   C     0.21079   0.41181   0.46458   0.00000  Uiso   1.00
C186   C     0.14797   0.38796   0.46282   0.00000  Uiso   1.00
C187   C     0.08559   0.37430   0.51338   0.00000  Uiso   1.00
C188   C     0.03450   0.35303   0.50213   0.00000  Uiso   1.00
C189   C     0.93527   0.31714   0.50846   0.00000  Uiso   1.00
C190   C     0.20959   0.47603   0.41411   0.00000  Uiso   1.00
C191   C     0.19904   0.53642   0.42372   0.00000  Uiso   1.00
C192   C     0.19983   0.58928   0.37147   0.00000  Uiso   1.00
C193   C     0.19634   0.69011   0.30217   0.00000  Uiso   1.00
C194   C     0.28861   0.36221   0.44152   0.00000  Uiso   1.00
C195   C     0.34451   0.32691   0.47416   0.00000  Uiso   1.00
C196   C     0.41184   0.28396   0.44497   0.00000  Uiso   1.00
C197   C     0.53103   0.20806   0.41823   0.00000  Uiso   1.00
C198   C     0.23096   0.39832   0.35469   0.00000  Uiso   1.00
C199   C     0.15893   0.38063   0.40313   0.00000  Uiso   1.00
C200   C     0.10792   0.35937   0.39180   0.00000  Uiso   1.00
C201   C     0.04547   0.34568   0.44234   0.00000  Uiso   1.00
C202   C     0.22055   0.46870   0.35442   0.00000  Uiso   1.00
C203   C     0.22136   0.52149   0.30214   0.00000  Uiso   1.00
C204   C     0.21081   0.58194   0.31167   0.00000  Uiso   1.00
C205   C     0.29957   0.35488   0.38183   0.00000  Uiso   1.00
C206   C     0.36683   0.31198   0.35258   0.00000  Uiso   1.00
C207   C     0.42282   0.27662   0.38518   0.00000  Uiso   1.00
H208   H     0.20225   0.41752   0.51105   0.00000  Uiso   1.00
H209   H     0.07713   0.37999   0.55956   0.00000  Uiso   1.00
H210   H     0.19057   0.54207   0.46992   0.00000  Uiso   1.00
H211   H     0.33601   0.33259   0.52035   0.00000  Uiso   1.00
H212   H     0.94322   0.33516   0.58702   0.00000  Uiso   1.00
H213   H     0.18244   0.67693   0.39799   0.00000  Uiso   1.00
H214   H     0.48914   0.23520   0.50434   0.00000  Uiso   1.00
H215   H     0.23950   0.39261   0.30822   0.00000  Uiso   1.00
H216   H     0.11641   0.35370   0.34561   0.00000  Uiso   1.00
H217   H     0.22985   0.51580   0.25596   0.00000  Uiso   1.00
H218   H     0.37529   0.30632   0.30639   0.00000  Uiso   1.00
H219   H     0.97510   0.31383   0.41337   0.00000  Uiso   1.00
H220   H     0.21433   0.65560   0.22434   0.00000  Uiso   1.00
H221   H     0.52102   0.21387   0.33068   0.00000  Uiso   1.00
O222   O     0.87751   0.29937   0.52844   0.00000  Uiso   1.00
O223   O     0.19137   0.74776   0.28044   0.00000  Uiso   1.00
O224   O     0.59375   0.16822   0.41996   0.00000  Uiso   1.00
N225   N     0.96762   0.33547   0.54102   0.00000  Uiso   1.00
N226   N     0.19127   0.65500   0.36430   0.00000  Uiso   1.00
N227   N     0.47802   0.24204   0.46371   0.00000  Uiso   1.00
N228   N     0.98478   0.32399   0.44758   0.00000  Uiso   1.00
N229   N     0.20842   0.64353   0.27085   0.00000  Uiso   1.00
N230   N     0.49517   0.23056   0.37027   0.00000  Uiso   1.00
C231   C     0.35940   0.47162   0.77535   0.00000  Uiso   1.00
C232   C     0.30507   0.45000   0.83955   0.00000  Uiso   1.00
C233   C     0.22587   0.48120   0.86045   0.00000  Uiso   1.00
C234   C     0.18641   0.45374   0.92070   0.00000  Uiso   1.00
C235   C     0.09619   0.42877   0.01460   0.00000  Uiso   1.00
C236   C     0.39609   0.41245   0.74578   0.00000  Uiso   1.00
C237   C     0.39343   0.41208   0.68785   0.00000  Uiso   1.00
C238   C     0.43061   0.35300   0.66916   0.00000  Uiso   1.00
C239   C     0.48176   0.26974   0.61747   0.00000  Uiso   1.00
C240   C     0.42552   0.48096   0.78856   0.00000  Uiso   1.00
C241   C     0.44763   0.53819   0.76658   0.00000  Uiso   1.00
C242   C     0.50960   0.53679   0.78389   0.00000  Uiso   1.00
C243   C     0.60645   0.55990   0.79861   0.00000  Uiso   1.00
C244   C     0.43016   0.36736   0.84516   0.00000  Uiso   1.00
C245   C     0.34350   0.39337   0.87747   0.00000  Uiso   1.00
C246   C     0.30416   0.36585   0.93770   0.00000  Uiso   1.00
C247   C     0.22491   0.39701   0.95869   0.00000  Uiso   1.00
C248   C     0.43453   0.35582   0.78370   0.00000  Uiso   1.00
C249   C     0.47172   0.29673   0.76509   0.00000  Uiso   1.00
C250   C     0.46911   0.29627   0.70714   0.00000  Uiso   1.00
C251   C     0.46396   0.42433   0.82648   0.00000  Uiso   1.00
C252   C     0.52591   0.42284   0.84382   0.00000  Uiso   1.00
C253   C     0.54810   0.48006   0.82188   0.00000  Uiso   1.00
H254   H     0.32948   0.51570   0.74583   0.00000  Uiso   1.00
H255   H     0.19614   0.52502   0.83109   0.00000  Uiso   1.00
H256   H     0.36369   0.45591   0.65851   0.00000  Uiso   1.00
H257   H     0.41787   0.58200   0.73723   0.00000  Uiso   1.00
H258   H     0.06526   0.51037   0.94234   0.00000  Uiso   1.00
H259   H     0.41857   0.36464   0.57843   0.00000  Uiso   1.00
H260   H     0.53283   0.63053   0.74443   0.00000  Uiso   1.00
H261   H     0.46008   0.32327   0.87469   0.00000  Uiso   1.00
H262   H     0.33391   0.32203   0.96703   0.00000  Uiso   1.00
H263   H     0.50146   0.25292   0.79445   0.00000  Uiso   1.00
H264   H     0.55564   0.37901   0.87317   0.00000  Uiso   1.00
H265   H     0.17708   0.34561   0.05267   0.00000  Uiso   1.00
H266   H     0.53039   0.19989   0.68876   0.00000  Uiso   1.00
H267   H     0.64464   0.46578   0.85476   0.00000  Uiso   1.00
O268   O     0.03581   0.43063   0.05591   0.00000  Uiso   1.00
O269   O     0.49934   0.23946   0.57848   0.00000  Uiso   1.00
O270   O     0.64924   0.58829   0.79627   0.00000  Uiso   1.00
N271   N     0.10890   0.47177   0.95564   0.00000  Uiso   1.00
N272   N     0.43920   0.33552   0.61541   0.00000  Uiso   1.00
N273   N     0.54604   0.58410   0.77059   0.00000  Uiso   1.00
N274   N     0.16907   0.38312   0.01501   0.00000  Uiso   1.00
N275   N     0.49937   0.24687   0.67478   0.00000  Uiso   1.00
N276   N     0.60621   0.49545   0.82996   0.00000  Uiso   1.00
C277   C     0.30852   0.05301   0.63879   0.00000  Uiso   1.00
C278   C     0.32665   0.06049   0.56830   0.00000  Uiso   1.00
C279   C     0.38513   0.08499   0.52161   0.00000  Uiso   1.00
C280   C     0.39230   0.08785   0.45990   0.00000  Uiso   1.00
C281   C     0.42803   0.10260   0.35264   0.00000  Uiso   1.00
C282   C     0.31360   0.98064   0.66953   0.00000  Uiso   1.00
C283   C     0.36110   0.93802   0.70796   0.00000  Uiso   1.00
C284   C     0.35727   0.87367   0.73148   0.00000  Uiso   1.00
C285   C     0.37269   0.76448   0.78142   0.00000  Uiso   1.00
C286   C     0.22277   0.09153   0.66035   0.00000  Uiso   1.00
C287   C     0.19389   0.14213   0.69108   0.00000  Uiso   1.00
C288   C     0.11359   0.17114   0.70688   0.00000  Uiso   1.00
C289   C     0.98798   0.23412   0.74256   0.00000  Uiso   1.00
C290   C     0.21726   0.01453   0.61223   0.00000  Uiso   1.00
C291   C     0.27708   0.03958   0.55387   0.00000  Uiso   1.00
C292   C     0.28416   0.04241   0.49222   0.00000  Uiso   1.00
C293   C     0.34264   0.06692   0.44545   0.00000  Uiso   1.00
C294   C     0.26403   0.95974   0.65510   0.00000  Uiso   1.00
C295   C     0.26013   0.89544   0.67857   0.00000  Uiso   1.00
C296   C     0.30762   0.85273   0.71702   0.00000  Uiso   1.00
C297   C     0.17320   0.07063   0.64592   0.00000  Uiso   1.00
C298   C     0.09293   0.09956   0.66168   0.00000  Uiso   1.00
C299   C     0.06393   0.15020   0.69242   0.00000  Uiso   1.00
H300   H     0.34711   0.06928   0.65003   0.00000  Uiso   1.00
H301   H     0.42349   0.10115   0.53280   0.00000  Uiso   1.00
H302   H     0.39945   0.95421   0.71913   0.00000  Uiso   1.00
H303   H     0.23227   0.15830   0.70224   0.00000  Uiso   1.00
H304   H     0.48632   0.12725   0.39646   0.00000  Uiso   1.00
H305   H     0.43561   0.81741   0.78936   0.00000  Uiso   1.00
H306   H     0.08308   0.24777   0.75375   0.00000  Uiso   1.00
H307   H     0.17867   0.99826   0.60099   0.00000  Uiso   1.00
H308   H     0.24580   0.02623   0.48106   0.00000  Uiso   1.00
H309   H     0.22176   0.87929   0.66739   0.00000  Uiso   1.00
H310   H     0.05459   0.08337   0.65050   0.00000  Uiso   1.00
H311   H     0.34211   0.06644   0.35447   0.00000  Uiso   1.00
H312   H     0.29140   0.75660   0.74738   0.00000  Uiso   1.00
H313   H     0.93887   0.18696   0.71176   0.00000  Uiso   1.00
O314   O     0.46143   0.11651   0.29746   0.00000  Uiso   1.00
O315   O     0.39490   0.71002   0.81294   0.00000  Uiso   1.00
O316   O     0.93239   0.27464   0.76622   0.00000  Uiso   1.00
N317   N     0.44315   0.10911   0.40304   0.00000  Uiso   1.00
N318   N     0.39576   0.81943   0.77037   0.00000  Uiso   1.00
N319   N     0.06617   0.22177   0.73709   0.00000  Uiso   1.00
N320   N     0.36555   0.07639   0.38044   0.00000  Uiso   1.00
N321   N     0.31816   0.78671   0.74777   0.00000  Uiso   1.00
N322   N     0.98857   0.18905   0.71450   0.00000  Uiso   1.00
C323   C     0.26902   0.07964   0.04062   0.00000  Uiso   1.00
C324   C     0.33733   0.08866   0.05095   0.00000  Uiso   1.00
C325   C     0.40642   0.03987   0.05771   0.00000  Uiso   1.00
C326   C     0.46175   0.05804   0.06675   0.00000  Uiso   1.00
C327   C     0.56987   0.06222   0.08242   0.00000  Uiso   1.00
C328   C     0.25521   0.12986   0.98008   0.00000  Uiso   1.00
C329   C     0.25524   0.11571   0.92726   0.00000  Uiso   1.00
C330   C     0.24143   0.16856   0.87666   0.00000  Uiso   1.00
C331   C     0.22199   0.23670   0.78232   0.00000  Uiso   1.00
C332   C     0.19768   0.10196   0.09360   0.00000  Uiso   1.00
C333   C     0.14931   0.06436   0.13621   0.00000  Uiso   1.00
C334   C     0.08705   0.09372   0.18117   0.00000  Uiso   1.00
C335   C     0.97829   0.11855   0.26309   0.00000  Uiso   1.00
C336   C     0.24444   0.19864   0.04467   0.00000  Uiso   1.00
C337   C     0.32398   0.15330   0.05315   0.00000  Uiso   1.00
C338   C     0.37922   0.17154   0.06219   0.00000  Uiso   1.00
C339   C     0.44837   0.12279   0.06896   0.00000  Uiso   1.00
C340   C     0.24186   0.19449   0.98228   0.00000  Uiso   1.00
C341   C     0.22804   0.24738   0.93174   0.00000  Uiso   1.00
C342   C     0.22805   0.23331   0.87886   0.00000  Uiso   1.00
C343   C     0.18432   0.16660   0.09580   0.00000  Uiso   1.00
C344   C     0.12212   0.19603   0.14069   0.00000  Uiso   1.00
C345   C     0.07367   0.15848   0.18337   0.00000  Uiso   1.00
H346   H     0.27942   0.02932   0.03891   0.00000  Uiso   1.00
H347   H     0.41673   0.98986   0.05600   0.00000  Uiso   1.00
H348   H     0.26557   0.06569   0.92558   0.00000  Uiso   1.00
H349   H     0.15966   0.01434   0.13450   0.00000  Uiso   1.00
H350   H     0.56310   0.97462   0.07589   0.00000  Uiso   1.00
H351   H     0.24433   0.13451   0.80090   0.00000  Uiso   1.00
H352   H     0.02101   0.02624   0.24145   0.00000  Uiso   1.00
H353   H     0.23404   0.24897   0.04638   0.00000  Uiso   1.00
H354   H     0.36887   0.22156   0.06388   0.00000  Uiso   1.00
H355   H     0.21771   0.29739   0.93346   0.00000  Uiso   1.00
H356   H     0.11180   0.24605   0.14238   0.00000  Uiso   1.00
H357   H     0.52425   0.16268   0.08229   0.00000  Uiso   1.00
H358   H     0.20548   0.32257   0.80730   0.00000  Uiso   1.00
H359   H     0.98217   0.21431   0.24785   0.00000  Uiso   1.00
O360   O     0.63320   0.04667   0.09045   0.00000  Uiso   1.00
O361   O     0.21497   0.25643   0.72968   0.00000  Uiso   1.00
O362   O     0.92199   0.11439   0.30767   0.00000  Uiso   1.00
N363   N     0.53544   0.02264   0.07501   0.00000  Uiso   1.00
N364   N     0.23743   0.17212   0.81791   0.00000  Uiso   1.00
N365   N     0.02863   0.07091   0.22977   0.00000  Uiso   1.00
N366   N     0.51454   0.12383   0.07845   0.00000  Uiso   1.00
N367   N     0.21653   0.27332   0.82135   0.00000  Uiso   1.00
N368   N     0.00773   0.17210   0.23322   0.00000  Uiso   1.00
C369   C     0.32170   0.60509   0.95042   0.00000  Uiso   1.00
C370   C     0.34042   0.53329   0.98703   0.00000  Uiso   1.00
C371   C     0.41238   0.48588   0.97560   0.00000  Uiso   1.00
C372   C     0.41761   0.42300   0.01434   0.00000  Uiso   1.00
C373   C     0.45649   0.31378   0.06385   0.00000  Uiso   1.00
C374   C     0.29010   0.64622   0.99900   0.00000  Uiso   1.00
C375   C     0.31976   0.69378   0.99761   0.00000  Uiso   1.00
C376   C     0.28262   0.72598   0.04642   0.00000  Uiso   1.00
C377   C     0.24336   0.79213   0.11447   0.00000  Uiso   1.00
C378   C     0.25322   0.61701   0.92633   0.00000  Uiso   1.00
C379   C     0.25187   0.64001   0.86385   0.00000  Uiso   1.00
C380   C     0.18367   0.64763   0.85148   0.00000  Uiso   1.00
C381   C     0.08715   0.66842   0.80670   0.00000  Uiso   1.00
C382   C     0.20299   0.57773   0.03956   0.00000  Uiso   1.00
C383   C     0.27594   0.51843   0.03545   0.00000  Uiso   1.00
C384   C     0.28105   0.45560   0.07422   0.00000  Uiso   1.00
C385   C     0.35302   0.40811   0.06285   0.00000  Uiso   1.00
C386   C     0.22563   0.63136   0.04741   0.00000  Uiso   1.00
C387   C     0.18843   0.66350   0.09623   0.00000  Uiso   1.00
C388   C     0.21803   0.71109   0.09493   0.00000  Uiso   1.00
C389   C     0.18875   0.60214   0.97475   0.00000  Uiso   1.00
C390   C     0.12053   0.60973   0.96247   0.00000  Uiso   1.00
C391   C     0.11908   0.63274   0.89998   0.00000  Uiso   1.00
H392   H     0.37189   0.61666   0.91273   0.00000  Uiso   1.00
H393   H     0.46227   0.49740   0.93813   0.00000  Uiso   1.00
H394   H     0.36965   0.70527   0.96013   0.00000  Uiso   1.00
H395   H     0.30177   0.65151   0.82640   0.00000  Uiso   1.00
H396   H     0.53405   0.35863   0.98766   0.00000  Uiso   1.00
H397   H     0.33874   0.79695   0.03404   0.00000  Uiso   1.00
H398   H     0.19560   0.68359   0.75202   0.00000  Uiso   1.00
H399   H     0.15279   0.56616   0.07726   0.00000  Uiso   1.00
H400   H     0.23114   0.44412   0.11168   0.00000  Uiso   1.00
H401   H     0.13853   0.65199   0.13369   0.00000  Uiso   1.00
H402   H     0.07065   0.59823   0.99995   0.00000  Uiso   1.00
H403   H     0.34646   0.31538   0.12852   0.00000  Uiso   1.00
H404   H     0.15115   0.75371   0.17491   0.00000  Uiso   1.00
H405   H     0.00801   0.64034   0.89289   0.00000  Uiso   1.00
O406   O     0.49576   0.25765   0.07778   0.00000  Uiso   1.00
O407   O     0.23952   0.83272   0.13863   0.00000  Uiso   1.00
O408   O     0.05172   0.68398   0.76863   0.00000  Uiso   1.00
N409   N     0.47914   0.36520   0.01608   0.00000  Uiso   1.00
N410   N     0.29655   0.77500   0.05945   0.00000  Uiso   1.00
N411   N     0.16272   0.66902   0.79579   0.00000  Uiso   1.00
N412   N     0.37820   0.34193   0.09187   0.00000  Uiso   1.00
N413   N     0.19561   0.75173   0.13525   0.00000  Uiso   1.00
N414   N     0.06178   0.64575   0.87159   0.00000  Uiso   1.00
C415   C     0.83718   0.07976   0.61804   0.00000  Uiso   1.00
C416   C     0.86481   0.00682   0.61834   0.00000  Uiso   1.00
C417   C     0.93933   0.96452   0.61835   0.00000  Uiso   1.00
C418   C     0.95297   0.89955   0.61863   0.00000  Uiso   1.00
C419   C     0.00481   0.78963   0.61902   0.00000  Uiso   1.00
C420   C     0.80595   0.11639   0.56068   0.00000  Uiso   1.00
C421   C     0.83098   0.16623   0.51222   0.00000  Uiso   1.00
C422   C     0.79507   0.19350   0.46398   0.00000  Uiso   1.00
C423   C     0.75550   0.25372   0.37488   0.00000  Uiso   1.00
C424   C     0.76659   0.08855   0.67542   0.00000  Uiso   1.00
C425   C     0.75851   0.11498   0.72343   0.00000  Uiso   1.00
C426   C     0.68944   0.11882   0.77179   0.00000  Uiso   1.00
C427   C     0.58876   0.13580   0.86084   0.00000  Uiso   1.00
C428   C     0.72889   0.03960   0.61852   0.00000  Uiso   1.00
C429   C     0.80598   0.98501   0.61860   0.00000  Uiso   1.00
C430   C     0.81951   0.92009   0.61888   0.00000  Uiso   1.00
C431   C     0.89404   0.87770   0.61890   0.00000  Uiso   1.00
C432   C     0.74713   0.09458   0.56094   0.00000  Uiso   1.00
C433   C     0.71117   0.12179   0.51276   0.00000  Uiso   1.00
C434   C     0.73614   0.17165   0.46424   0.00000  Uiso   1.00
C435   C     0.70777   0.06673   0.67569   0.00000  Uiso   1.00
C436   C     0.63870   0.07054   0.72397   0.00000  Uiso   1.00
C437   C     0.63052   0.09697   0.77205   0.00000  Uiso   1.00
H438   H     0.88298   0.09675   0.61783   0.00000  Uiso   1.00
H439   H     0.98483   0.98143   0.61814   0.00000  Uiso   1.00
H440   H     0.87650   0.18310   0.51204   0.00000  Uiso   1.00
H441   H     0.80404   0.13186   0.72321   0.00000  Uiso   1.00
H442   H     0.07183   0.84395   0.61857   0.00000  Uiso   1.00
H443   H     0.84338   0.26921   0.39486   0.00000  Uiso   1.00
H444   H     0.69058   0.16116   0.84017   0.00000  Uiso   1.00
H445   H     0.68309   0.02262   0.61873   0.00000  Uiso   1.00
H446   H     0.77398   0.90322   0.61909   0.00000  Uiso   1.00
H447   H     0.66565   0.10490   0.51298   0.00000  Uiso   1.00
H448   H     0.59319   0.05366   0.72416   0.00000  Uiso   1.00
H449   H     0.90070   0.78048   0.61934   0.00000  Uiso   1.00
H450   H     0.67225   0.20575   0.39563   0.00000  Uiso   1.00
H451   H     0.51945   0.09769   0.84094   0.00000  Uiso   1.00
O452   O     0.04966   0.73502   0.61915   0.00000  Uiso   1.00
O453   O     0.74994   0.29295   0.32566   0.00000  Uiso   1.00
O454   O     0.54948   0.15118   0.90990   0.00000  Uiso   1.00
N455   N     0.01907   0.84540   0.61872   0.00000  Uiso   1.00
N456   N     0.80550   0.24298   0.40955   0.00000  Uiso   1.00
N457   N     0.66264   0.14198   0.82587   0.00000  Uiso   1.00
N458   N     0.92699   0.81124   0.61913   0.00000  Uiso   1.00
N459   N     0.71341   0.20883   0.40997   0.00000  Uiso   1.00
N460   N     0.57055   0.10782   0.82629   0.00000  Uiso   1.00
C461   C     0.78921   0.58819   0.53542   0.00000  Uiso   1.00
C462   C     0.85203   0.61204   0.53718   0.00000  Uiso   1.00
C463   C     0.91441   0.62570   0.48662   0.00000  Uiso   1.00
C464   C     0.96550   0.64697   0.49787   0.00000  Uiso   1.00
C465   C     0.06473   0.68286   0.49154   0.00000  Uiso   1.00
C466   C     0.79041   0.52397   0.58589   0.00000  Uiso   1.00
C467   C     0.80096   0.46358   0.57628   0.00000  Uiso   1.00
C468   C     0.80017   0.41072   0.62853   0.00000  Uiso   1.00
C469   C     0.80366   0.30989   0.69783   0.00000  Uiso   1.00
C470   C     0.71139   0.63779   0.55848   0.00000  Uiso   1.00
C471   C     0.65549   0.67309   0.52584   0.00000  Uiso   1.00
C472   C     0.58816   0.71604   0.55503   0.00000  Uiso   1.00
C473   C     0.46897   0.79194   0.58177   0.00000  Uiso   1.00
C474   C     0.76904   0.60168   0.64531   0.00000  Uiso   1.00
C475   C     0.84107   0.61937   0.59687   0.00000  Uiso   1.00
C476   C     0.89208   0.64063   0.60820   0.00000  Uiso   1.00
C477   C     0.95453   0.65432   0.55766   0.00000  Uiso   1.00
C478   C     0.77945   0.53130   0.64558   0.00000  Uiso   1.00
C479   C     0.77864   0.47851   0.69786   0.00000  Uiso   1.00
C480   C     0.78919   0.41806   0.68833   0.00000  Uiso   1.00
C481   C     0.70043   0.64512   0.61817   0.00000  Uiso   1.00
C482   C     0.63317   0.68802   0.64742   0.00000  Uiso   1.00
C483   C     0.57718   0.72338   0.61482   0.00000  Uiso   1.00
H484   H     0.79775   0.58248   0.48895   0.00000  Uiso   1.00
H485   H     0.92287   0.62001   0.44044   0.00000  Uiso   1.00
H486   H     0.80943   0.45793   0.53008   0.00000  Uiso   1.00
H487   H     0.66399   0.66741   0.47965   0.00000  Uiso   1.00
H488   H     0.05678   0.66484   0.41298   0.00000  Uiso   1.00
H489   H     0.81756   0.32307   0.60201   0.00000  Uiso   1.00
H490   H     0.51086   0.76480   0.49566   0.00000  Uiso   1.00
H491   H     0.76050   0.60739   0.69178   0.00000  Uiso   1.00
H492   H     0.88359   0.64630   0.65439   0.00000  Uiso   1.00
H493   H     0.77015   0.48420   0.74404   0.00000  Uiso   1.00
H494   H     0.62471   0.69368   0.69361   0.00000  Uiso   1.00
H495   H     0.02490   0.68617   0.58663   0.00000  Uiso   1.00
H496   H     0.78567   0.34440   0.77566   0.00000  Uiso   1.00
H497   H     0.47898   0.78613   0.66932   0.00000  Uiso   1.00
O498   O     0.12249   0.70063   0.47156   0.00000  Uiso   1.00
O499   O     0.80863   0.25224   0.71956   0.00000  Uiso   1.00
O500   O     0.40625   0.83178   0.58004   0.00000  Uiso   1.00
N501   N     0.03238   0.66453   0.45898   0.00000  Uiso   1.00
N502   N     0.80873   0.34500   0.63570   0.00000  Uiso   1.00
N503   N     0.52198   0.75796   0.53629   0.00000  Uiso   1.00
N504   N     0.01522   0.67601   0.55242   0.00000  Uiso   1.00
N505   N     0.79158   0.35647   0.72915   0.00000  Uiso   1.00
N506   N     0.50483   0.76944   0.62973   0.00000  Uiso   1.00
C507   C     0.64060   0.52838   0.22465   0.00000  Uiso   1.00
C508   C     0.69493   0.55000   0.16045   0.00000  Uiso   1.00
C509   C     0.77413   0.51880   0.13955   0.00000  Uiso   1.00
C510   C     0.81359   0.54626   0.07930   0.00000  Uiso   1.00
C511   C     0.90381   0.57123   0.98540   0.00000  Uiso   1.00
C512   C     0.60391   0.58755   0.25422   0.00000  Uiso   1.00
C513   C     0.60657   0.58792   0.31215   0.00000  Uiso   1.00
C514   C     0.56939   0.64700   0.33084   0.00000  Uiso   1.00
C515   C     0.51824   0.73026   0.38253   0.00000  Uiso   1.00
C516   C     0.57448   0.51904   0.21144   0.00000  Uiso   1.00
C517   C     0.55237   0.46181   0.23342   0.00000  Uiso   1.00
C518   C     0.49040   0.46321   0.21611   0.00000  Uiso   1.00
C519   C     0.39355   0.44010   0.20139   0.00000  Uiso   1.00
C520   C     0.56984   0.63264   0.15484   0.00000  Uiso   1.00
C521   C     0.65650   0.60663   0.12253   0.00000  Uiso   1.00
C522   C     0.69584   0.63415   0.06230   0.00000  Uiso   1.00
C523   C     0.77509   0.60299   0.04131   0.00000  Uiso   1.00
C524   C     0.56547   0.64418   0.21630   0.00000  Uiso   1.00
C525   C     0.52828   0.70327   0.23491   0.00000  Uiso   1.00
C526   C     0.53089   0.70373   0.29286   0.00000  Uiso   1.00
C527   C     0.53604   0.57567   0.17352   0.00000  Uiso   1.00
C528   C     0.47409   0.57716   0.15618   0.00000  Uiso   1.00
C529   C     0.45190   0.51994   0.17812   0.00000  Uiso   1.00
H530   H     0.67052   0.48430   0.25417   0.00000  Uiso   1.00
H531   H     0.80386   0.47498   0.16891   0.00000  Uiso   1.00
H532   H     0.63631   0.54409   0.34149   0.00000  Uiso   1.00
H533   H     0.58213   0.41800   0.26277   0.00000  Uiso   1.00
H534   H     0.93474   0.48963   0.05766   0.00000  Uiso   1.00
H535   H     0.58143   0.63536   0.42157   0.00000  Uiso   1.00
H536   H     0.46717   0.36947   0.25557   0.00000  Uiso   1.00
H537   H     0.53992   0.67673   0.12531   0.00000  Uiso   1.00
H538   H     0.66609   0.67797   0.03297   0.00000  Uiso   1.00
H539   H     0.49854   0.74708   0.20555   0.00000  Uiso   1.00
H540   H     0.44436   0.62099   0.12683   0.00000  Uiso   1.00
H541   H     0.82292   0.65439   0.94733   0.00000  Uiso   1.00
H542   H     0.46961   0.80011   0.31124   0.00000  Uiso   1.00
H543   H     0.35536   0.53422   0.14524   0.00000  Uiso   1.00
O544   O     0.96419   0.56937   0.94409   0.00000  Uiso   1.00
O545   O     0.50066   0.76054   0.42152   0.00000  Uiso   1.00
O546   O     0.35076   0.41171   0.20373   0.00000  Uiso   1.00
N547   N     0.89110   0.52823   0.04436   0.00000  Uiso   1.00
N548   N     0.56080   0.66448   0.38459   0.00000  Uiso   1.00
N549   N     0.45396   0.41590   0.22941   0.00000  Uiso   1.00
N550   N     0.83093   0.61688   0.98499   0.00000  Uiso   1.00
N551   N     0.50063   0.75313   0.32522   0.00000  Uiso   1.00
N552   N     0.39379   0.50455   0.17004   0.00000  Uiso   1.00
