data_job_06286
_audit_creation_date              2018-12-19
_audit_creation_method            'Materials Studio'
_symmetry_space_group_name_H-M    'P1'
_symmetry_Int_Tables_number       1
_symmetry_cell_setting            triclinic
loop_
_symmetry_equiv_pos_as_xyz
  x,y,z
_cell_length_a                    18.2388
_cell_length_b                    17.9203
_cell_length_c                    17.3550
_cell_angle_alpha                 98.3611
_cell_angle_beta                  98.4098
_cell_angle_gamma                 97.8022
loop_
_atom_site_label
_atom_site_type_symbol
_atom_site_fract_x
_atom_site_fract_y
_atom_site_fract_z
_atom_site_U_iso_or_equiv
_atom_site_adp_type
_atom_site_occupancy
C1     C     0.76144   0.91369   0.62180   0.00000  Uiso   1.00
C2     C     0.78172   0.95541   0.70700   0.00000  Uiso   1.00
C3     C     0.75501   0.93098   0.77149   0.00000  Uiso   1.00
C4     C     0.78029   0.97727   0.84455   0.00000  Uiso   1.00
C5     C     0.80412   0.03170   0.97558   0.00000  Uiso   1.00
C6     C     0.73029   0.97044   0.57349   0.00000  Uiso   1.00
C7     C     0.66034   0.95863   0.52572   0.00000  Uiso   1.00
C8     C     0.64231   0.01756   0.48638   0.00000  Uiso   1.00
C9     C     0.58632   0.09528   0.41010   0.00000  Uiso   1.00
C10    C     0.83560   0.90134   0.59525   0.00000  Uiso   1.00
C11    C     0.85420   0.83143   0.56575   0.00000  Uiso   1.00
C12    C     0.92484   0.83219   0.54471   0.00000  Uiso   1.00
C13    C     0.03236   0.80262   0.50221   0.00000  Uiso   1.00
C14    C     0.85382   0.03935   0.63687   0.00000  Uiso   1.00
C15    C     0.83190   0.02367   0.71518   0.00000  Uiso   1.00
C16    C     0.85722   0.07000   0.78816   0.00000  Uiso   1.00
C17    C     0.83056   0.04564   0.85275   0.00000  Uiso   1.00
C18    C     0.78046   0.03869   0.58167   0.00000  Uiso   1.00
C19    C     0.76255   0.09765   0.54239   0.00000  Uiso   1.00
C20    C     0.69258   0.08594   0.49458   0.00000  Uiso   1.00
C21    C     0.88578   0.96959   0.60343   0.00000  Uiso   1.00
C22    C     0.95641   0.97045   0.58242   0.00000  Uiso   1.00
C23    C     0.97511   0.90056   0.55291   0.00000  Uiso   1.00
H24    H     0.72237   0.86056   0.61543   0.00000  Uiso   1.00
H25    H     0.71618   0.87816   0.76513   0.00000  Uiso   1.00
H26    H     0.62152   0.90580   0.51940   0.00000  Uiso   1.00
H27    H     0.81535   0.77863   0.55942   0.00000  Uiso   1.00
H28    H     0.73142   0.92780   0.93471   0.00000  Uiso   1.00
H29    H     0.53184   0.98606   0.41654   0.00000  Uiso   1.00
H30    H     0.94057   0.71789   0.50094   0.00000  Uiso   1.00
H31    H     0.89289   0.09249   0.64324   0.00000  Uiso   1.00
H32    H     0.89605   0.12282   0.79447   0.00000  Uiso   1.00
H33    H     0.80139   0.15046   0.54873   0.00000  Uiso   1.00
H34    H     0.99522   0.02328   0.58876   0.00000  Uiso   1.00
H35    H     0.87741   0.12637   0.95852   0.00000  Uiso   1.00
H36    H     0.67783   0.18463   0.44035   0.00000  Uiso   1.00
H37    H     0.08656   0.91646   0.52476   0.00000  Uiso   1.00
O38    O     0.80340   0.04287   0.04560   0.00000  Uiso   1.00
O39    O     0.54156   0.11930   0.36577   0.00000  Uiso   1.00
O40    O     0.07781   0.76746   0.47651   0.00000  Uiso   1.00
N41    N     0.76536   0.97036   0.91956   0.00000  Uiso   1.00
N42    N     0.57875   0.02484   0.43511   0.00000  Uiso   1.00
N43    N     0.96088   0.77412   0.51401   0.00000  Uiso   1.00
N44    N     0.84391   0.07721   0.93238   0.00000  Uiso   1.00
N45    N     0.65731   0.13169   0.44793   0.00000  Uiso   1.00
N46    N     0.03943   0.88097   0.52682   0.00000  Uiso   1.00
C47    C     0.62458   0.75998   0.90982   0.00000  Uiso   1.00
C48    C     0.70549   0.78046   0.95312   0.00000  Uiso   1.00
C49    C     0.76698   0.75291   0.92784   0.00000  Uiso   1.00
C50    C     0.83632   0.77853   0.97587   0.00000  Uiso   1.00
C51    C     0.96080   0.80248   0.03237   0.00000  Uiso   1.00
C52    C     0.57878   0.72872   0.96823   0.00000  Uiso   1.00
C53    C     0.53373   0.65768   0.95564   0.00000  Uiso   1.00
C54    C     0.49639   0.63975   0.01639   0.00000  Uiso   1.00
C55    C     0.42411   0.58341   0.09632   0.00000  Uiso   1.00
C56    C     0.59891   0.83551   0.89738   0.00000  Uiso   1.00
C57    C     0.57078   0.85425   0.82520   0.00000  Uiso   1.00
C58    C     0.55038   0.92623   0.82630   0.00000  Uiso   1.00
C59    C     0.50937   0.03570   0.79622   0.00000  Uiso   1.00
C60    C     0.63835   0.85447   0.04010   0.00000  Uiso   1.00
C61    C     0.71296   0.83178   0.02389   0.00000  Uiso   1.00
C62    C     0.78222   0.85745   0.07198   0.00000  Uiso   1.00
C63    C     0.84382   0.82994   0.04676   0.00000  Uiso   1.00
C64    C     0.58625   0.78004   0.03900   0.00000  Uiso   1.00
C65    C     0.54897   0.76222   0.09978   0.00000  Uiso   1.00
C66    C     0.50389   0.69117   0.08728   0.00000  Uiso   1.00
C67    C     0.60639   0.88684   0.96814   0.00000  Uiso   1.00
C68    C     0.58602   0.95880   0.96935   0.00000  Uiso   1.00
C69    C     0.55787   0.97765   0.89719   0.00000  Uiso   1.00
H70    H     0.61875   0.72002   0.85473   0.00000  Uiso   1.00
H71    H     0.76117   0.71318   0.87307   0.00000  Uiso   1.00
H72    H     0.52795   0.61797   0.90087   0.00000  Uiso   1.00
H73    H     0.56500   0.81452   0.77046   0.00000  Uiso   1.00
H74    H     0.92237   0.72822   0.92463   0.00000  Uiso   1.00
H75    H     0.43058   0.52747   0.98323   0.00000  Uiso   1.00
H76    H     0.50871   0.94193   0.70823   0.00000  Uiso   1.00
H77    H     0.64417   0.89443   0.09519   0.00000  Uiso   1.00
H78    H     0.78799   0.89717   0.12673   0.00000  Uiso   1.00
H79    H     0.55477   0.80195   0.15453   0.00000  Uiso   1.00
H80    H     0.59182   0.99850   0.02412   0.00000  Uiso   1.00
H81    H     0.94413   0.87754   0.13052   0.00000  Uiso   1.00
H82    H     0.45235   0.67679   0.18911   0.00000  Uiso   1.00
H83    H     0.53048   0.09125   0.91412   0.00000  Uiso   1.00
O84    O     0.02740   0.80151   0.04400   0.00000  Uiso   1.00
O85    O     0.38218   0.53815   0.12087   0.00000  Uiso   1.00
O86    O     0.48469   0.08190   0.76008   0.00000  Uiso   1.00
N87    N     0.90775   0.76300   0.96875   0.00000  Uiso   1.00
N88    N     0.44797   0.57531   0.02354   0.00000  Uiso   1.00
N89    N     0.52100   0.96278   0.76644   0.00000  Uiso   1.00
N90    N     0.91947   0.84335   0.07953   0.00000  Uiso   1.00
N91    N     0.45969   0.65566   0.13433   0.00000  Uiso   1.00
N92    N     0.53271   0.04313   0.87723   0.00000  Uiso   1.00
C93    C     0.91550   0.62400   0.75741   0.00000  Uiso   1.00
C94    C     0.95624   0.70625   0.77900   0.00000  Uiso   1.00
C95    C     0.93186   0.76882   0.75081   0.00000  Uiso   1.00
C96    C     0.97715   0.83929   0.77767   0.00000  Uiso   1.00
C97    C     0.03020   0.96584   0.80309   0.00000  Uiso   1.00
C98    C     0.97133   0.57701   0.72496   0.00000  Uiso   1.00
C99    C     0.95963   0.53092   0.65133   0.00000  Uiso   1.00
C100   C     0.01763   0.49260   0.63271   0.00000  Uiso   1.00
C101   C     0.09408   0.41848   0.57425   0.00000  Uiso   1.00
C102   C     0.90378   0.59826   0.83530   0.00000  Uiso   1.00
C103   C     0.83528   0.57000   0.85444   0.00000  Uiso   1.00
C104   C     0.83641   0.54954   0.92871   0.00000  Uiso   1.00
C105   C     0.80798   0.50840   0.04157   0.00000  Uiso   1.00
C106   C     0.03931   0.63789   0.85526   0.00000  Uiso   1.00
C107   C     0.02349   0.71379   0.83215   0.00000  Uiso   1.00
C108   C     0.06884   0.78418   0.85907   0.00000  Uiso   1.00
C109   C     0.04452   0.84685   0.83091   0.00000  Uiso   1.00
C110   C     0.03858   0.58456   0.77811   0.00000  Uiso   1.00
C111   C     0.09661   0.54629   0.75959   0.00000  Uiso   1.00
C112   C     0.08499   0.50016   0.68595   0.00000  Uiso   1.00
C113   C     0.97103   0.60580   0.88845   0.00000  Uiso   1.00
C114   C     0.97226   0.58537   0.96270   0.00000  Uiso   1.00
C115   C     0.90378   0.55710   0.98195   0.00000  Uiso   1.00
H116   H     0.86315   0.61812   0.71603   0.00000  Uiso   1.00
H117   H     0.87981   0.76295   0.70967   0.00000  Uiso   1.00
H118   H     0.90758   0.52509   0.61022   0.00000  Uiso   1.00
H119   H     0.78326   0.56417   0.81330   0.00000  Uiso   1.00
H120   H     0.92796   0.92685   0.72604   0.00000  Uiso   1.00
H121   H     0.98649   0.42528   0.51635   0.00000  Uiso   1.00
H122   H     0.72433   0.50768   0.94458   0.00000  Uiso   1.00
H123   H     0.09167   0.64376   0.89664   0.00000  Uiso   1.00
H124   H     0.12087   0.79000   0.90019   0.00000  Uiso   1.00
H125   H     0.14864   0.55214   0.80074   0.00000  Uiso   1.00
H126   H     0.02432   0.59122   0.00382   0.00000  Uiso   1.00
H127   H     0.12362   0.94880   0.88067   0.00000  Uiso   1.00
H128   H     0.18214   0.44723   0.67098   0.00000  Uiso   1.00
H129   H     0.91999   0.52964   0.09921   0.00000  Uiso   1.00
O130   O     0.04089   0.03356   0.80242   0.00000  Uiso   1.00
O131   O     0.11767   0.37551   0.52732   0.00000  Uiso   1.00
O132   O     0.77373   0.48363   0.08914   0.00000  Uiso   1.00
N133   N     0.96999   0.91195   0.76196   0.00000  Uiso   1.00
N134   N     0.02472   0.44302   0.56590   0.00000  Uiso   1.00
N135   N     0.77963   0.52004   0.96625   0.00000  Uiso   1.00
N136   N     0.07527   0.92376   0.84516   0.00000  Uiso   1.00
N137   N     0.13000   0.45484   0.64911   0.00000  Uiso   1.00
N138   N     0.88490   0.53186   0.04946   0.00000  Uiso   1.00
C139   C     0.23856   0.08631   0.37820   0.00000  Uiso   1.00
C140   C     0.21828   0.04459   0.29300   0.00000  Uiso   1.00
C141   C     0.24499   0.06902   0.22851   0.00000  Uiso   1.00
C142   C     0.21971   0.02273   0.15545   0.00000  Uiso   1.00
C143   C     0.19588   0.96830   0.02442   0.00000  Uiso   1.00
C144   C     0.26971   0.02956   0.42651   0.00000  Uiso   1.00
C145   C     0.33966   0.04137   0.47428   0.00000  Uiso   1.00
C146   C     0.35769   0.98244   0.51362   0.00000  Uiso   1.00
C147   C     0.41368   0.90472   0.58990   0.00000  Uiso   1.00
C148   C     0.16440   0.09866   0.40475   0.00000  Uiso   1.00
C149   C     0.14580   0.16857   0.43425   0.00000  Uiso   1.00
C150   C     0.07516   0.16781   0.45529   0.00000  Uiso   1.00
C151   C     0.96764   0.19738   0.49779   0.00000  Uiso   1.00
C152   C     0.14618   0.96065   0.36313   0.00000  Uiso   1.00
C153   C     0.16810   0.97633   0.28482   0.00000  Uiso   1.00
C154   C     0.14277   0.92999   0.21184   0.00000  Uiso   1.00
C155   C     0.16944   0.95436   0.14725   0.00000  Uiso   1.00
C156   C     0.21954   0.96131   0.41833   0.00000  Uiso   1.00
C157   C     0.23745   0.90235   0.45761   0.00000  Uiso   1.00
C158   C     0.30742   0.91406   0.50542   0.00000  Uiso   1.00
C159   C     0.11422   0.03041   0.39657   0.00000  Uiso   1.00
C160   C     0.04359   0.02955   0.41758   0.00000  Uiso   1.00
C161   C     0.02489   0.09944   0.44709   0.00000  Uiso   1.00
H162   H     0.27763   0.13944   0.38457   0.00000  Uiso   1.00
H163   H     0.28382   0.12184   0.23487   0.00000  Uiso   1.00
H164   H     0.37848   0.09420   0.48060   0.00000  Uiso   1.00
H165   H     0.18465   0.22137   0.44058   0.00000  Uiso   1.00
H166   H     0.26858   0.07220   0.06529   0.00000  Uiso   1.00
H167   H     0.46816   0.01394   0.58346   0.00000  Uiso   1.00
H168   H     0.05943   0.28211   0.49905   0.00000  Uiso   1.00
H169   H     0.10711   0.90751   0.35676   0.00000  Uiso   1.00
H170   H     0.10395   0.87718   0.20553   0.00000  Uiso   1.00
H171   H     0.19861   0.84954   0.45127   0.00000  Uiso   1.00
H172   H     0.00478   0.97672   0.41124   0.00000  Uiso   1.00
H173   H     0.12259   0.87363   0.04148   0.00000  Uiso   1.00
H174   H     0.32217   0.81537   0.55965   0.00000  Uiso   1.00
H175   H     0.91344   0.08354   0.47524   0.00000  Uiso   1.00
O176   O     0.19660   0.95713   0.95440   0.00000  Uiso   1.00
O177   O     0.45844   0.88070   0.63423   0.00000  Uiso   1.00
O178   O     0.92219   0.23254   0.52349   0.00000  Uiso   1.00
N179   N     0.23464   0.02964   0.08044   0.00000  Uiso   1.00
N180   N     0.42125   0.97516   0.56489   0.00000  Uiso   1.00
N181   N     0.03912   0.22588   0.48599   0.00000  Uiso   1.00
N182   N     0.15609   0.92279   0.06762   0.00000  Uiso   1.00
N183   N     0.34269   0.86831   0.55207   0.00000  Uiso   1.00
N184   N     0.96057   0.11903   0.47318   0.00000  Uiso   1.00
C185   C     0.37542   0.24002   0.09018   0.00000  Uiso   1.00
C186   C     0.29451   0.21954   0.04688   0.00000  Uiso   1.00
C187   C     0.23302   0.24709   0.07216   0.00000  Uiso   1.00
C188   C     0.16368   0.22147   0.02413   0.00000  Uiso   1.00
C189   C     0.03920   0.19752   0.96763   0.00000  Uiso   1.00
C190   C     0.42122   0.27128   0.03177   0.00000  Uiso   1.00
C191   C     0.46627   0.34232   0.04436   0.00000  Uiso   1.00
C192   C     0.50361   0.36025   0.98361   0.00000  Uiso   1.00
C193   C     0.57589   0.41659   0.90367   0.00000  Uiso   1.00
C194   C     0.40109   0.16449   0.10262   0.00000  Uiso   1.00
C195   C     0.42922   0.14575   0.17480   0.00000  Uiso   1.00
C196   C     0.44962   0.07377   0.17370   0.00000  Uiso   1.00
C197   C     0.49063   0.96430   0.20378   0.00000  Uiso   1.00
C198   C     0.36165   0.14553   0.95990   0.00000  Uiso   1.00
C199   C     0.28704   0.16822   0.97611   0.00000  Uiso   1.00
C200   C     0.21778   0.14255   0.92802   0.00000  Uiso   1.00
C201   C     0.15618   0.17006   0.95324   0.00000  Uiso   1.00
C202   C     0.41375   0.21996   0.96100   0.00000  Uiso   1.00
C203   C     0.45103   0.23778   0.90022   0.00000  Uiso   1.00
C204   C     0.49611   0.30883   0.91272   0.00000  Uiso   1.00
C205   C     0.39361   0.11316   0.03186   0.00000  Uiso   1.00
C206   C     0.41398   0.04120   0.03065   0.00000  Uiso   1.00
C207   C     0.44213   0.02235   0.10281   0.00000  Uiso   1.00
H208   H     0.38125   0.27998   0.14527   0.00000  Uiso   1.00
H209   H     0.23883   0.28682   0.12693   0.00000  Uiso   1.00
H210   H     0.47205   0.38203   0.09913   0.00000  Uiso   1.00
H211   H     0.43500   0.18548   0.22954   0.00000  Uiso   1.00
H212   H     0.07763   0.27178   0.07537   0.00000  Uiso   1.00
H213   H     0.56942   0.47253   0.01677   0.00000  Uiso   1.00
H214   H     0.49129   0.05807   0.29177   0.00000  Uiso   1.00
H215   H     0.35583   0.10557   0.90481   0.00000  Uiso   1.00
H216   H     0.21201   0.10283   0.87327   0.00000  Uiso   1.00
H217   H     0.44523   0.19805   0.84547   0.00000  Uiso   1.00
H218   H     0.40818   0.00150   0.97588   0.00000  Uiso   1.00
H219   H     0.05587   0.12246   0.86948   0.00000  Uiso   1.00
H220   H     0.54765   0.32321   0.81089   0.00000  Uiso   1.00
H221   H     0.46952   0.90875   0.08588   0.00000  Uiso   1.00
O222   O     0.97260   0.19849   0.95600   0.00000  Uiso   1.00
O223   O     0.61781   0.46185   0.87913   0.00000  Uiso   1.00
O224   O     0.51531   0.91810   0.23992   0.00000  Uiso   1.00
N225   N     0.09225   0.23700   0.03125   0.00000  Uiso   1.00
N226   N     0.55203   0.42469   0.97646   0.00000  Uiso   1.00
N227   N     0.47900   0.03722   0.23356   0.00000  Uiso   1.00
N228   N     0.08053   0.15665   0.92047   0.00000  Uiso   1.00
N229   N     0.54031   0.34434   0.86567   0.00000  Uiso   1.00
N230   N     0.46729   0.95687   0.12277   0.00000  Uiso   1.00
C231   C     0.08450   0.37600   0.24259   0.00000  Uiso   1.00
C232   C     0.04376   0.29375   0.22100   0.00000  Uiso   1.00
C233   C     0.06814   0.23118   0.24919   0.00000  Uiso   1.00
C234   C     0.02285   0.16071   0.22233   0.00000  Uiso   1.00
C235   C     0.96980   0.03416   0.19691   0.00000  Uiso   1.00
C236   C     0.02867   0.42299   0.27504   0.00000  Uiso   1.00
C237   C     0.04037   0.46908   0.34867   0.00000  Uiso   1.00
C238   C     0.98237   0.50740   0.36729   0.00000  Uiso   1.00
C239   C     0.90592   0.58152   0.42575   0.00000  Uiso   1.00
C240   C     0.09622   0.40174   0.16470   0.00000  Uiso   1.00
C241   C     0.16472   0.43000   0.14556   0.00000  Uiso   1.00
C242   C     0.16359   0.45046   0.07129   0.00000  Uiso   1.00
C243   C     0.19202   0.49160   0.95843   0.00000  Uiso   1.00
C244   C     0.96069   0.36211   0.14474   0.00000  Uiso   1.00
C245   C     0.97651   0.28621   0.16785   0.00000  Uiso   1.00
C246   C     0.93116   0.21582   0.14093   0.00000  Uiso   1.00
C247   C     0.95548   0.15315   0.16909   0.00000  Uiso   1.00
C248   C     0.96142   0.41544   0.22189   0.00000  Uiso   1.00
C249   C     0.90339   0.45371   0.24041   0.00000  Uiso   1.00
C250   C     0.91500   0.49984   0.31405   0.00000  Uiso   1.00
C251   C     0.02897   0.39420   0.11155   0.00000  Uiso   1.00
C252   C     0.02774   0.41463   0.03730   0.00000  Uiso   1.00
C253   C     0.09622   0.44290   0.01805   0.00000  Uiso   1.00
H254   H     0.13685   0.38188   0.28397   0.00000  Uiso   1.00
H255   H     0.12019   0.23705   0.29033   0.00000  Uiso   1.00
H256   H     0.09242   0.47491   0.38978   0.00000  Uiso   1.00
H257   H     0.21674   0.43583   0.18670   0.00000  Uiso   1.00
H258   H     0.07204   0.07315   0.27396   0.00000  Uiso   1.00
H259   H     0.01351   0.57472   0.48365   0.00000  Uiso   1.00
H260   H     0.27567   0.49232   0.05542   0.00000  Uiso   1.00
H261   H     0.90833   0.35624   0.10336   0.00000  Uiso   1.00
H262   H     0.87913   0.21000   0.09981   0.00000  Uiso   1.00
H263   H     0.85136   0.44786   0.19926   0.00000  Uiso   1.00
H264   H     0.97568   0.40878   0.99618   0.00000  Uiso   1.00
H265   H     0.87638   0.05120   0.11933   0.00000  Uiso   1.00
H266   H     0.81786   0.55277   0.32902   0.00000  Uiso   1.00
H267   H     0.08001   0.47036   0.90079   0.00000  Uiso   1.00
O268   O     0.95911   0.96644   0.19758   0.00000  Uiso   1.00
O269   O     0.88233   0.62449   0.47268   0.00000  Uiso   1.00
O270   O     0.22627   0.51637   0.91085   0.00000  Uiso   1.00
N271   N     0.03001   0.08805   0.23804   0.00000  Uiso   1.00
N272   N     0.97528   0.55698   0.43410   0.00000  Uiso   1.00
N273   N     0.22037   0.47996   0.03375   0.00000  Uiso   1.00
N274   N     0.92473   0.07624   0.15484   0.00000  Uiso   1.00
N275   N     0.87000   0.54516   0.35089   0.00000  Uiso   1.00
N276   N     0.11510   0.46814   0.95054   0.00000  Uiso   1.00
