data_job_00424
_audit_creation_date              2018-12-19
_audit_creation_method            'Materials Studio'
_symmetry_space_group_name_H-M    'P1'
_symmetry_Int_Tables_number       1
_symmetry_cell_setting            triclinic
loop_
_symmetry_equiv_pos_as_xyz
  x,y,z
_cell_length_a                    9.4966
_cell_length_b                    11.2079
_cell_length_c                    12.4712
_cell_angle_alpha                 102.0032
_cell_angle_beta                  107.8255
_cell_angle_gamma                 69.9382
loop_
_atom_site_label
_atom_site_type_symbol
_atom_site_fract_x
_atom_site_fract_y
_atom_site_fract_z
_atom_site_U_iso_or_equiv
_atom_site_adp_type
_atom_site_occupancy
C1     C     0.32017   0.83188   0.22331   0.00000  Uiso   1.00
C2     C     0.41025   0.78534   0.33865   0.00000  Uiso   1.00
C3     C     0.55429   0.79800   0.40027   0.00000  Uiso   1.00
C4     C     0.61734   0.74909   0.50399   0.00000  Uiso   1.00
C5     C     0.76917   0.68580   0.67689   0.00000  Uiso   1.00
C6     C     0.28870   0.71495   0.14452   0.00000  Uiso   1.00
C7     C     0.33051   0.66844   0.04293   0.00000  Uiso   1.00
C8     C     0.29121   0.56028   0.98323   0.00000  Uiso   1.00
C9     C     0.25422   0.38777   0.85471   0.00000  Uiso   1.00
C10    C     0.16277   0.92038   0.23788   0.00000  Uiso   1.00
C11    C     0.09868   0.04660   0.21475   0.00000  Uiso   1.00
C12    C     0.95335   0.11140   0.23362   0.00000  Uiso   1.00
C13    C     0.72084   0.25786   0.25005   0.00000  Uiso   1.00
C14    C     0.17601   0.72251   0.29792   0.00000  Uiso   1.00
C15    C     0.33195   0.72593   0.37917   0.00000  Uiso   1.00
C16    C     0.39480   0.67700   0.48283   0.00000  Uiso   1.00
C17    C     0.53890   0.68958   0.54460   0.00000  Uiso   1.00
C18    C     0.21040   0.65554   0.18505   0.00000  Uiso   1.00
C19    C     0.17102   0.54744   0.12548   0.00000  Uiso   1.00
C20    C     0.21277   0.50077   0.02383   0.00000  Uiso   1.00
C21    C     0.08447   0.86098   0.27841   0.00000  Uiso   1.00
C22    C     0.93920   0.92560   0.29731   0.00000  Uiso   1.00
C23    C     0.87491   0.05189   0.27422   0.00000  Uiso   1.00
H24    H     0.38112   0.87812   0.19175   0.00000  Uiso   1.00
H25    H     0.61485   0.84396   0.36887   0.00000  Uiso   1.00
H26    H     0.39109   0.71443   0.01158   0.00000  Uiso   1.00
H27    H     0.15931   0.09253   0.18339   0.00000  Uiso   1.00
H28    H     0.83947   0.77986   0.58310   0.00000  Uiso   1.00
H29    H     0.36762   0.50676   0.82971   0.00000  Uiso   1.00
H30    H     0.87885   0.30406   0.19199   0.00000  Uiso   1.00
H31    H     0.11505   0.67626   0.32948   0.00000  Uiso   1.00
H32    H     0.33418   0.63103   0.51417   0.00000  Uiso   1.00
H33    H     0.11042   0.50150   0.15687   0.00000  Uiso   1.00
H34    H     0.87864   0.87960   0.32868   0.00000  Uiso   1.00
H35    H     0.61168   0.60703   0.70103   0.00000  Uiso   1.00
H36    H     0.13981   0.33394   0.94763   0.00000  Uiso   1.00
H37    H     0.65106   0.13123   0.30991   0.00000  Uiso   1.00
O38    O     0.87455   0.66729   0.76106   0.00000  Uiso   1.00
O39    O     0.25546   0.30902   0.77262   0.00000  Uiso   1.00
O40    O     0.61423   0.35506   0.24793   0.00000  Uiso   1.00
N41    N     0.75578   0.74541   0.58552   0.00000  Uiso   1.00
N42    N     0.31464   0.49007   0.88115   0.00000  Uiso   1.00
N43    N     0.85767   0.23547   0.21982   0.00000  Uiso   1.00
N44    N     0.63320   0.65242   0.64898   0.00000  Uiso   1.00
N45    N     0.19206   0.39708   0.94461   0.00000  Uiso   1.00
N46    N     0.73509   0.14248   0.28328   0.00000  Uiso   1.00
C47    C     0.67983   0.16812   0.77669   0.00000  Uiso   1.00
C48    C     0.58975   0.21466   0.66135   0.00000  Uiso   1.00
C49    C     0.44571   0.20200   0.59973   0.00000  Uiso   1.00
C50    C     0.38266   0.25091   0.49601   0.00000  Uiso   1.00
C51    C     0.23083   0.31420   0.32311   0.00000  Uiso   1.00
C52    C     0.71130   0.28505   0.85548   0.00000  Uiso   1.00
C53    C     0.66949   0.33156   0.95707   0.00000  Uiso   1.00
C54    C     0.70879   0.43972   0.01677   0.00000  Uiso   1.00
C55    C     0.74578   0.61223   0.14529   0.00000  Uiso   1.00
C56    C     0.83723   0.07962   0.76212   0.00000  Uiso   1.00
C57    C     0.90132   0.95340   0.78525   0.00000  Uiso   1.00
C58    C     0.04665   0.88860   0.76638   0.00000  Uiso   1.00
C59    C     0.27916   0.74214   0.74995   0.00000  Uiso   1.00
C60    C     0.82399   0.27749   0.70208   0.00000  Uiso   1.00
C61    C     0.66805   0.27407   0.62083   0.00000  Uiso   1.00
C62    C     0.60520   0.32300   0.51717   0.00000  Uiso   1.00
C63    C     0.46110   0.31042   0.45540   0.00000  Uiso   1.00
C64    C     0.78960   0.34446   0.81495   0.00000  Uiso   1.00
C65    C     0.82898   0.45256   0.87452   0.00000  Uiso   1.00
C66    C     0.78723   0.49923   0.97617   0.00000  Uiso   1.00
C67    C     0.91553   0.13902   0.72159   0.00000  Uiso   1.00
C68    C     0.06080   0.07440   0.70269   0.00000  Uiso   1.00
C69    C     0.12509   0.94811   0.72578   0.00000  Uiso   1.00
H70    H     0.61888   0.12188   0.80825   0.00000  Uiso   1.00
H71    H     0.38515   0.15604   0.63113   0.00000  Uiso   1.00
H72    H     0.60891   0.28557   0.98842   0.00000  Uiso   1.00
H73    H     0.84069   0.90747   0.81661   0.00000  Uiso   1.00
H74    H     0.16053   0.22014   0.41690   0.00000  Uiso   1.00
H75    H     0.63238   0.49324   0.17029   0.00000  Uiso   1.00
H76    H     0.12115   0.69594   0.80801   0.00000  Uiso   1.00
H77    H     0.88495   0.32374   0.67052   0.00000  Uiso   1.00
H78    H     0.66582   0.36897   0.48583   0.00000  Uiso   1.00
H79    H     0.88958   0.49850   0.84313   0.00000  Uiso   1.00
H80    H     0.12136   0.12040   0.67132   0.00000  Uiso   1.00
H81    H     0.38832   0.39297   0.29897   0.00000  Uiso   1.00
H82    H     0.86019   0.66606   0.05237   0.00000  Uiso   1.00
H83    H     0.34894   0.86877   0.69009   0.00000  Uiso   1.00
O84    O     0.12545   0.33271   0.23894   0.00000  Uiso   1.00
O85    O     0.74454   0.69098   0.22738   0.00000  Uiso   1.00
O86    O     0.38577   0.64494   0.75207   0.00000  Uiso   1.00
N87    N     0.24422   0.25459   0.41448   0.00000  Uiso   1.00
N88    N     0.68536   0.50993   0.11885   0.00000  Uiso   1.00
N89    N     0.14233   0.76453   0.78018   0.00000  Uiso   1.00
N90    N     0.36680   0.34758   0.35102   0.00000  Uiso   1.00
N91    N     0.80794   0.60292   0.05539   0.00000  Uiso   1.00
N92    N     0.26491   0.85752   0.71672   0.00000  Uiso   1.00
