data_job_06422
_audit_creation_date              2018-12-19
_audit_creation_method            'Materials Studio'
_symmetry_space_group_name_H-M    'P1'
_symmetry_Int_Tables_number       1
_symmetry_cell_setting            triclinic
loop_
_symmetry_equiv_pos_as_xyz
  x,y,z
_cell_length_a                    12.3960
_cell_length_b                    24.5320
_cell_length_c                    24.5880
_cell_angle_alpha                 62.7530
_cell_angle_beta                  80.8725
_cell_angle_gamma                 99.1019
loop_
_atom_site_label
_atom_site_type_symbol
_atom_site_fract_x
_atom_site_fract_y
_atom_site_fract_z
_atom_site_U_iso_or_equiv
_atom_site_adp_type
_atom_site_occupancy
C1     C     0.54948   0.82859   0.55425   0.00000  Uiso   1.00
C2     C     0.51816   0.75985   0.60779   0.00000  Uiso   1.00
C3     C     0.48210   0.70645   0.60240   0.00000  Uiso   1.00
C4     C     0.45753   0.64776   0.65694   0.00000  Uiso   1.00
C5     C     0.40714   0.54179   0.73129   0.00000  Uiso   1.00
C6     C     0.47430   0.86168   0.57687   0.00000  Uiso   1.00
C7     C     0.40139   0.89390   0.54548   0.00000  Uiso   1.00
C8     C     0.33992   0.92093   0.57399   0.00000  Uiso   1.00
C9     C     0.22151   0.97309   0.60032   0.00000  Uiso   1.00
C10    C     0.67001   0.85788   0.55101   0.00000  Uiso   1.00
C11    C     0.76165   0.88693   0.49786   0.00000  Uiso   1.00
C12    C     0.86494   0.91078   0.50458   0.00000  Uiso   1.00
C13    C     0.05038   0.95705   0.49075   0.00000  Uiso   1.00
C14    C     0.56996   0.81932   0.66067   0.00000  Uiso   1.00
C15    C     0.52927   0.75482   0.66560   0.00000  Uiso   1.00
C16    C     0.50476   0.69619   0.72015   0.00000  Uiso   1.00
C17    C     0.46868   0.64271   0.71485   0.00000  Uiso   1.00
C18    C     0.48542   0.85664   0.63468   0.00000  Uiso   1.00
C19    C     0.42405   0.88364   0.66323   0.00000  Uiso   1.00
C20    C     0.35106   0.91589   0.63189   0.00000  Uiso   1.00
C21    C     0.68113   0.85284   0.60881   0.00000  Uiso   1.00
C22    C     0.78430   0.87666   0.61561   0.00000  Uiso   1.00
C23    C     0.87607   0.90574   0.56249   0.00000  Uiso   1.00
H24    H     0.54082   0.83251   0.50924   0.00000  Uiso   1.00
H25    H     0.47350   0.71037   0.55766   0.00000  Uiso   1.00
H26    H     0.39281   0.89779   0.50075   0.00000  Uiso   1.00
H27    H     0.75301   0.89082   0.45314   0.00000  Uiso   1.00
H28    H     0.40372   0.57273   0.63684   0.00000  Uiso   1.00
H29    H     0.23362   0.96794   0.51682   0.00000  Uiso   1.00
H30    H     0.99316   0.95324   0.41643   0.00000  Uiso   1.00
H31    H     0.57861   0.81540   0.70568   0.00000  Uiso   1.00
H32    H     0.51337   0.69231   0.76488   0.00000  Uiso   1.00
H33    H     0.43268   0.87973   0.70796   0.00000  Uiso   1.00
H34    H     0.79287   0.87276   0.66035   0.00000  Uiso   1.00
H35    H     0.43608   0.55807   0.80503   0.00000  Uiso   1.00
H36    H     0.26598   0.95329   0.68501   0.00000  Uiso   1.00
H37    H     0.02552   0.93858   0.58461   0.00000  Uiso   1.00
O38    O     0.37626   0.48474   0.75634   0.00000  Uiso   1.00
O39    O     0.15312   0.00325   0.59887   0.00000  Uiso   1.00
O40    O     0.14961   0.98395   0.46716   0.00000  Uiso   1.00
N41    N     0.42031   0.58617   0.66830   0.00000  Uiso   1.00
N42    N     0.26127   0.95566   0.55609   0.00000  Uiso   1.00
N43    N     0.97136   0.94193   0.46222   0.00000  Uiso   1.00
N44    N     0.43773   0.57828   0.75880   0.00000  Uiso   1.00
N45    N     0.27868   0.94777   0.64659   0.00000  Uiso   1.00
N46    N     0.98878   0.93404   0.55272   0.00000  Uiso   1.00
C47    C     0.73059   0.61815   0.82839   0.00000  Uiso   1.00
C48    C     0.76571   0.63292   0.75977   0.00000  Uiso   1.00
C49    C     0.78125   0.69147   0.70649   0.00000  Uiso   1.00
C50    C     0.81341   0.69526   0.64788   0.00000  Uiso   1.00
C51    C     0.86545   0.72623   0.54209   0.00000  Uiso   1.00
C52    C     0.62392   0.56304   0.86043   0.00000  Uiso   1.00
C53    C     0.52026   0.56284   0.89179   0.00000  Uiso   1.00
C54    C     0.43308   0.50780   0.91793   0.00000  Uiso   1.00
C55    C     0.26502   0.43027   0.96846   0.00000  Uiso   1.00
C56    C     0.82233   0.59174   0.85859   0.00000  Uiso   1.00
C57    C     0.88548   0.61565   0.88843   0.00000  Uiso   1.00
C58    C     0.96533   0.58475   0.91304   0.00000  Uiso   1.00
C59    C     0.10533   0.55177   0.96071   0.00000  Uiso   1.00
C60    C     0.76008   0.52075   0.81906   0.00000  Uiso   1.00
C61    C     0.78172   0.58002   0.75470   0.00000  Uiso   1.00
C62    C     0.81388   0.58371   0.69615   0.00000  Uiso   1.00
C63    C     0.82946   0.64226   0.64280   0.00000  Uiso   1.00
C64    C     0.63994   0.51014   0.85536   0.00000  Uiso   1.00
C65    C     0.55289   0.45508   0.88146   0.00000  Uiso   1.00
C66    C     0.44912   0.45480   0.91285   0.00000  Uiso   1.00
C67    C     0.83835   0.53883   0.85352   0.00000  Uiso   1.00
C68    C     0.91811   0.50789   0.87809   0.00000  Uiso   1.00
C69    C     0.98137   0.53175   0.90796   0.00000  Uiso   1.00
H70    H     0.71811   0.65933   0.83235   0.00000  Uiso   1.00
H71    H     0.76883   0.73240   0.71043   0.00000  Uiso   1.00
H72    H     0.50790   0.60379   0.89572   0.00000  Uiso   1.00
H73    H     0.87306   0.65659   0.89234   0.00000  Uiso   1.00
H74    H     0.83209   0.79007   0.57303   0.00000  Uiso   1.00
H75    H     0.28190   0.51888   0.96373   0.00000  Uiso   1.00
H76    H     0.05192   0.63021   0.95663   0.00000  Uiso   1.00
H77    H     0.77255   0.47956   0.81511   0.00000  Uiso   1.00
H78    H     0.82626   0.54276   0.69224   0.00000  Uiso   1.00
H79    H     0.56532   0.41415   0.87753   0.00000  Uiso   1.00
H80    H     0.93048   0.46695   0.87416   0.00000  Uiso   1.00
H81    H     0.87870   0.63616   0.55827   0.00000  Uiso   1.00
H82    H     0.32850   0.36496   0.94897   0.00000  Uiso   1.00
H83    H     0.09852   0.47630   0.94186   0.00000  Uiso   1.00
O84    O     0.88971   0.75793   0.48514   0.00000  Uiso   1.00
O85    O     0.16789   0.40213   0.99773   0.00000  Uiso   1.00
O86    O     0.17813   0.54820   0.98840   0.00000  Uiso   1.00
N87    N     0.83571   0.74518   0.58642   0.00000  Uiso   1.00
N88    N     0.32131   0.49163   0.95169   0.00000  Uiso   1.00
N89    N     0.04119   0.59571   0.94506   0.00000  Uiso   1.00
N90    N     0.86079   0.66236   0.57848   0.00000  Uiso   1.00
N91    N     0.34639   0.40881   0.94374   0.00000  Uiso   1.00
N92    N     0.06627   0.51289   0.93712   0.00000  Uiso   1.00
C93    C     0.11112   0.55368   0.61696   0.00000  Uiso   1.00
C94    C     0.13173   0.60753   0.63215   0.00000  Uiso   1.00
C95    C     0.09071   0.60267   0.69053   0.00000  Uiso   1.00
C96    C     0.11898   0.65740   0.69477   0.00000  Uiso   1.00
C97    C     0.14077   0.73228   0.72632   0.00000  Uiso   1.00
C98    C     0.05808   0.57682   0.56120   0.00000  Uiso   1.00
C99    C     0.95515   0.54614   0.55992   0.00000  Uiso   1.00
C100   C     0.92143   0.57503   0.50443   0.00000  Uiso   1.00
C101   C     0.82891   0.60221   0.42581   0.00000  Uiso   1.00
C102   C     0.22793   0.54922   0.59153   0.00000  Uiso   1.00
C103   C     0.26780   0.49533   0.61574   0.00000  Uiso   1.00
C104   C     0.37708   0.50097   0.58578   0.00000  Uiso   1.00
C105   C     0.54828   0.48529   0.55425   0.00000  Uiso   1.00
C106   C     0.23427   0.65952   0.52068   0.00000  Uiso   1.00
C107   C     0.19862   0.66501   0.57985   0.00000  Uiso   1.00
C108   C     0.22697   0.71977   0.58401   0.00000  Uiso   1.00
C109   C     0.18600   0.71500   0.64239   0.00000  Uiso   1.00
C110   C     0.12497   0.63431   0.50891   0.00000  Uiso   1.00
C111   C     0.09140   0.66325   0.45340   0.00000  Uiso   1.00
C112   C     0.98844   0.63262   0.45204   0.00000  Uiso   1.00
C113   C     0.29483   0.60671   0.53924   0.00000  Uiso   1.00
C114   C     0.40406   0.61243   0.50922   0.00000  Uiso   1.00
C115   C     0.44410   0.55856   0.53339   0.00000  Uiso   1.00
H116   H     0.05904   0.50892   0.65767   0.00000  Uiso   1.00
H117   H     0.03894   0.55817   0.73099   0.00000  Uiso   1.00
H118   H     0.90341   0.50165   0.60040   0.00000  Uiso   1.00
H119   H     0.21602   0.45085   0.65621   0.00000  Uiso   1.00
H120   H     0.04612   0.63814   0.78921   0.00000  Uiso   1.00
H121   H     0.76036   0.51895   0.51385   0.00000  Uiso   1.00
H122   H     0.41956   0.41181   0.63154   0.00000  Uiso   1.00
H123   H     0.28635   0.70428   0.47996   0.00000  Uiso   1.00
H124   H     0.27873   0.76425   0.54353   0.00000  Uiso   1.00
H125   H     0.14319   0.70773   0.41294   0.00000  Uiso   1.00
H126   H     0.45580   0.65693   0.46876   0.00000  Uiso   1.00
H127   H     0.24074   0.80540   0.63707   0.00000  Uiso   1.00
H128   H     0.95498   0.68621   0.36170   0.00000  Uiso   1.00
H129   H     0.61418   0.57908   0.47940   0.00000  Uiso   1.00
O130   O     0.13429   0.75770   0.75816   0.00000  Uiso   1.00
O131   O     0.75939   0.60133   0.39689   0.00000  Uiso   1.00
O132   O     0.62424   0.46077   0.55131   0.00000  Uiso   1.00
N133   N     0.09299   0.66927   0.74468   0.00000  Uiso   1.00
N134   N     0.82581   0.55784   0.48724   0.00000  Uiso   1.00
N135   N     0.44209   0.45767   0.59726   0.00000  Uiso   1.00
N136   N     0.19772   0.75927   0.66282   0.00000  Uiso   1.00
N137   N     0.93054   0.64784   0.40537   0.00000  Uiso   1.00
N138   N     0.54682   0.54768   0.51539   0.00000  Uiso   1.00
C139   C     0.04950   0.44593   0.17164   0.00000  Uiso   1.00
C140   C     0.01819   0.39233   0.24025   0.00000  Uiso   1.00
C141   C     0.98217   0.39781   0.29349   0.00000  Uiso   1.00
C142   C     0.95759   0.34321   0.35209   0.00000  Uiso   1.00
C143   C     0.90722   0.26878   0.45785   0.00000  Uiso   1.00
C144   C     0.97430   0.42320   0.13869   0.00000  Uiso   1.00
C145   C     0.90138   0.45465   0.10653   0.00000  Uiso   1.00
C146   C     0.83988   0.42603   0.07963   0.00000  Uiso   1.00
C147   C     0.72143   0.39956   0.02767   0.00000  Uiso   1.00
C148   C     0.17001   0.44913   0.14241   0.00000  Uiso   1.00
C149   C     0.26167   0.50238   0.11336   0.00000  Uiso   1.00
C150   C     0.36494   0.49559   0.08958   0.00000  Uiso   1.00
C151   C     0.55037   0.50937   0.04340   0.00000  Uiso   1.00
C152   C     0.06993   0.33920   0.18103   0.00000  Uiso   1.00
C153   C     0.02928   0.33436   0.24535   0.00000  Uiso   1.00
C154   C     0.00476   0.27973   0.30388   0.00000  Uiso   1.00
C155   C     0.96871   0.28513   0.35720   0.00000  Uiso   1.00
C156   C     0.98538   0.36523   0.14379   0.00000  Uiso   1.00
C157   C     0.92398   0.33656   0.11692   0.00000  Uiso   1.00
C158   C     0.85099   0.36796   0.08474   0.00000  Uiso   1.00
C159   C     0.18111   0.39116   0.14751   0.00000  Uiso   1.00
C160   C     0.28426   0.38429   0.12376   0.00000  Uiso   1.00
C161   C     0.37605   0.43751   0.09469   0.00000  Uiso   1.00
H162   H     0.04086   0.49107   0.16767   0.00000  Uiso   1.00
H163   H     0.97358   0.44269   0.28953   0.00000  Uiso   1.00
H164   H     0.89283   0.49951   0.10259   0.00000  Uiso   1.00
H165   H     0.25305   0.54723   0.10943   0.00000  Uiso   1.00
H166   H     0.90384   0.36347   0.42688   0.00000  Uiso   1.00
H167   H     0.73359   0.48331   0.03269   0.00000  Uiso   1.00
H168   H     0.49319   0.58393   0.04711   0.00000  Uiso   1.00
H169   H     0.07856   0.29407   0.18500   0.00000  Uiso   1.00
H170   H     0.01335   0.23487   0.30782   0.00000  Uiso   1.00
H171   H     0.93259   0.29170   0.12088   0.00000  Uiso   1.00
H172   H     0.29281   0.33942   0.12772   0.00000  Uiso   1.00
H173   H     0.93611   0.19480   0.44172   0.00000  Uiso   1.00
H174   H     0.76586   0.31464   0.04753   0.00000  Uiso   1.00
H175   H     0.52546   0.41526   0.06195   0.00000  Uiso   1.00
O176   O     0.87636   0.24375   0.51478   0.00000  Uiso   1.00
O177   O     0.65302   0.40098   0.99761   0.00000  Uiso   1.00
O178   O     0.64959   0.53298   0.01653   0.00000  Uiso   1.00
N179   N     0.92041   0.33190   0.41352   0.00000  Uiso   1.00
N180   N     0.76122   0.44394   0.04498   0.00000  Uiso   1.00
N181   N     0.47138   0.53801   0.05845   0.00000  Uiso   1.00
N182   N     0.93777   0.24114   0.42151   0.00000  Uiso   1.00
N183   N     0.77859   0.35318   0.05297   0.00000  Uiso   1.00
N184   N     0.48874   0.44725   0.06644   0.00000  Uiso   1.00
C185   C     0.23057   0.17121   0.38203   0.00000  Uiso   1.00
C186   C     0.26572   0.24002   0.36720   0.00000  Uiso   1.00
C187   C     0.28126   0.29337   0.30874   0.00000  Uiso   1.00
C188   C     0.31345   0.35214   0.30488   0.00000  Uiso   1.00
C189   C     0.36553   0.45820   0.27384   0.00000  Uiso   1.00
C190   C     0.12392   0.13917   0.43703   0.00000  Uiso   1.00
C191   C     0.02024   0.10773   0.43729   0.00000  Uiso   1.00
C192   C     0.93308   0.08160   0.49222   0.00000  Uiso   1.00
C193   C     0.76503   0.03106   0.56961   0.00000  Uiso   1.00
C194   C     0.32232   0.14095   0.40840   0.00000  Uiso   1.00
C195   C     0.38543   0.11098   0.38459   0.00000  Uiso   1.00
C196   C     0.46528   0.08633   0.41542   0.00000  Uiso   1.00
C197   C     0.60528   0.03854   0.44835   0.00000  Uiso   1.00
C198   C     0.26012   0.18071   0.47912   0.00000  Uiso   1.00
C199   C     0.28176   0.24517   0.41994   0.00000  Uiso   1.00
C200   C     0.31395   0.30388   0.41617   0.00000  Uiso   1.00
C201   C     0.32954   0.35731   0.35771   0.00000  Uiso   1.00
C202   C     0.13997   0.14433   0.48977   0.00000  Uiso   1.00
C203   C     0.05294   0.11824   0.54471   0.00000  Uiso   1.00
C204   C     0.94915   0.08677   0.54505   0.00000  Uiso   1.00
C205   C     0.33837   0.14611   0.46113   0.00000  Uiso   1.00
C206   C     0.41813   0.12150   0.49201   0.00000  Uiso   1.00
C207   C     0.48136   0.09150   0.46825   0.00000  Uiso   1.00
H208   H     0.21807   0.16719   0.34098   0.00000  Uiso   1.00
H209   H     0.26882   0.28936   0.26794   0.00000  Uiso   1.00
H210   H     0.00785   0.10374   0.39648   0.00000  Uiso   1.00
H211   H     0.37299   0.10700   0.34378   0.00000  Uiso   1.00
H212   H     0.33212   0.42708   0.21024   0.00000  Uiso   1.00
H213   H     0.78187   0.03568   0.48126   0.00000  Uiso   1.00
H214   H     0.55183   0.04254   0.37014   0.00000  Uiso   1.00
H215   H     0.27261   0.18473   0.52018   0.00000  Uiso   1.00
H216   H     0.32636   0.30786   0.45698   0.00000  Uiso   1.00
H217   H     0.06539   0.12224   0.58552   0.00000  Uiso   1.00
H218   H     0.43052   0.12550   0.53282   0.00000  Uiso   1.00
H219   H     0.37882   0.44210   0.36367   0.00000  Uiso   1.00
H220   H     0.82856   0.05069   0.63469   0.00000  Uiso   1.00
H221   H     0.59852   0.05755   0.52358   0.00000  Uiso   1.00
O222   O     0.38981   0.51527   0.24215   0.00000  Uiso   1.00
O223   O     0.66790   0.00176   0.59772   0.00000  Uiso   1.00
O224   O     0.67807   0.01076   0.45194   0.00000  Uiso   1.00
N225   N     0.33576   0.41371   0.25502   0.00000  Uiso   1.00
N226   N     0.82130   0.04779   0.50841   0.00000  Uiso   1.00
N227   N     0.54112   0.05418   0.40453   0.00000  Uiso   1.00
N228   N     0.36089   0.42179   0.33758   0.00000  Uiso   1.00
N229   N     0.84643   0.05587   0.59096   0.00000  Uiso   1.00
N230   N     0.56625   0.06227   0.48709   0.00000  Uiso   1.00
C231   C     0.61111   0.38327   0.44593   0.00000  Uiso   1.00
C232   C     0.63169   0.36795   0.39226   0.00000  Uiso   1.00
C233   C     0.59064   0.30941   0.39719   0.00000  Uiso   1.00
C234   C     0.61888   0.30507   0.34262   0.00000  Uiso   1.00
C235   C     0.64060   0.27333   0.26801   0.00000  Uiso   1.00
C236   C     0.55809   0.43917   0.42278   0.00000  Uiso   1.00
C237   C     0.45517   0.44050   0.45338   0.00000  Uiso   1.00
C238   C     0.42147   0.49612   0.42450   0.00000  Uiso   1.00
C239   C     0.32898   0.57496   0.39730   0.00000  Uiso   1.00
C240   C     0.72794   0.40876   0.45032   0.00000  Uiso   1.00
C241   C     0.76783   0.38455   0.50408   0.00000  Uiso   1.00
C242   C     0.87712   0.41458   0.49840   0.00000  Uiso   1.00
C243   C     0.04834   0.44620   0.51396   0.00000  Uiso   1.00
C244   C     0.73426   0.47967   0.34025   0.00000  Uiso   1.00
C245   C     0.69857   0.42031   0.33486   0.00000  Uiso   1.00
C246   C     0.72689   0.41606   0.28027   0.00000  Uiso   1.00
C247   C     0.68589   0.35753   0.28511   0.00000  Uiso   1.00
C248   C     0.62498   0.49153   0.36538   0.00000  Uiso   1.00
C249   C     0.59142   0.54716   0.33646   0.00000  Uiso   1.00
C250   C     0.48848   0.54858   0.36700   0.00000  Uiso   1.00
C251   C     0.79483   0.46112   0.39292   0.00000  Uiso   1.00
C252   C     0.90408   0.49120   0.38716   0.00000  Uiso   1.00
C253   C     0.94413   0.46703   0.44090   0.00000  Uiso   1.00
H254   H     0.55903   0.34251   0.49062   0.00000  Uiso   1.00
H255   H     0.53887   0.26890   0.44162   0.00000  Uiso   1.00
H256   H     0.40343   0.39998   0.49780   0.00000  Uiso   1.00
H257   H     0.71604   0.34403   0.54849   0.00000  Uiso   1.00
H258   H     0.54598   0.21039   0.36197   0.00000  Uiso   1.00
H259   H     0.26043   0.48678   0.48045   0.00000  Uiso   1.00
H260   H     0.91962   0.36880   0.58735   0.00000  Uiso   1.00
H261   H     0.78634   0.52044   0.29556   0.00000  Uiso   1.00
H262   H     0.77865   0.45659   0.23585   0.00000  Uiso   1.00
H263   H     0.64321   0.58767   0.29204   0.00000  Uiso   1.00
H264   H     0.95582   0.53172   0.34273   0.00000  Uiso   1.00
H265   H     0.74059   0.36273   0.19496   0.00000  Uiso   1.00
H266   H     0.45504   0.63912   0.31345   0.00000  Uiso   1.00
H267   H     0.11423   0.52114   0.42034   0.00000  Uiso   1.00
O268   O     0.63409   0.24135   0.24271   0.00000  Uiso   1.00
O269   O     0.25947   0.60397   0.39816   0.00000  Uiso   1.00
O270   O     0.12432   0.44918   0.53840   0.00000  Uiso   1.00
N271   N     0.59285   0.25500   0.33086   0.00000  Uiso   1.00
N272   N     0.32587   0.51341   0.44163   0.00000  Uiso   1.00
N273   N     0.94215   0.40311   0.54157   0.00000  Uiso   1.00
N274   N     0.69757   0.33697   0.24100   0.00000  Uiso   1.00
N275   N     0.43059   0.59538   0.35177   0.00000  Uiso   1.00
N276   N     0.04687   0.48509   0.45171   0.00000  Uiso   1.00
