data_job_05194
_audit_creation_date              2018-12-19
_audit_creation_method            'Materials Studio'
_symmetry_space_group_name_H-M    'P1'
_symmetry_Int_Tables_number       1
_symmetry_cell_setting            triclinic
loop_
_symmetry_equiv_pos_as_xyz
  x,y,z
_cell_length_a                    12.5240
_cell_length_b                    17.0347
_cell_length_c                    17.0856
_cell_angle_alpha                 98.6336
_cell_angle_beta                  89.2967
_cell_angle_gamma                 94.6047
loop_
_atom_site_label
_atom_site_type_symbol
_atom_site_fract_x
_atom_site_fract_y
_atom_site_fract_z
_atom_site_U_iso_or_equiv
_atom_site_adp_type
_atom_site_occupancy
C1     C     0.10342   0.74556   0.05793   0.00000  Uiso   1.00
C2     C     0.20570   0.71680   0.01800   0.00000  Uiso   1.00
C3     C     0.26048   0.65429   0.03637   0.00000  Uiso   1.00
C4     C     0.35245   0.63728   0.99302   0.00000  Uiso   1.00
C5     C     0.50585   0.58596   0.94010   0.00000  Uiso   1.00
C6     C     0.12822   0.83380   0.08880   0.00000  Uiso   1.00
C7     C     0.11783   0.86966   0.16671   0.00000  Uiso   1.00
C8     C     0.14457   0.95115   0.18296   0.00000  Uiso   1.00
C9     C     0.17761   0.08149   0.23996   0.00000  Uiso   1.00
C10    C     0.02152   0.74154   0.99185   0.00000  Uiso   1.00
C11    C     0.92141   0.69985   0.98825   0.00000  Uiso   1.00
C12    C     0.85830   0.70367   0.92288   0.00000  Uiso   1.00
C13    C     0.72567   0.69076   0.82935   0.00000  Uiso   1.00
C14    C     0.16935   0.82650   0.94828   0.00000  Uiso   1.00
C15    C     0.24151   0.76077   0.95844   0.00000  Uiso   1.00
C16    C     0.33343   0.74384   0.91505   0.00000  Uiso   1.00
C17    C     0.38833   0.68132   0.93335   0.00000  Uiso   1.00
C18    C     0.16403   0.87776   0.02925   0.00000  Uiso   1.00
C19    C     0.19078   0.95921   0.04539   0.00000  Uiso   1.00
C20    C     0.18045   0.99519   0.12330   0.00000  Uiso   1.00
C21    C     0.05733   0.78550   0.93229   0.00000  Uiso   1.00
C22    C     0.99436   0.78939   0.86693   0.00000  Uiso   1.00
C23    C     0.89418   0.74771   0.86322   0.00000  Uiso   1.00
H24    H     0.07553   0.71133   0.10430   0.00000  Uiso   1.00
H25    H     0.23274   0.62029   0.08247   0.00000  Uiso   1.00
H26    H     0.09011   0.83563   0.21278   0.00000  Uiso   1.00
H27    H     0.89372   0.66583   0.03435   0.00000  Uiso   1.00
H28    H     0.42285   0.53875   0.03202   0.00000  Uiso   1.00
H29    H     0.12207   0.99281   0.30679   0.00000  Uiso   1.00
H30    H     0.70794   0.63477   0.93052   0.00000  Uiso   1.00
H31    H     0.19723   0.86073   0.90191   0.00000  Uiso   1.00
H32    H     0.36112   0.77787   0.86896   0.00000  Uiso   1.00
H33    H     0.21849   0.99322   0.99928   0.00000  Uiso   1.00
H34    H     0.02210   0.82342   0.82085   0.00000  Uiso   1.00
H35    H     0.52705   0.66666   0.85873   0.00000  Uiso   1.00
H36    H     0.22626   0.12072   0.13350   0.00000  Uiso   1.00
H37    H     0.81214   0.76268   0.75724   0.00000  Uiso   1.00
O38    O     0.58058   0.54552   0.92737   0.00000  Uiso   1.00
O39    O     0.18595   0.14124   0.28786   0.00000  Uiso   1.00
O40    O     0.64263   0.67149   0.79421   0.00000  Uiso   1.00
N41    N     0.42487   0.58021   0.99574   0.00000  Uiso   1.00
N42    N     0.14367   0.00473   0.25264   0.00000  Uiso   1.00
N43    N     0.75648   0.67001   0.90088   0.00000  Uiso   1.00
N44    N     0.48094   0.64904   0.90250   0.00000  Uiso   1.00
N45    N     0.19974   0.07356   0.15940   0.00000  Uiso   1.00
N46    N     0.81255   0.73884   0.80763   0.00000  Uiso   1.00
C47    C     0.20932   0.83083   0.59933   0.00000  Uiso   1.00
C48    C     0.10790   0.84820   0.55875   0.00000  Uiso   1.00
C49    C     0.05388   0.91666   0.57666   0.00000  Uiso   1.00
C50    C     0.96263   0.92119   0.53275   0.00000  Uiso   1.00
C51    C     0.81057   0.95754   0.47883   0.00000  Uiso   1.00
C52    C     0.18302   0.75205   0.63022   0.00000  Uiso   1.00
C53    C     0.19218   0.73967   0.70824   0.00000  Uiso   1.00
C54    C     0.16417   0.66325   0.72449   0.00000  Uiso   1.00
C55    C     0.12882   0.55031   0.78153   0.00000  Uiso   1.00
C56    C     0.29180   0.81430   0.53375   0.00000  Uiso   1.00
C57    C     0.39244   0.85425   0.53066   0.00000  Uiso   1.00
C58    C     0.45603   0.83023   0.46570   0.00000  Uiso   1.00
C59    C     0.58957   0.81395   0.37296   0.00000  Uiso   1.00
C60    C     0.14331   0.71711   0.48949   0.00000  Uiso   1.00
C61    C     0.07204   0.78643   0.49909   0.00000  Uiso   1.00
C62    C     0.98085   0.79085   0.45513   0.00000  Uiso   1.00
C63    C     0.92671   0.85931   0.47298   0.00000  Uiso   1.00
C64    C     0.14716   0.69028   0.57057   0.00000  Uiso   1.00
C65    C     0.11915   0.61386   0.58670   0.00000  Uiso   1.00
C66    C     0.12825   0.60137   0.66472   0.00000  Uiso   1.00
C67    C     0.25595   0.75254   0.47409   0.00000  Uiso   1.00
C68    C     0.31940   0.72844   0.40913   0.00000  Uiso   1.00
C69    C     0.42011   0.76835   0.40593   0.00000  Uiso   1.00
H70    H     0.23724   0.87891   0.64579   0.00000  Uiso   1.00
H71    H     0.08165   0.96445   0.62284   0.00000  Uiso   1.00
H72    H     0.21994   0.78748   0.75439   0.00000  Uiso   1.00
H73    H     0.42016   0.90205   0.57684   0.00000  Uiso   1.00
H74    H     0.89332   0.03203   0.57112   0.00000  Uiso   1.00
H75    H     0.18495   0.65888   0.84849   0.00000  Uiso   1.00
H76    H     0.60716   0.90046   0.47409   0.00000  Uiso   1.00
H77    H     0.11539   0.66902   0.44304   0.00000  Uiso   1.00
H78    H     0.95312   0.74304   0.40896   0.00000  Uiso   1.00
H79    H     0.09141   0.56608   0.54052   0.00000  Uiso   1.00
H80    H     0.29163   0.68064   0.36297   0.00000  Uiso   1.00
H81    H     0.78900   0.85233   0.39753   0.00000  Uiso   1.00
H82    H     0.08063   0.47917   0.67490   0.00000  Uiso   1.00
H83    H     0.50283   0.72076   0.30050   0.00000  Uiso   1.00
O84    O     0.73659   0.99465   0.46559   0.00000  Uiso   1.00
O85    O     0.11921   0.50508   0.82949   0.00000  Uiso   1.00
O86    O     0.67313   0.82204   0.33828   0.00000  Uiso   1.00
N87    N     0.89105   0.97958   0.53493   0.00000  Uiso   1.00
N88    N     0.16369   0.63071   0.79426   0.00000  Uiso   1.00
N89    N     0.55843   0.85656   0.44424   0.00000  Uiso   1.00
N90    N     0.83492   0.88289   0.44152   0.00000  Uiso   1.00
N91    N     0.10755   0.53402   0.70085   0.00000  Uiso   1.00
N92    N     0.50229   0.75987   0.35083   0.00000  Uiso   1.00
C93    C     0.90453   0.25572   0.94270   0.00000  Uiso   1.00
C94    C     0.80300   0.28490   0.98350   0.00000  Uiso   1.00
C95    C     0.74803   0.34742   0.96538   0.00000  Uiso   1.00
C96    C     0.65684   0.36486   0.00953   0.00000  Uiso   1.00
C97    C     0.50447   0.41677   0.06370   0.00000  Uiso   1.00
C98    C     0.87905   0.16742   0.91240   0.00000  Uiso   1.00
C99    C     0.88803   0.13116   0.83450   0.00000  Uiso   1.00
C100   C     0.86088   0.04970   0.81882   0.00000  Uiso   1.00
C101   C     0.82664   0.91922   0.76262   0.00000  Uiso   1.00
C102   C     0.98756   0.25987   0.00803   0.00000  Uiso   1.00
C103   C     0.08779   0.30132   0.01054   0.00000  Uiso   1.00
C104   C     0.15200   0.29768   0.07537   0.00000  Uiso   1.00
C105   C     0.28625   0.31074   0.16766   0.00000  Uiso   1.00
C106   C     0.84036   0.17553   0.05335   0.00000  Uiso   1.00
C107   C     0.76815   0.24134   0.04359   0.00000  Uiso   1.00
C108   C     0.67703   0.25870   0.08780   0.00000  Uiso   1.00
C109   C     0.62193   0.32123   0.06974   0.00000  Uiso   1.00
C110   C     0.84420   0.12386   0.97250   0.00000  Uiso   1.00
C111   C     0.81703   0.04244   0.95693   0.00000  Uiso   1.00
C112   C     0.82596   0.00606   0.87903   0.00000  Uiso   1.00
C113   C     0.95271   0.21632   0.06814   0.00000  Uiso   1.00
C114   C     0.01679   0.21261   0.13297   0.00000  Uiso   1.00
C115   C     0.11709   0.25405   0.13557   0.00000  Uiso   1.00
H116   H     0.93167   0.28962   0.89591   0.00000  Uiso   1.00
H117   H     0.77502   0.38110   0.91885   0.00000  Uiso   1.00
H118   H     0.91501   0.16488   0.78801   0.00000  Uiso   1.00
H119   H     0.11473   0.33502   0.96402   0.00000  Uiso   1.00
H120   H     0.58596   0.46330   0.97078   0.00000  Uiso   1.00
H121   H     0.88117   0.00738   0.69489   0.00000  Uiso   1.00
H122   H     0.30233   0.36615   0.06604   0.00000  Uiso   1.00
H123   H     0.81323   0.14161   0.10014   0.00000  Uiso   1.00
H124   H     0.65008   0.22498   0.13430   0.00000  Uiso   1.00
H125   H     0.79007   0.00875   0.00345   0.00000  Uiso   1.00
H126   H     0.98979   0.17889   0.17946   0.00000  Uiso   1.00
H127   H     0.48455   0.33658   0.14564   0.00000  Uiso   1.00
H128   H     0.77977   0.88065   0.86975   0.00000  Uiso   1.00
H129   H     0.20092   0.23943   0.24090   0.00000  Uiso   1.00
O130   O     0.43004   0.45743   0.07697   0.00000  Uiso   1.00
O131   O     0.81738   0.85928   0.71502   0.00000  Uiso   1.00
O132   O     0.36991   0.32998   0.20197   0.00000  Uiso   1.00
N133   N     0.58449   0.42205   0.00726   0.00000  Uiso   1.00
N134   N     0.86048   0.99579   0.74931   0.00000  Uiso   1.00
N135   N     0.25424   0.33119   0.09630   0.00000  Uiso   1.00
N136   N     0.52992   0.35386   0.10135   0.00000  Uiso   1.00
N137   N     0.80592   0.92760   0.84340   0.00000  Uiso   1.00
N138   N     0.19967   0.26301   0.19039   0.00000  Uiso   1.00
C139   C     0.40367   0.28444   0.49251   0.00000  Uiso   1.00
C140   C     0.50449   0.26659   0.53353   0.00000  Uiso   1.00
C141   C     0.55783   0.19777   0.51600   0.00000  Uiso   1.00
C142   C     0.64862   0.19284   0.56027   0.00000  Uiso   1.00
C143   C     0.79972   0.15575   0.61486   0.00000  Uiso   1.00
C144   C     0.43110   0.36302   0.46149   0.00000  Uiso   1.00
C145   C     0.42272   0.37527   0.38338   0.00000  Uiso   1.00
C146   C     0.45171   0.45151   0.36701   0.00000  Uiso   1.00
C147   C     0.48878   0.56414   0.30976   0.00000  Uiso   1.00
C148   C     0.32091   0.30159   0.55777   0.00000  Uiso   1.00
C149   C     0.21986   0.26220   0.56061   0.00000  Uiso   1.00
C150   C     0.15606   0.28673   0.62529   0.00000  Uiso   1.00
C151   C     0.02205   0.30398   0.71754   0.00000  Uiso   1.00
C152   C     0.47004   0.39807   0.60233   0.00000  Uiso   1.00
C153   C     0.54054   0.32832   0.59318   0.00000  Uiso   1.00
C154   C     0.63127   0.32349   0.63750   0.00000  Uiso   1.00
C155   C     0.68474   0.25467   0.62003   0.00000  Uiso   1.00
C156   C     0.46715   0.42474   0.52113   0.00000  Uiso   1.00
C157   C     0.49615   0.50098   0.50488   0.00000  Uiso   1.00
C158   C     0.48782   0.51334   0.42676   0.00000  Uiso   1.00
C159   C     0.35696   0.36330   0.61742   0.00000  Uiso   1.00
C160   C     0.29330   0.38791   0.68211   0.00000  Uiso   1.00
C161   C     0.19218   0.34856   0.68505   0.00000  Uiso   1.00
H162   H     0.37560   0.23640   0.44607   0.00000  Uiso   1.00
H163   H     0.52991   0.15002   0.46982   0.00000  Uiso   1.00
H164   H     0.39481   0.32750   0.33723   0.00000  Uiso   1.00
H165   H     0.19199   0.21444   0.51444   0.00000  Uiso   1.00
H166   H     0.71692   0.08150   0.52245   0.00000  Uiso   1.00
H167   H     0.43200   0.45571   0.24287   0.00000  Uiso   1.00
H168   H     0.00432   0.21731   0.61654   0.00000  Uiso   1.00
H169   H     0.49811   0.44612   0.64877   0.00000  Uiso   1.00
H170   H     0.65915   0.37126   0.68365   0.00000  Uiso   1.00
H171   H     0.52404   0.54873   0.55105   0.00000  Uiso   1.00
H172   H     0.32123   0.43567   0.72826   0.00000  Uiso   1.00
H173   H     0.82182   0.26106   0.69599   0.00000  Uiso   1.00
H174   H     0.53689   0.63528   0.41641   0.00000  Uiso   1.00
H175   H     0.10921   0.39687   0.79009   0.00000  Uiso   1.00
O176   O     0.87311   0.11825   0.62849   0.00000  Uiso   1.00
O177   O     0.49929   0.60921   0.26170   0.00000  Uiso   1.00
O178   O     0.93819   0.29643   0.75195   0.00000  Uiso   1.00
N179   N     0.71949   0.13402   0.55852   0.00000  Uiso   1.00
N180   N     0.45313   0.48389   0.29712   0.00000  Uiso   1.00
N181   N     0.05327   0.26102   0.64646   0.00000  Uiso   1.00
N182   N     0.77594   0.23064   0.65190   0.00000  Uiso   1.00
N183   N     0.50957   0.58051   0.39051   0.00000  Uiso   1.00
N184   N     0.10971   0.35764   0.73985   0.00000  Uiso   1.00
