data_job_06986
_audit_creation_date              2018-12-19
_audit_creation_method            'Materials Studio'
_symmetry_space_group_name_H-M    'P1'
_symmetry_Int_Tables_number       1
_symmetry_cell_setting            triclinic
loop_
_symmetry_equiv_pos_as_xyz
  x,y,z
_cell_length_a                    21.2678
_cell_length_b                    22.8232
_cell_length_c                    24.0191
_cell_angle_alpha                 97.0564
_cell_angle_beta                  104.1410
_cell_angle_gamma                 105.6570
loop_
_atom_site_label
_atom_site_type_symbol
_atom_site_fract_x
_atom_site_fract_y
_atom_site_fract_z
_atom_site_U_iso_or_equiv
_atom_site_adp_type
_atom_site_occupancy
C1     C     0.98555   0.80301   0.20088   0.00000  Uiso   1.00
C2     C     0.02566   0.85952   0.18225   0.00000  Uiso   1.00
C3     C     0.07012   0.91405   0.21968   0.00000  Uiso   1.00
C4     C     0.10186   0.96031   0.19404   0.00000  Uiso   1.00
C5     C     0.16599   0.04929   0.17438   0.00000  Uiso   1.00
C6     C     0.91070   0.79123   0.16840   0.00000  Uiso   1.00
C7     C     0.85851   0.78834   0.19418   0.00000  Uiso   1.00
C8     C     0.79349   0.77710   0.15688   0.00000  Uiso   1.00
C9     C     0.67914   0.76001   0.11570   0.00000  Uiso   1.00
C10    C     0.00473   0.74813   0.17518   0.00000  Uiso   1.00
C11    C     0.03159   0.70900   0.20666   0.00000  Uiso   1.00
C12    C     0.04571   0.66147   0.17507   0.00000  Uiso   1.00
C13    C     0.07736   0.57746   0.14443   0.00000  Uiso   1.00
C14    C     0.96286   0.78819   0.08880   0.00000  Uiso   1.00
C15    C     0.01333   0.85146   0.12137   0.00000  Uiso   1.00
C16    C     0.04502   0.89765   0.09568   0.00000  Uiso   1.00
C17    C     0.08952   0.95224   0.13306   0.00000  Uiso   1.00
C18    C     0.89838   0.78318   0.10752   0.00000  Uiso   1.00
C19    C     0.83342   0.77194   0.07018   0.00000  Uiso   1.00
C20    C     0.78114   0.76904   0.09589   0.00000  Uiso   1.00
C21    C     0.99242   0.74008   0.11430   0.00000  Uiso   1.00
C22    C     0.00649   0.69260   0.08266   0.00000  Uiso   1.00
C23    C     0.03337   0.65340   0.11408   0.00000  Uiso   1.00
H24    H     0.99514   0.80928   0.24827   0.00000  Uiso   1.00
H25    H     0.07964   0.92027   0.26679   0.00000  Uiso   1.00
H26    H     0.86806   0.79457   0.24129   0.00000  Uiso   1.00
H27    H     0.04112   0.71524   0.25377   0.00000  Uiso   1.00
H28    H     0.16787   0.03978   0.26046   0.00000  Uiso   1.00
H29    H     0.72175   0.77471   0.20670   0.00000  Uiso   1.00
H30    H     0.08666   0.60743   0.23302   0.00000  Uiso   1.00
H31    H     0.95327   0.78192   0.04140   0.00000  Uiso   1.00
H32    H     0.03548   0.89140   0.04856   0.00000  Uiso   1.00
H33    H     0.82390   0.76570   0.02307   0.00000  Uiso   1.00
H34    H     0.99695   0.68638   0.03555   0.00000  Uiso   1.00
H35    H     0.13202   0.01635   0.08335   0.00000  Uiso   1.00
H36    H     0.68590   0.75128   0.02958   0.00000  Uiso   1.00
H37    H     0.05082   0.58400   0.05590   0.00000  Uiso   1.00
O38    O     0.20476   0.10059   0.18035   0.00000  Uiso   1.00
O39    O     0.61947   0.75282   0.10981   0.00000  Uiso   1.00
O40    O     0.09823   0.53336   0.14434   0.00000  Uiso   1.00
N41    N     0.14816   0.01923   0.21780   0.00000  Uiso   1.00
N42    N     0.73107   0.77142   0.16753   0.00000  Uiso   1.00
N43    N     0.07221   0.61502   0.19214   0.00000  Uiso   1.00
N44    N     0.12887   0.00663   0.12249   0.00000  Uiso   1.00
N45    N     0.71178   0.75881   0.07222   0.00000  Uiso   1.00
N46    N     0.05293   0.60241   0.09683   0.00000  Uiso   1.00
C47    C     0.51428   0.05784   0.97788   0.00000  Uiso   1.00
C48    C     0.50151   0.09517   0.02878   0.00000  Uiso   1.00
C49    C     0.54579   0.11702   0.08513   0.00000  Uiso   1.00
C50    C     0.52473   0.15023   0.12544   0.00000  Uiso   1.00
C51    C     0.51449   0.20652   0.20685   0.00000  Uiso   1.00
C52    C     0.45421   0.99802   0.95657   0.00000  Uiso   1.00
C53    C     0.45873   0.93817   0.95222   0.00000  Uiso   1.00
C54    C     0.39784   0.88960   0.93174   0.00000  Uiso   1.00
C55    C     0.31418   0.79504   0.90101   0.00000  Uiso   1.00
C56    C     0.50750   0.09411   0.92867   0.00000  Uiso   1.00
C57    C     0.55682   0.11506   0.90083   0.00000  Uiso   1.00
C58    C     0.54079   0.14738   0.85684   0.00000  Uiso   1.00
C59    C     0.53986   0.20203   0.78278   0.00000  Uiso   1.00
C60    C     0.39812   0.07797   0.94924   0.00000  Uiso   1.00
C61    C     0.43841   0.10611   0.01322   0.00000  Uiso   1.00
C62    C     0.41727   0.13930   0.05345   0.00000  Uiso   1.00
C63    C     0.46152   0.16119   0.10986   0.00000  Uiso   1.00
C64    C     0.39112   0.00895   0.94102   0.00000  Uiso   1.00
C65    C     0.33021   0.96045   0.92054   0.00000  Uiso   1.00
C66    C     0.33464   0.90055   0.91616   0.00000  Uiso   1.00
C67    C     0.44441   0.10505   0.91311   0.00000  Uiso   1.00
C68    C     0.42830   0.13734   0.86915   0.00000  Uiso   1.00
C69    C     0.47758   0.15834   0.84126   0.00000  Uiso   1.00
H70    H     0.56339   0.04932   0.98999   0.00000  Uiso   1.00
H71    H     0.59461   0.10854   0.09716   0.00000  Uiso   1.00
H72    H     0.50756   0.92973   0.96426   0.00000  Uiso   1.00
H73    H     0.60564   0.10659   0.91288   0.00000  Uiso   1.00
H74    H     0.60139   0.17901   0.20912   0.00000  Uiso   1.00
H75    H     0.41784   0.80196   0.92887   0.00000  Uiso   1.00
H76    H     0.62465   0.17491   0.82054   0.00000  Uiso   1.00
H77    H     0.34899   0.08648   0.93713   0.00000  Uiso   1.00
H78    H     0.36845   0.14775   0.04140   0.00000  Uiso   1.00
H79    H     0.28140   0.96893   0.90850   0.00000  Uiso   1.00
H80    H     0.37947   0.14580   0.85713   0.00000  Uiso   1.00
H81    H     0.41782   0.21083   0.16387   0.00000  Uiso   1.00
H82    H     0.23427   0.83378   0.88362   0.00000  Uiso   1.00
H83    H     0.44108   0.20673   0.77528   0.00000  Uiso   1.00
O84    O     0.52626   0.23453   0.25604   0.00000  Uiso   1.00
O85    O     0.28546   0.73986   0.88836   0.00000  Uiso   1.00
O86    O     0.55678   0.22917   0.74623   0.00000  Uiso   1.00
N87    N     0.55552   0.17810   0.18416   0.00000  Uiso   1.00
N88    N     0.38392   0.82558   0.92215   0.00000  Uiso   1.00
N89    N     0.57726   0.17425   0.82085   0.00000  Uiso   1.00
N90    N     0.45675   0.19522   0.15981   0.00000  Uiso   1.00
N91    N     0.28514   0.84271   0.89780   0.00000  Uiso   1.00
N92    N     0.47848   0.19137   0.79650   0.00000  Uiso   1.00
C93    C     0.96700   0.29557   0.14732   0.00000  Uiso   1.00
C94    C     0.02999   0.27754   0.17448   0.00000  Uiso   1.00
C95    C     0.08672   0.31486   0.21931   0.00000  Uiso   1.00
C96    C     0.13905   0.28986   0.23804   0.00000  Uiso   1.00
C97    C     0.23752   0.27104   0.28402   0.00000  Uiso   1.00
C98    C     0.95924   0.28724   0.08177   0.00000  Uiso   1.00
C99    C     0.95649   0.33270   0.04864   0.00000  Uiso   1.00
C100   C     0.94925   0.31585   0.98932   0.00000  Uiso   1.00
C101   C     0.93784   0.31207   0.89136   0.00000  Uiso   1.00
C102   C     0.90632   0.24601   0.15389   0.00000  Uiso   1.00
C103   C     0.85905   0.25681   0.18140   0.00000  Uiso   1.00
C104   C     0.80724   0.20525   0.18279   0.00000  Uiso   1.00
C105   C     0.71365   0.13746   0.19681   0.00000  Uiso   1.00
C106   C     0.95903   0.18480   0.10088   0.00000  Uiso   1.00
C107   C     0.02566   0.21738   0.14925   0.00000  Uiso   1.00
C108   C     0.07791   0.19231   0.16792   0.00000  Uiso   1.00
C109   C     0.13471   0.22959   0.21277   0.00000  Uiso   1.00
C110   C     0.95491   0.22708   0.05654   0.00000  Uiso   1.00
C111   C     0.94767   0.21015   0.99725   0.00000  Uiso   1.00
C112   C     0.94491   0.25558   0.96405   0.00000  Uiso   1.00
C113   C     0.90199   0.18585   0.12866   0.00000  Uiso   1.00
C114   C     0.85023   0.13426   0.13001   0.00000  Uiso   1.00
C115   C     0.80290   0.14498   0.15752   0.00000  Uiso   1.00
H116   H     0.97037   0.34241   0.16696   0.00000  Uiso   1.00
H117   H     0.09006   0.36142   0.23882   0.00000  Uiso   1.00
H118   H     0.95984   0.37926   0.06817   0.00000  Uiso   1.00
H119   H     0.86242   0.30338   0.20091   0.00000  Uiso   1.00
H120   H     0.22085   0.35598   0.30734   0.00000  Uiso   1.00
H121   H     0.94625   0.39358   0.94753   0.00000  Uiso   1.00
H122   H     0.74082   0.23358   0.22743   0.00000  Uiso   1.00
H123   H     0.95566   0.13796   0.08124   0.00000  Uiso   1.00
H124   H     0.07454   0.14575   0.14839   0.00000  Uiso   1.00
H125   H     0.94432   0.16359   0.97775   0.00000  Uiso   1.00
H126   H     0.84690   0.08771   0.11048   0.00000  Uiso   1.00
H127   H     0.20826   0.18094   0.23395   0.00000  Uiso   1.00
H128   H     0.93365   0.21854   0.87413   0.00000  Uiso   1.00
H129   H     0.72822   0.05853   0.15404   0.00000  Uiso   1.00
O130   O     0.29304   0.27728   0.31635   0.00000  Uiso   1.00
O131   O     0.93275   0.32661   0.84430   0.00000  Uiso   1.00
O132   O     0.66323   0.11669   0.21152   0.00000  Uiso   1.00
N133   N     0.20157   0.31371   0.28086   0.00000  Uiso   1.00
N134   N     0.94484   0.34887   0.94446   0.00000  Uiso   1.00
N135   N     0.75277   0.19928   0.20613   0.00000  Uiso   1.00
N136   N     0.19479   0.21952   0.24137   0.00000  Uiso   1.00
N137   N     0.93807   0.25468   0.90497   0.00000  Uiso   1.00
N138   N     0.74599   0.10509   0.16664   0.00000  Uiso   1.00
C139   C     0.48682   0.66706   0.34619   0.00000  Uiso   1.00
C140   C     0.52279   0.64356   0.39770   0.00000  Uiso   1.00
C141   C     0.56827   0.68040   0.44994   0.00000  Uiso   1.00
C142   C     0.59569   0.65001   0.49163   0.00000  Uiso   1.00
C143   C     0.65418   0.62339   0.57318   0.00000  Uiso   1.00
C144   C     0.41063   0.63542   0.33486   0.00000  Uiso   1.00
C145   C     0.36181   0.66542   0.33426   0.00000  Uiso   1.00
C146   C     0.29481   0.62818   0.32304   0.00000  Uiso   1.00
C147   C     0.17917   0.58893   0.30699   0.00000  Uiso   1.00
C148   C     0.50498   0.64031   0.29309   0.00000  Uiso   1.00
C149   C     0.53546   0.67441   0.25736   0.00000  Uiso   1.00
C150   C     0.54788   0.64128   0.21097   0.00000  Uiso   1.00
C151   C     0.57872   0.60961   0.13007   0.00000  Uiso   1.00
C152   C     0.45465   0.54757   0.32732   0.00000  Uiso   1.00
C153   C     0.50532   0.57866   0.38745   0.00000  Uiso   1.00
C154   C     0.53268   0.54820   0.42907   0.00000  Uiso   1.00
C155   C     0.57819   0.58499   0.48137   0.00000  Uiso   1.00
C156   C     0.39316   0.57053   0.32461   0.00000  Uiso   1.00
C157   C     0.32622   0.53323   0.31339   0.00000  Uiso   1.00
C158   C     0.27731   0.56316   0.31278   0.00000  Uiso   1.00
C159   C     0.48751   0.57541   0.28284   0.00000  Uiso   1.00
C160   C     0.49988   0.54222   0.23649   0.00000  Uiso   1.00
C161   C     0.53038   0.57626   0.20071   0.00000  Uiso   1.00
H162   H     0.50042   0.71758   0.35417   0.00000  Uiso   1.00
H163   H     0.58177   0.73062   0.45786   0.00000  Uiso   1.00
H164   H     0.37534   0.71564   0.34219   0.00000  Uiso   1.00
H165   H     0.54898   0.72463   0.26531   0.00000  Uiso   1.00
H166   H     0.66424   0.71645   0.56831   0.00000  Uiso   1.00
H167   H     0.22898   0.68488   0.32439   0.00000  Uiso   1.00
H168   H     0.59511   0.70383   0.16227   0.00000  Uiso   1.00
H169   H     0.44105   0.49705   0.31934   0.00000  Uiso   1.00
H170   H     0.51915   0.49798   0.42113   0.00000  Uiso   1.00
H171   H     0.31272   0.48301   0.30546   0.00000  Uiso   1.00
H172   H     0.48635   0.49200   0.22858   0.00000  Uiso   1.00
H173   H     0.61342   0.52764   0.53850   0.00000  Uiso   1.00
H174   H     0.17815   0.49606   0.29457   0.00000  Uiso   1.00
H175   H     0.54428   0.51501   0.13246   0.00000  Uiso   1.00
O176   O     0.69126   0.62664   0.62099   0.00000  Uiso   1.00
O177   O     0.12021   0.58522   0.30097   0.00000  Uiso   1.00
O178   O     0.60057   0.61008   0.08828   0.00000  Uiso   1.00
N179   N     0.64157   0.67189   0.54732   0.00000  Uiso   1.00
N180   N     0.23463   0.64237   0.31928   0.00000  Uiso   1.00
N181   N     0.57692   0.66008   0.16770   0.00000  Uiso   1.00
N182   N     0.61422   0.57029   0.53128   0.00000  Uiso   1.00
N183   N     0.20728   0.54077   0.30324   0.00000  Uiso   1.00
N184   N     0.54957   0.55848   0.15166   0.00000  Uiso   1.00
C185   C     0.86768   0.39224   0.64771   0.00000  Uiso   1.00
C186   C     0.86273   0.45756   0.66174   0.00000  Uiso   1.00
C187   C     0.91698   0.51075   0.69012   0.00000  Uiso   1.00
C188   C     0.90186   0.56606   0.69882   0.00000  Uiso   1.00
C189   C     0.90437   0.66718   0.72349   0.00000  Uiso   1.00
C190   C     0.83606   0.36989   0.58163   0.00000  Uiso   1.00
C191   C     0.86787   0.34937   0.54266   0.00000  Uiso   1.00
C192   C     0.83030   0.33088   0.48393   0.00000  Uiso   1.00
C193   C     0.79137   0.29585   0.38423   0.00000  Uiso   1.00
C194   C     0.81976   0.35177   0.67574   0.00000  Uiso   1.00
C195   C     0.83787   0.31600   0.71588   0.00000  Uiso   1.00
C196   C     0.78657   0.28224   0.73637   0.00000  Uiso   1.00
C197   C     0.72234   0.21909   0.78278   0.00000  Uiso   1.00
C198   C     0.74438   0.39588   0.61269   0.00000  Uiso   1.00
C199   C     0.79576   0.45953   0.64272   0.00000  Uiso   1.00
C200   C     0.78056   0.51478   0.65139   0.00000  Uiso   1.00
C201   C     0.83477   0.56804   0.67977   0.00000  Uiso   1.00
C202   C     0.76909   0.37187   0.56262   0.00000  Uiso   1.00
C203   C     0.73146   0.35340   0.50393   0.00000  Uiso   1.00
C204   C     0.76320   0.33286   0.46488   0.00000  Uiso   1.00
C205   C     0.75279   0.35375   0.65672   0.00000  Uiso   1.00
C206   C     0.70145   0.32003   0.67715   0.00000  Uiso   1.00
C207   C     0.71948   0.28422   0.71731   0.00000  Uiso   1.00
H208   H     0.91982   0.39070   0.66251   0.00000  Uiso   1.00
H209   H     0.96880   0.50921   0.70483   0.00000  Uiso   1.00
H210   H     0.91969   0.34784   0.55739   0.00000  Uiso   1.00
H211   H     0.88970   0.31449   0.73059   0.00000  Uiso   1.00
H212   H     0.99357   0.64146   0.74334   0.00000  Uiso   1.00
H213   H     0.89002   0.30120   0.43247   0.00000  Uiso   1.00
H214   H     0.82677   0.23086   0.79768   0.00000  Uiso   1.00
H215   H     0.69224   0.39742   0.59789   0.00000  Uiso   1.00
H216   H     0.72873   0.51629   0.63666   0.00000  Uiso   1.00
H217   H     0.67963   0.35493   0.48923   0.00000  Uiso   1.00
H218   H     0.64963   0.32157   0.66242   0.00000  Uiso   1.00
H219   H     0.79872   0.64721   0.68801   0.00000  Uiso   1.00
H220   H     0.69518   0.30695   0.37714   0.00000  Uiso   1.00
H221   H     0.63192   0.23661   0.74235   0.00000  Uiso   1.00
O222   O     0.92425   0.72242   0.74233   0.00000  Uiso   1.00
O223   O     0.78841   0.27599   0.33449   0.00000  Uiso   1.00
O224   O     0.70542   0.18371   0.81364   0.00000  Uiso   1.00
N225   N     0.94270   0.62650   0.72501   0.00000  Uiso   1.00
N226   N     0.84590   0.30838   0.43436   0.00000  Uiso   1.00
N227   N     0.78676   0.24261   0.77579   0.00000  Uiso   1.00
N228   N     0.83785   0.62959   0.69524   0.00000  Uiso   1.00
N229   N     0.74105   0.31148   0.40459   0.00000  Uiso   1.00
N230   N     0.68191   0.24570   0.74602   0.00000  Uiso   1.00
C231   C     0.40379   0.58130   0.78648   0.00000  Uiso   1.00
C232   C     0.44099   0.60801   0.74400   0.00000  Uiso   1.00
C233   C     0.50272   0.65533   0.75942   0.00000  Uiso   1.00
C234   C     0.52833   0.67315   0.71407   0.00000  Uiso   1.00
C235   C     0.59141   0.71895   0.65704   0.00000  Uiso   1.00
C236   C     0.39355   0.51168   0.77429   0.00000  Uiso   1.00
C237   C     0.41539   0.47800   0.81518   0.00000  Uiso   1.00
C238   C     0.40106   0.41473   0.79533   0.00000  Uiso   1.00
C239   C     0.39046   0.31097   0.78533   0.00000  Uiso   1.00
C240   C     0.33279   0.58822   0.76717   0.00000  Uiso   1.00
C241   C     0.30352   0.61889   0.80208   0.00000  Uiso   1.00
C242   C     0.23802   0.62004   0.77624   0.00000  Uiso   1.00
C243   C     0.13307   0.63512   0.75518   0.00000  Uiso   1.00
C244   C     0.33951   0.52881   0.67854   0.00000  Uiso   1.00
C245   C     0.40607   0.57950   0.68537   0.00000  Uiso   1.00
C246   C     0.43159   0.59726   0.63999   0.00000  Uiso   1.00
C247   C     0.49335   0.64459   0.65533   0.00000  Uiso   1.00
C248   C     0.35864   0.48317   0.71567   0.00000  Uiso   1.00
C249   C     0.34427   0.41993   0.69575   0.00000  Uiso   1.00
C250   C     0.36608   0.38617   0.73660   0.00000  Uiso   1.00
C251   C     0.29787   0.55971   0.70854   0.00000  Uiso   1.00
C252   C     0.23240   0.56082   0.68265   0.00000  Uiso   1.00
C253   C     0.20304   0.59148   0.71750   0.00000  Uiso   1.00
H254   H     0.43098   0.60349   0.83213   0.00000  Uiso   1.00
H255   H     0.52973   0.67738   0.80480   0.00000  Uiso   1.00
H256   H     0.44241   0.50008   0.86055   0.00000  Uiso   1.00
H257   H     0.33056   0.64094   0.84745   0.00000  Uiso   1.00
H258   H     0.62382   0.74671   0.74864   0.00000  Uiso   1.00
H259   H     0.43968   0.37286   0.86621   0.00000  Uiso   1.00
H260   H     0.20382   0.66990   0.83858   0.00000  Uiso   1.00
H261   H     0.31232   0.50661   0.63289   0.00000  Uiso   1.00
H262   H     0.40456   0.57518   0.59462   0.00000  Uiso   1.00
H263   H     0.31724   0.39788   0.65038   0.00000  Uiso   1.00
H264   H     0.20539   0.53875   0.63727   0.00000  Uiso   1.00
H265   H     0.52223   0.66376   0.57805   0.00000  Uiso   1.00
H266   H     0.33809   0.28991   0.69562   0.00000  Uiso   1.00
H267   H     0.10224   0.58695   0.66799   0.00000  Uiso   1.00
O268   O     0.63586   0.75208   0.64177   0.00000  Uiso   1.00
O269   O     0.39427   0.26161   0.79602   0.00000  Uiso   1.00
O270   O     0.08483   0.65132   0.75976   0.00000  Uiso   1.00
N271   N     0.58725   0.71779   0.71374   0.00000  Uiso   1.00
N272   N     0.41510   0.36826   0.82366   0.00000  Uiso   1.00
N273   N     0.19458   0.64595   0.79783   0.00000  Uiso   1.00
N274   N     0.53258   0.67315   0.62195   0.00000  Uiso   1.00
N275   N     0.36044   0.32363   0.73187   0.00000  Uiso   1.00
N276   N     0.13992   0.60132   0.70604   0.00000  Uiso   1.00
C277   C     0.15295   0.25479   0.92326   0.00000  Uiso   1.00
C278   C     0.11699   0.20146   0.94819   0.00000  Uiso   1.00
C279   C     0.06634   0.14741   0.91573   0.00000  Uiso   1.00
C280   C     0.03991   0.10423   0.94673   0.00000  Uiso   1.00
C281   C     0.98054   0.01980   0.97612   0.00000  Uiso   1.00
C282   C     0.22901   0.26328   0.94597   0.00000  Uiso   1.00
C283   C     0.27254   0.26123   0.91164   0.00000  Uiso   1.00
C284   C     0.34040   0.27010   0.94078   0.00000  Uiso   1.00
C285   C     0.45495   0.28170   0.96672   0.00000  Uiso   1.00
C286   C     0.14240   0.31294   0.95290   0.00000  Uiso   1.00
C287   C     0.11313   0.35265   0.92441   0.00000  Uiso   1.00
C288   C     0.10809   0.40334   0.95939   0.00000  Uiso   1.00
C289   C     0.08817   0.49204   0.99610   0.00000  Uiso   1.00
C290   C     0.19607   0.27421   0.03604   0.00000  Uiso   1.00
C291   C     0.14042   0.21201   0.00945   0.00000  Uiso   1.00
C292   C     0.11405   0.16890   0.04051   0.00000  Uiso   1.00
C293   C     0.06337   0.11480   0.00810   0.00000  Uiso   1.00
C294   C     0.25243   0.27383   0.00723   0.00000  Uiso   1.00
C295   C     0.32024   0.28271   0.03642   0.00000  Uiso   1.00
C296   C     0.36387   0.28067   0.00215   0.00000  Uiso   1.00
C297   C     0.16582   0.32349   0.01416   0.00000  Uiso   1.00
C298   C     0.16083   0.37413   0.04919   0.00000  Uiso   1.00
C299   C     0.13156   0.41391   0.02076   0.00000  Uiso   1.00
H300   H     0.13472   0.24658   0.87557   0.00000  Uiso   1.00
H301   H     0.04824   0.13926   0.86832   0.00000  Uiso   1.00
H302   H     0.25440   0.25307   0.86423   0.00000  Uiso   1.00
H303   H     0.09501   0.34447   0.87700   0.00000  Uiso   1.00
H304   H     0.96270   0.02493   0.88730   0.00000  Uiso   1.00
H305   H     0.39741   0.26491   0.87869   0.00000  Uiso   1.00
H306   H     0.06131   0.45765   0.90561   0.00000  Uiso   1.00
H307   H     0.21431   0.28243   0.08374   0.00000  Uiso   1.00
H308   H     0.13219   0.17708   0.08792   0.00000  Uiso   1.00
H309   H     0.33835   0.29088   0.08383   0.00000  Uiso   1.00
H310   H     0.17896   0.38228   0.09660   0.00000  Uiso   1.00
H311   H     0.03084   0.05562   0.06553   0.00000  Uiso   1.00
H312   H     0.46555   0.29560   0.05692   0.00000  Uiso   1.00
H313   H     0.12945   0.48834   0.08384   0.00000  Uiso   1.00
O314   O     0.94133   0.97031   0.97541   0.00000  Uiso   1.00
O315   O     0.51166   0.28517   0.96411   0.00000  Uiso   1.00
O316   O     0.07070   0.53804   0.99943   0.00000  Uiso   1.00
N317   N     0.99000   0.04661   0.92868   0.00000  Uiso   1.00
N318   N     0.39642   0.27097   0.92062   0.00000  Uiso   1.00
N319   N     0.08222   0.45118   0.94579   0.00000  Uiso   1.00
N320   N     0.02666   0.06313   0.02458   0.00000  Uiso   1.00
N321   N     0.43309   0.28749   0.01652   0.00000  Uiso   1.00
N322   N     0.11888   0.46769   0.04170   0.00000  Uiso   1.00
C323   C     0.86802   0.02239   0.27510   0.00000  Uiso   1.00
C324   C     0.86268   0.99609   0.21201   0.00000  Uiso   1.00
C325   C     0.80315   0.96027   0.16924   0.00000  Uiso   1.00
C326   C     0.80897   0.94070   0.11419   0.00000  Uiso   1.00
C327   C     0.79107   0.89749   0.01801   0.00000  Uiso   1.00
C328   C     0.90111   0.09241   0.28464   0.00000  Uiso   1.00
C329   C     0.87390   0.13758   0.30295   0.00000  Uiso   1.00
C330   C     0.91207   0.19909   0.30905   0.00000  Uiso   1.00
C331   C     0.95386   0.30542   0.32567   0.00000  Uiso   1.00
C332   C     0.91990   0.99852   0.31377   0.00000  Uiso   1.00
C333   C     0.90849   0.96476   0.35659   0.00000  Uiso   1.00
C334   C     0.96249   0.94724   0.38724   0.00000  Uiso   1.00
C335   C     0.03344   0.90779   0.44910   0.00000  Uiso   1.00
C336   C     0.98421   0.05132   0.25339   0.00000  Uiso   1.00
C337   C     0.92579   0.01180   0.20022   0.00000  Uiso   1.00
C338   C     0.93170   0.99228   0.14522   0.00000  Uiso   1.00
C339   C     0.87219   0.95644   0.10238   0.00000  Uiso   1.00
C340   C     0.96422   0.10812   0.27285   0.00000  Uiso   1.00
C341   C     0.00245   0.16958   0.27893   0.00000  Uiso   1.00
C342   C     0.97530   0.21483   0.29724   0.00000  Uiso   1.00
C343   C     0.98301   0.01423   0.30198   0.00000  Uiso   1.00
C344   C     0.03704   0.99676   0.33257   0.00000  Uiso   1.00
C345   C     0.02571   0.96298   0.37543   0.00000  Uiso   1.00
H346   H     0.81889   0.01017   0.28428   0.00000  Uiso   1.00
H347   H     0.75432   0.94813   0.17838   0.00000  Uiso   1.00
H348   H     0.82506   0.12540   0.31207   0.00000  Uiso   1.00
H349   H     0.85964   0.95261   0.36571   0.00000  Uiso   1.00
H350   H     0.71056   0.88630   0.05576   0.00000  Uiso   1.00
H351   H     0.85973   0.26009   0.33768   0.00000  Uiso   1.00
H352   H     0.93266   0.89572   0.45078   0.00000  Uiso   1.00
H353   H     0.03335   0.06356   0.24421   0.00000  Uiso   1.00
H354   H     0.98054   0.00445   0.13611   0.00000  Uiso   1.00
H355   H     0.05128   0.18172   0.26980   0.00000  Uiso   1.00
H356   H     0.08587   0.00893   0.32344   0.00000  Uiso   1.00
H357   H     0.89417   0.93201   0.02146   0.00000  Uiso   1.00
H358   H     0.04334   0.30581   0.30338   0.00000  Uiso   1.00
H359   H     0.11627   0.94144   0.41648   0.00000  Uiso   1.00
O360   O     0.76376   0.86932   0.96821   0.00000  Uiso   1.00
O361   O     0.95947   0.35973   0.33809   0.00000  Uiso   1.00
O362   O     0.05515   0.88168   0.48647   0.00000  Uiso   1.00
N363   N     0.76102   0.90516   0.06253   0.00000  Uiso   1.00
N364   N     0.90048   0.25463   0.32610   0.00000  Uiso   1.00
N365   N     0.96867   0.91399   0.43185   0.00000  Uiso   1.00
N366   N     0.85982   0.92975   0.04407   0.00000  Uiso   1.00
N367   N     0.99928   0.27923   0.30764   0.00000  Uiso   1.00
N368   N     0.06747   0.93859   0.41339   0.00000  Uiso   1.00
C369   C     0.28475   0.88023   0.08117   0.00000  Uiso   1.00
C370   C     0.25339   0.92341   0.04836   0.00000  Uiso   1.00
C371   C     0.20916   0.90701   0.99191   0.00000  Uiso   1.00
C372   C     0.18610   0.95323   0.96970   0.00000  Uiso   1.00
C373   C     0.13427   0.01107   0.91373   0.00000  Uiso   1.00
C374   C     0.26489   0.88248   0.13807   0.00000  Uiso   1.00
C375   C     0.23032   0.83167   0.15704   0.00000  Uiso   1.00
C376   C     0.21695   0.84345   0.21036   0.00000  Uiso   1.00
C377   C     0.18301   0.83775   0.29368   0.00000  Uiso   1.00
C378   C     0.36181   0.91105   0.09886   0.00000  Uiso   1.00
C379   C     0.40874   0.88425   0.08488   0.00000  Uiso   1.00
C380   C     0.47697   0.92007   0.10519   0.00000  Uiso   1.00
C381   C     0.59351   0.95872   0.12763   0.00000  Uiso   1.00
C382   C     0.32247   0.99149   0.14213   0.00000  Uiso   1.00
C383   C     0.27388   0.98384   0.08147   0.00000  Uiso   1.00
C384   C     0.25089   0.03010   0.05935   0.00000  Uiso   1.00
C385   C     0.20662   0.01377   0.00287   0.00000  Uiso   1.00
C386   C     0.28537   0.94291   0.17118   0.00000  Uiso   1.00
C387   C     0.27205   0.95476   0.22448   0.00000  Uiso   1.00
C388   C     0.23747   0.90399   0.24353   0.00000  Uiso   1.00
C389   C     0.38230   0.97148   0.13197   0.00000  Uiso   1.00
C390   C     0.45047   0.00734   0.15231   0.00000  Uiso   1.00
C391   C     0.49750   0.98061   0.13836   0.00000  Uiso   1.00
H392   H     0.26880   0.83319   0.05540   0.00000  Uiso   1.00
H393   H     0.19331   0.86024   0.96630   0.00000  Uiso   1.00
H394   H     0.21448   0.78492   0.13141   0.00000  Uiso   1.00
H395   H     0.39287   0.83749   0.05926   0.00000  Uiso   1.00
H396   H     0.11864   0.91687   0.88212   0.00000  Uiso   1.00
H397   H     0.16329   0.75805   0.23029   0.00000  Uiso   1.00
H398   H     0.53946   0.86890   0.07813   0.00000  Uiso   1.00
H399   H     0.33841   0.03853   0.16791   0.00000  Uiso   1.00
H400   H     0.26675   0.07686   0.08498   0.00000  Uiso   1.00
H401   H     0.28791   0.00153   0.25009   0.00000  Uiso   1.00
H402   H     0.46630   0.05410   0.17793   0.00000  Uiso   1.00
H403   H     0.17823   0.09269   0.97845   0.00000  Uiso   1.00
H404   H     0.22289   0.93386   0.32662   0.00000  Uiso   1.00
H405   H     0.59906   0.04472   0.17445   0.00000  Uiso   1.00
O406   O     0.10002   0.02628   0.87371   0.00000  Uiso   1.00
O407   O     0.15862   0.81791   0.33049   0.00000  Uiso   1.00
O408   O     0.65214   0.96334   0.13086   0.00000  Uiso   1.00
N409   N     0.14251   0.95300   0.91617   0.00000  Uiso   1.00
N410   N     0.18425   0.80451   0.24168   0.00000  Uiso   1.00
N411   N     0.53594   0.90814   0.09944   0.00000  Uiso   1.00
N412   N     0.17458   0.04760   0.96800   0.00000  Uiso   1.00
N413   N     0.21632   0.89911   0.29351   0.00000  Uiso   1.00
N414   N     0.56801   0.00274   0.15127   0.00000  Uiso   1.00
C415   C     0.65947   0.40491   0.82326   0.00000  Uiso   1.00
C416   C     0.61912   0.42686   0.77288   0.00000  Uiso   1.00
C417   C     0.57254   0.38893   0.72162   0.00000  Uiso   1.00
C418   C     0.54095   0.41798   0.68086   0.00000  Uiso   1.00
C419   C     0.47611   0.44222   0.60107   0.00000  Uiso   1.00
C420   C     0.73448   0.43917   0.83182   0.00000  Uiso   1.00
C421   C     0.78488   0.41159   0.83013   0.00000  Uiso   1.00
C422   C     0.85041   0.45100   0.83900   0.00000  Uiso   1.00
C423   C     0.96467   0.49437   0.85076   0.00000  Uiso   1.00
C424   C     0.64315   0.43028   0.87794   0.00000  Uiso   1.00
C425   C     0.61678   0.39523   0.91505   0.00000  Uiso   1.00
C426   C     0.60543   0.42716   0.96276   0.00000  Uiso   1.00
C427   C     0.57789   0.45672   0.04613   0.00000  Uiso   1.00
C428   C     0.68622   0.52395   0.84202   0.00000  Uiso   1.00
C429   C     0.63365   0.49152   0.78307   0.00000  Uiso   1.00
C430   C     0.60213   0.52063   0.74238   0.00000  Uiso   1.00
C431   C     0.55550   0.48275   0.69107   0.00000  Uiso   1.00
C432   C     0.74901   0.50383   0.84201   0.00000  Uiso   1.00
C433   C     0.81447   0.54329   0.85089   0.00000  Uiso   1.00
C434   C     0.86496   0.51578   0.84921   0.00000  Uiso   1.00
C435   C     0.65768   0.49494   0.88813   0.00000  Uiso   1.00
C436   C     0.64637   0.52693   0.93580   0.00000  Uiso   1.00
C437   C     0.61998   0.49193   0.97297   0.00000  Uiso   1.00
H438   H     0.64817   0.35457   0.81533   0.00000  Uiso   1.00
H439   H     0.56131   0.33889   0.71375   0.00000  Uiso   1.00
H440   H     0.77363   0.36155   0.82225   0.00000  Uiso   1.00
H441   H     0.60554   0.34520   0.90715   0.00000  Uiso   1.00
H442   H     0.47144   0.35002   0.60561   0.00000  Uiso   1.00
H443   H     0.91912   0.39780   0.83441   0.00000  Uiso   1.00
H444   H     0.56469   0.36331   0.01344   0.00000  Uiso   1.00
H445   H     0.69753   0.57429   0.84996   0.00000  Uiso   1.00
H446   H     0.61338   0.57067   0.75028   0.00000  Uiso   1.00
H447   H     0.82570   0.59332   0.85878   0.00000  Uiso   1.00
H448   H     0.65762   0.57697   0.94368   0.00000  Uiso   1.00
H449   H     0.51371   0.53814   0.63526   0.00000  Uiso   1.00
H450   H     0.96139   0.58592   0.86407   0.00000  Uiso   1.00
H451   H     0.60696   0.55142   0.04309   0.00000  Uiso   1.00
O452   O     0.43634   0.43773   0.55423   0.00000  Uiso   1.00
O453   O     0.02368   0.50042   0.85442   0.00000  Uiso   1.00
O454   O     0.55868   0.45516   0.08929   0.00000  Uiso   1.00
N455   N     0.49293   0.39479   0.62628   0.00000  Uiso   1.00
N456   N     0.91148   0.43946   0.84018   0.00000  Uiso   1.00
N457   N     0.58014   0.40721   0.00756   0.00000  Uiso   1.00
N458   N     0.51567   0.49602   0.64223   0.00000  Uiso   1.00
N459   N     0.93422   0.54069   0.85614   0.00000  Uiso   1.00
N460   N     0.60288   0.50844   0.02352   0.00000  Uiso   1.00
C461   C     0.24225   0.70240   0.57680   0.00000  Uiso   1.00
C462   C     0.25265   0.64926   0.53879   0.00000  Uiso   1.00
C463   C     0.20739   0.58943   0.51872   0.00000  Uiso   1.00
C464   C     0.22628   0.54752   0.48449   0.00000  Uiso   1.00
C465   C     0.23304   0.46236   0.42756   0.00000  Uiso   1.00
C466   C     0.30399   0.72460   0.63114   0.00000  Uiso   1.00
C467   C     0.30189   0.72812   0.68872   0.00000  Uiso   1.00
C468   C     0.36400   0.74965   0.73223   0.00000  Uiso   1.00
C469   C     0.45046   0.78150   0.81867   0.00000  Uiso   1.00
C470   C     0.24826   0.75525   0.54329   0.00000  Uiso   1.00
C471   C     0.19929   0.78457   0.52702   0.00000  Uiso   1.00
C472   C     0.21449   0.83192   0.49658   0.00000  Uiso   1.00
C473   C     0.21440   0.91136   0.44663   0.00000  Uiso   1.00
C474   C     0.35630   0.73438   0.55170   0.00000  Uiso   1.00
C475   C     0.31461   0.66663   0.52515   0.00000  Uiso   1.00
C476   C     0.33358   0.62481   0.49094   0.00000  Uiso   1.00
C477   C     0.28834   0.56493   0.47083   0.00000  Uiso   1.00
C478   C     0.36594   0.74197   0.61750   0.00000  Uiso   1.00
C479   C     0.42808   0.76351   0.66094   0.00000  Uiso   1.00
C480   C     0.42607   0.76706   0.71857   0.00000  Uiso   1.00
C481   C     0.31021   0.77263   0.52965   0.00000  Uiso   1.00
C482   C     0.32548   0.81995   0.49924   0.00000  Uiso   1.00
C483   C     0.27655   0.84932   0.48292   0.00000  Uiso   1.00
H484   H     0.19402   0.68888   0.58742   0.00000  Uiso   1.00
H485   H     0.15945   0.57600   0.52929   0.00000  Uiso   1.00
H486   H     0.25394   0.71468   0.69926   0.00000  Uiso   1.00
H487   H     0.15136   0.77111   0.53758   0.00000  Uiso   1.00
H488   H     0.14846   0.45851   0.45884   0.00000  Uiso   1.00
H489   H     0.34769   0.75095   0.81723   0.00000  Uiso   1.00
H490   H     0.13138   0.86994   0.47630   0.00000  Uiso   1.00
H491   H     0.40454   0.74791   0.54108   0.00000  Uiso   1.00
H492   H     0.38152   0.63827   0.48040   0.00000  Uiso   1.00
H493   H     0.47601   0.77695   0.65037   0.00000  Uiso   1.00
H494   H     0.37343   0.83338   0.48869   0.00000  Uiso   1.00
H495   H     0.32870   0.50905   0.41916   0.00000  Uiso   1.00
H496   H     0.52793   0.80149   0.77755   0.00000  Uiso   1.00
H497   H     0.31162   0.92048   0.43663   0.00000  Uiso   1.00
O498   O     0.21965   0.41058   0.39993   0.00000  Uiso   1.00
O499   O     0.48103   0.79426   0.87012   0.00000  Uiso   1.00
O500   O     0.19723   0.95038   0.42284   0.00000  Uiso   1.00
N501   N     0.19403   0.48545   0.45782   0.00000  Uiso   1.00
N502   N     0.38030   0.75885   0.79289   0.00000  Uiso   1.00
N503   N     0.17807   0.87012   0.47417   0.00000  Uiso   1.00
N504   N     0.29102   0.51265   0.43646   0.00000  Uiso   1.00
N505   N     0.47729   0.78605   0.77154   0.00000  Uiso   1.00
N506   N     0.27506   0.89731   0.45282   0.00000  Uiso   1.00
C507   C     0.73261   0.46566   0.34068   0.00000  Uiso   1.00
C508   C     0.67553   0.43297   0.36476   0.00000  Uiso   1.00
C509   C     0.62342   0.37823   0.33657   0.00000  Uiso   1.00
C510   C     0.57612   0.35582   0.36592   0.00000  Uiso   1.00
C511   C     0.48675   0.30033   0.39486   0.00000  Uiso   1.00
C512   C     0.72904   0.53153   0.34094   0.00000  Uiso   1.00
C513   C     0.72193   0.55966   0.29271   0.00000  Uiso   1.00
C514   C     0.71969   0.62023   0.30201   0.00000  Uiso   1.00
C515   C     0.71345   0.71776   0.29397   0.00000  Uiso   1.00
C516   C     0.79921   0.47193   0.38641   0.00000  Uiso   1.00
C517   C     0.85111   0.44995   0.37642   0.00000  Uiso   1.00
C518   C     0.90796   0.46035   0.42401   0.00000  Uiso   1.00
C519   C     0.01067   0.46534   0.48657   0.00000  Uiso   1.00
C520   C     0.74130   0.52321   0.44294   0.00000  Uiso   1.00
C521   C     0.68025   0.46423   0.42031   0.00000  Uiso   1.00
C522   C     0.63302   0.44190   0.44971   0.00000  Uiso   1.00
C523   C     0.58085   0.38714   0.42157   0.00000  Uiso   1.00
C524   C     0.73376   0.56279   0.39648   0.00000  Uiso   1.00
C525   C     0.73154   0.62333   0.40586   0.00000  Uiso   1.00
C526   C     0.72442   0.65154   0.35766   0.00000  Uiso   1.00
C527   C     0.80393   0.50319   0.44196   0.00000  Uiso   1.00
C528   C     0.86071   0.51362   0.48957   0.00000  Uiso   1.00
C529   C     0.91269   0.49167   0.47965   0.00000  Uiso   1.00
H530   H     0.72894   0.44133   0.29743   0.00000  Uiso   1.00
H531   H     0.61978   0.35406   0.29358   0.00000  Uiso   1.00
H532   H     0.71829   0.53546   0.24973   0.00000  Uiso   1.00
H533   H     0.84744   0.42577   0.33343   0.00000  Uiso   1.00
H534   H     0.50082   0.27109   0.31380   0.00000  Uiso   1.00
H535   H     0.70855   0.65360   0.22135   0.00000  Uiso   1.00
H536   H     0.98090   0.42229   0.39784   0.00000  Uiso   1.00
H537   H     0.74497   0.54755   0.48619   0.00000  Uiso   1.00
H538   H     0.63669   0.46611   0.49270   0.00000  Uiso   1.00
H539   H     0.73519   0.64751   0.44885   0.00000  Uiso   1.00
H540   H     0.86435   0.53782   0.53254   0.00000  Uiso   1.00
H541   H     0.51454   0.36204   0.47540   0.00000  Uiso   1.00
H542   H     0.72228   0.74455   0.38296   0.00000  Uiso   1.00
H543   H     0.99462   0.51324   0.55945   0.00000  Uiso   1.00
O544   O     0.43615   0.26108   0.39547   0.00000  Uiso   1.00
O545   O     0.70870   0.76292   0.27418   0.00000  Uiso   1.00
O546   O     0.06601   0.45944   0.50573   0.00000  Uiso   1.00
N547   N     0.51892   0.30367   0.35094   0.00000  Uiso   1.00
N548   N     0.71312   0.66129   0.26451   0.00000  Uiso   1.00
N549   N     0.96776   0.44505   0.42951   0.00000  Uiso   1.00
N550   N     0.52630   0.35261   0.43790   0.00000  Uiso   1.00
N551   N     0.72051   0.71022   0.35147   0.00000  Uiso   1.00
N552   N     0.97514   0.49398   0.51647   0.00000  Uiso   1.00
