data_job_02335
_audit_creation_date              2018-12-19
_audit_creation_method            'Materials Studio'
_symmetry_space_group_name_H-M    'P1'
_symmetry_Int_Tables_number       1
_symmetry_cell_setting            triclinic
loop_
_symmetry_equiv_pos_as_xyz
  x,y,z
_cell_length_a                    21.8378
_cell_length_b                    12.4148
_cell_length_c                    37.8919
_cell_angle_alpha                 90.0000
_cell_angle_beta                  99.0901
_cell_angle_gamma                 90.0000
loop_
_atom_site_label
_atom_site_type_symbol
_atom_site_fract_x
_atom_site_fract_y
_atom_site_fract_z
_atom_site_U_iso_or_equiv
_atom_site_adp_type
_atom_site_occupancy
C1     C     0.16644   0.82889   0.59560   0.00000  Uiso   1.00
C2     C     0.13076   0.85022   0.62639   0.00000  Uiso   1.00
C3     C     0.06706   0.84104   0.62487   0.00000  Uiso   1.00
C4     C     0.04333   0.86410   0.65592   0.00000  Uiso   1.00
C5     C     0.98204   0.89254   0.69894   0.00000  Uiso   1.00
C6     C     0.20240   0.93190   0.59102   0.00000  Uiso   1.00
C7     C     0.19895   0.99138   0.55975   0.00000  Uiso   1.00
C8     C     0.23554   0.08319   0.56103   0.00000  Uiso   1.00
C9     C     0.28552   0.23839   0.54912   0.00000  Uiso   1.00
C10    C     0.21491   0.74381   0.60905   0.00000  Uiso   1.00
C11    C     0.22199   0.64516   0.59295   0.00000  Uiso   1.00
C12    C     0.26913   0.57862   0.60940   0.00000  Uiso   1.00
C13    C     0.33852   0.44179   0.62549   0.00000  Uiso   1.00
C14    C     0.23757   0.88616   0.65346   0.00000  Uiso   1.00
C15    C     0.16939   0.88133   0.65781   0.00000  Uiso   1.00
C16    C     0.14576   0.90440   0.68888   0.00000  Uiso   1.00
C17    C     0.08203   0.89526   0.68740   0.00000  Uiso   1.00
C18    C     0.24104   0.96300   0.62244   0.00000  Uiso   1.00
C19    C     0.27765   0.05474   0.62376   0.00000  Uiso   1.00
C20    C     0.27425   0.11435   0.59251   0.00000  Uiso   1.00
C21    C     0.25355   0.77491   0.64047   0.00000  Uiso   1.00
C22    C     0.30069   0.70852   0.65695   0.00000  Uiso   1.00
C23    C     0.30783   0.60978   0.64088   0.00000  Uiso   1.00
H24    H     0.13637   0.80468   0.57114   0.00000  Uiso   1.00
H25    H     0.03717   0.81698   0.60055   0.00000  Uiso   1.00
H26    H     0.16905   0.96729   0.53544   0.00000  Uiso   1.00
H27    H     0.19209   0.62112   0.56863   0.00000  Uiso   1.00
H28    H     0.94424   0.84437   0.64700   0.00000  Uiso   1.00
H29    H     0.22233   0.16128   0.50972   0.00000  Uiso   1.00
H30    H     0.27090   0.43131   0.57971   0.00000  Uiso   1.00
H31    H     0.26765   0.91038   0.67792   0.00000  Uiso   1.00
H32    H     0.17567   0.92847   0.71319   0.00000  Uiso   1.00
H33    H     0.30754   0.07878   0.64808   0.00000  Uiso   1.00
H34    H     0.33058   0.73261   0.68127   0.00000  Uiso   1.00
H35    H     0.05664   0.93486   0.73843   0.00000  Uiso   1.00
H36    H     0.33473   0.25178   0.60114   0.00000  Uiso   1.00
H37    H     0.38330   0.52181   0.67113   0.00000  Uiso   1.00
O38    O     0.93756   0.89965   0.71398   0.00000  Uiso   1.00
O39    O     0.30240   0.31541   0.53387   0.00000  Uiso   1.00
O40    O     0.36612   0.35771   0.62569   0.00000  Uiso   1.00
N41    N     0.98332   0.86316   0.66368   0.00000  Uiso   1.00
N42    N     0.24331   0.15947   0.53533   0.00000  Uiso   1.00
N43    N     0.28873   0.47702   0.60076   0.00000  Uiso   1.00
N44    N     0.04380   0.91185   0.71288   0.00000  Uiso   1.00
N45    N     0.30379   0.20816   0.58453   0.00000  Uiso   1.00
N46    N     0.34921   0.52572   0.64995   0.00000  Uiso   1.00
C47    C     0.66644   0.32889   0.59560   0.00000  Uiso   1.00
C48    C     0.63076   0.35022   0.62639   0.00000  Uiso   1.00
C49    C     0.56706   0.34104   0.62487   0.00000  Uiso   1.00
C50    C     0.54333   0.36410   0.65592   0.00000  Uiso   1.00
C51    C     0.48204   0.39254   0.69894   0.00000  Uiso   1.00
C52    C     0.70240   0.43190   0.59102   0.00000  Uiso   1.00
C53    C     0.69895   0.49138   0.55975   0.00000  Uiso   1.00
C54    C     0.73554   0.58319   0.56103   0.00000  Uiso   1.00
C55    C     0.78552   0.73839   0.54912   0.00000  Uiso   1.00
C56    C     0.71491   0.24381   0.60905   0.00000  Uiso   1.00
C57    C     0.72199   0.14516   0.59295   0.00000  Uiso   1.00
C58    C     0.76913   0.07862   0.60940   0.00000  Uiso   1.00
C59    C     0.83852   0.94179   0.62549   0.00000  Uiso   1.00
C60    C     0.73757   0.38616   0.65346   0.00000  Uiso   1.00
C61    C     0.66939   0.38133   0.65781   0.00000  Uiso   1.00
C62    C     0.64576   0.40440   0.68888   0.00000  Uiso   1.00
C63    C     0.58203   0.39526   0.68740   0.00000  Uiso   1.00
C64    C     0.74104   0.46300   0.62244   0.00000  Uiso   1.00
C65    C     0.77765   0.55474   0.62376   0.00000  Uiso   1.00
C66    C     0.77425   0.61435   0.59251   0.00000  Uiso   1.00
C67    C     0.75355   0.27491   0.64047   0.00000  Uiso   1.00
C68    C     0.80069   0.20852   0.65695   0.00000  Uiso   1.00
C69    C     0.80783   0.10978   0.64088   0.00000  Uiso   1.00
H70    H     0.63637   0.30468   0.57114   0.00000  Uiso   1.00
H71    H     0.53717   0.31698   0.60055   0.00000  Uiso   1.00
H72    H     0.66905   0.46729   0.53544   0.00000  Uiso   1.00
H73    H     0.69209   0.12112   0.56863   0.00000  Uiso   1.00
H74    H     0.44424   0.34437   0.64700   0.00000  Uiso   1.00
H75    H     0.72233   0.66128   0.50972   0.00000  Uiso   1.00
H76    H     0.77090   0.93131   0.57971   0.00000  Uiso   1.00
H77    H     0.76765   0.41038   0.67792   0.00000  Uiso   1.00
H78    H     0.67567   0.42847   0.71319   0.00000  Uiso   1.00
H79    H     0.80754   0.57878   0.64808   0.00000  Uiso   1.00
H80    H     0.83058   0.23261   0.68127   0.00000  Uiso   1.00
H81    H     0.55664   0.43486   0.73843   0.00000  Uiso   1.00
H82    H     0.83473   0.75178   0.60114   0.00000  Uiso   1.00
H83    H     0.88330   0.02181   0.67113   0.00000  Uiso   1.00
O84    O     0.43756   0.39965   0.71398   0.00000  Uiso   1.00
O85    O     0.80240   0.81541   0.53387   0.00000  Uiso   1.00
O86    O     0.86612   0.85771   0.62569   0.00000  Uiso   1.00
N87    N     0.48332   0.36316   0.66368   0.00000  Uiso   1.00
N88    N     0.74331   0.65947   0.53533   0.00000  Uiso   1.00
N89    N     0.78873   0.97702   0.60076   0.00000  Uiso   1.00
N90    N     0.54380   0.41185   0.71288   0.00000  Uiso   1.00
N91    N     0.80379   0.70816   0.58453   0.00000  Uiso   1.00
N92    N     0.84921   0.02572   0.64995   0.00000  Uiso   1.00
C93    C     0.83356   0.82889   0.90440   0.00000  Uiso   1.00
C94    C     0.86924   0.85022   0.87361   0.00000  Uiso   1.00
C95    C     0.93294   0.84104   0.87513   0.00000  Uiso   1.00
C96    C     0.95667   0.86410   0.84408   0.00000  Uiso   1.00
C97    C     0.01796   0.89254   0.80106   0.00000  Uiso   1.00
C98    C     0.79760   0.93190   0.90898   0.00000  Uiso   1.00
C99    C     0.80105   0.99138   0.94025   0.00000  Uiso   1.00
C100   C     0.76446   0.08319   0.93897   0.00000  Uiso   1.00
C101   C     0.71448   0.23839   0.95088   0.00000  Uiso   1.00
C102   C     0.78509   0.74381   0.89095   0.00000  Uiso   1.00
C103   C     0.77801   0.64516   0.90705   0.00000  Uiso   1.00
C104   C     0.73087   0.57862   0.89060   0.00000  Uiso   1.00
C105   C     0.66148   0.44179   0.87451   0.00000  Uiso   1.00
C106   C     0.76243   0.88616   0.84654   0.00000  Uiso   1.00
C107   C     0.83061   0.88133   0.84219   0.00000  Uiso   1.00
C108   C     0.85424   0.90440   0.81112   0.00000  Uiso   1.00
C109   C     0.91797   0.89526   0.81260   0.00000  Uiso   1.00
C110   C     0.75896   0.96300   0.87756   0.00000  Uiso   1.00
C111   C     0.72235   0.05474   0.87624   0.00000  Uiso   1.00
C112   C     0.72575   0.11435   0.90749   0.00000  Uiso   1.00
C113   C     0.74645   0.77491   0.85953   0.00000  Uiso   1.00
C114   C     0.69931   0.70852   0.84305   0.00000  Uiso   1.00
C115   C     0.69217   0.60978   0.85912   0.00000  Uiso   1.00
H116   H     0.86363   0.80468   0.92886   0.00000  Uiso   1.00
H117   H     0.96283   0.81698   0.89945   0.00000  Uiso   1.00
H118   H     0.83095   0.96729   0.96456   0.00000  Uiso   1.00
H119   H     0.80791   0.62112   0.93137   0.00000  Uiso   1.00
H120   H     0.05576   0.84437   0.85300   0.00000  Uiso   1.00
H121   H     0.77767   0.16128   0.99028   0.00000  Uiso   1.00
H122   H     0.72910   0.43131   0.92029   0.00000  Uiso   1.00
H123   H     0.73235   0.91038   0.82208   0.00000  Uiso   1.00
H124   H     0.82433   0.92847   0.78681   0.00000  Uiso   1.00
H125   H     0.69246   0.07878   0.85192   0.00000  Uiso   1.00
H126   H     0.66942   0.73261   0.81873   0.00000  Uiso   1.00
H127   H     0.94336   0.93486   0.76157   0.00000  Uiso   1.00
H128   H     0.66527   0.25178   0.89886   0.00000  Uiso   1.00
H129   H     0.61670   0.52181   0.82887   0.00000  Uiso   1.00
O130   O     0.06244   0.89965   0.78602   0.00000  Uiso   1.00
O131   O     0.69760   0.31541   0.96613   0.00000  Uiso   1.00
O132   O     0.63388   0.35771   0.87431   0.00000  Uiso   1.00
N133   N     0.01668   0.86316   0.83632   0.00000  Uiso   1.00
N134   N     0.75669   0.15947   0.96467   0.00000  Uiso   1.00
N135   N     0.71127   0.47702   0.89924   0.00000  Uiso   1.00
N136   N     0.95620   0.91185   0.78712   0.00000  Uiso   1.00
N137   N     0.69621   0.20816   0.91547   0.00000  Uiso   1.00
N138   N     0.65079   0.52572   0.85005   0.00000  Uiso   1.00
C139   C     0.33356   0.32889   0.90440   0.00000  Uiso   1.00
C140   C     0.36924   0.35022   0.87361   0.00000  Uiso   1.00
C141   C     0.43294   0.34104   0.87513   0.00000  Uiso   1.00
C142   C     0.45667   0.36410   0.84408   0.00000  Uiso   1.00
C143   C     0.51796   0.39254   0.80106   0.00000  Uiso   1.00
C144   C     0.29760   0.43190   0.90898   0.00000  Uiso   1.00
C145   C     0.30105   0.49138   0.94025   0.00000  Uiso   1.00
C146   C     0.26446   0.58319   0.93897   0.00000  Uiso   1.00
C147   C     0.21448   0.73839   0.95088   0.00000  Uiso   1.00
C148   C     0.28509   0.24381   0.89095   0.00000  Uiso   1.00
C149   C     0.27801   0.14516   0.90705   0.00000  Uiso   1.00
C150   C     0.23087   0.07862   0.89060   0.00000  Uiso   1.00
C151   C     0.16148   0.94179   0.87451   0.00000  Uiso   1.00
C152   C     0.26243   0.38616   0.84654   0.00000  Uiso   1.00
C153   C     0.33061   0.38133   0.84219   0.00000  Uiso   1.00
C154   C     0.35424   0.40440   0.81112   0.00000  Uiso   1.00
C155   C     0.41797   0.39526   0.81260   0.00000  Uiso   1.00
C156   C     0.25896   0.46300   0.87756   0.00000  Uiso   1.00
C157   C     0.22235   0.55474   0.87624   0.00000  Uiso   1.00
C158   C     0.22575   0.61435   0.90749   0.00000  Uiso   1.00
C159   C     0.24645   0.27491   0.85953   0.00000  Uiso   1.00
C160   C     0.19931   0.20852   0.84305   0.00000  Uiso   1.00
C161   C     0.19217   0.10978   0.85912   0.00000  Uiso   1.00
H162   H     0.36363   0.30468   0.92886   0.00000  Uiso   1.00
H163   H     0.46283   0.31698   0.89945   0.00000  Uiso   1.00
H164   H     0.33095   0.46729   0.96456   0.00000  Uiso   1.00
H165   H     0.30791   0.12112   0.93137   0.00000  Uiso   1.00
H166   H     0.55576   0.34437   0.85300   0.00000  Uiso   1.00
H167   H     0.27767   0.66128   0.99028   0.00000  Uiso   1.00
H168   H     0.22910   0.93131   0.92029   0.00000  Uiso   1.00
H169   H     0.23235   0.41038   0.82208   0.00000  Uiso   1.00
H170   H     0.32433   0.42847   0.78681   0.00000  Uiso   1.00
H171   H     0.19246   0.57878   0.85192   0.00000  Uiso   1.00
H172   H     0.16942   0.23261   0.81873   0.00000  Uiso   1.00
H173   H     0.44336   0.43486   0.76157   0.00000  Uiso   1.00
H174   H     0.16527   0.75178   0.89886   0.00000  Uiso   1.00
H175   H     0.11670   0.02181   0.82887   0.00000  Uiso   1.00
O176   O     0.56244   0.39965   0.78602   0.00000  Uiso   1.00
O177   O     0.19760   0.81541   0.96613   0.00000  Uiso   1.00
O178   O     0.13388   0.85771   0.87431   0.00000  Uiso   1.00
N179   N     0.51668   0.36316   0.83632   0.00000  Uiso   1.00
N180   N     0.25669   0.65947   0.96467   0.00000  Uiso   1.00
N181   N     0.21127   0.97702   0.89924   0.00000  Uiso   1.00
N182   N     0.45620   0.41185   0.78712   0.00000  Uiso   1.00
N183   N     0.19621   0.70816   0.91547   0.00000  Uiso   1.00
N184   N     0.15079   0.02572   0.85005   0.00000  Uiso   1.00
C185   C     0.83356   0.17111   0.40440   0.00000  Uiso   1.00
C186   C     0.86924   0.14978   0.37361   0.00000  Uiso   1.00
C187   C     0.93294   0.15896   0.37513   0.00000  Uiso   1.00
C188   C     0.95667   0.13590   0.34408   0.00000  Uiso   1.00
C189   C     0.01796   0.10746   0.30106   0.00000  Uiso   1.00
C190   C     0.79760   0.06810   0.40898   0.00000  Uiso   1.00
C191   C     0.80105   0.00862   0.44025   0.00000  Uiso   1.00
C192   C     0.76446   0.91681   0.43897   0.00000  Uiso   1.00
C193   C     0.71448   0.76161   0.45088   0.00000  Uiso   1.00
C194   C     0.78509   0.25619   0.39095   0.00000  Uiso   1.00
C195   C     0.77801   0.35484   0.40705   0.00000  Uiso   1.00
C196   C     0.73087   0.42138   0.39060   0.00000  Uiso   1.00
C197   C     0.66148   0.55821   0.37451   0.00000  Uiso   1.00
C198   C     0.76243   0.11384   0.34654   0.00000  Uiso   1.00
C199   C     0.83061   0.11867   0.34219   0.00000  Uiso   1.00
C200   C     0.85424   0.09560   0.31112   0.00000  Uiso   1.00
C201   C     0.91797   0.10474   0.31260   0.00000  Uiso   1.00
C202   C     0.75896   0.03700   0.37756   0.00000  Uiso   1.00
C203   C     0.72235   0.94526   0.37624   0.00000  Uiso   1.00
C204   C     0.72575   0.88565   0.40749   0.00000  Uiso   1.00
C205   C     0.74645   0.22509   0.35953   0.00000  Uiso   1.00
C206   C     0.69931   0.29148   0.34305   0.00000  Uiso   1.00
C207   C     0.69217   0.39022   0.35912   0.00000  Uiso   1.00
H208   H     0.86363   0.19532   0.42886   0.00000  Uiso   1.00
H209   H     0.96283   0.18302   0.39945   0.00000  Uiso   1.00
H210   H     0.83095   0.03271   0.46456   0.00000  Uiso   1.00
H211   H     0.80791   0.37888   0.43137   0.00000  Uiso   1.00
H212   H     0.05576   0.15563   0.35300   0.00000  Uiso   1.00
H213   H     0.77767   0.83872   0.49028   0.00000  Uiso   1.00
H214   H     0.72910   0.56869   0.42029   0.00000  Uiso   1.00
H215   H     0.73235   0.08962   0.32208   0.00000  Uiso   1.00
H216   H     0.82433   0.07153   0.28681   0.00000  Uiso   1.00
H217   H     0.69246   0.92122   0.35192   0.00000  Uiso   1.00
H218   H     0.66942   0.26739   0.31873   0.00000  Uiso   1.00
H219   H     0.94336   0.06514   0.26157   0.00000  Uiso   1.00
H220   H     0.66527   0.74822   0.39886   0.00000  Uiso   1.00
H221   H     0.61670   0.47819   0.32887   0.00000  Uiso   1.00
O222   O     0.06244   0.10035   0.28602   0.00000  Uiso   1.00
O223   O     0.69760   0.68459   0.46613   0.00000  Uiso   1.00
O224   O     0.63388   0.64229   0.37431   0.00000  Uiso   1.00
N225   N     0.01668   0.13684   0.33632   0.00000  Uiso   1.00
N226   N     0.75669   0.84053   0.46467   0.00000  Uiso   1.00
N227   N     0.71127   0.52298   0.39924   0.00000  Uiso   1.00
N228   N     0.95620   0.08815   0.28712   0.00000  Uiso   1.00
N229   N     0.69621   0.79184   0.41547   0.00000  Uiso   1.00
N230   N     0.65079   0.47428   0.35005   0.00000  Uiso   1.00
C231   C     0.33356   0.67111   0.40440   0.00000  Uiso   1.00
C232   C     0.36924   0.64978   0.37361   0.00000  Uiso   1.00
C233   C     0.43294   0.65896   0.37513   0.00000  Uiso   1.00
C234   C     0.45667   0.63590   0.34408   0.00000  Uiso   1.00
C235   C     0.51796   0.60746   0.30106   0.00000  Uiso   1.00
C236   C     0.29760   0.56810   0.40898   0.00000  Uiso   1.00
C237   C     0.30105   0.50862   0.44025   0.00000  Uiso   1.00
C238   C     0.26446   0.41681   0.43897   0.00000  Uiso   1.00
C239   C     0.21448   0.26161   0.45088   0.00000  Uiso   1.00
C240   C     0.28509   0.75619   0.39095   0.00000  Uiso   1.00
C241   C     0.27801   0.85484   0.40705   0.00000  Uiso   1.00
C242   C     0.23087   0.92138   0.39060   0.00000  Uiso   1.00
C243   C     0.16148   0.05821   0.37451   0.00000  Uiso   1.00
C244   C     0.26243   0.61384   0.34654   0.00000  Uiso   1.00
C245   C     0.33061   0.61867   0.34219   0.00000  Uiso   1.00
C246   C     0.35424   0.59560   0.31112   0.00000  Uiso   1.00
C247   C     0.41797   0.60474   0.31260   0.00000  Uiso   1.00
C248   C     0.25896   0.53700   0.37756   0.00000  Uiso   1.00
C249   C     0.22235   0.44526   0.37624   0.00000  Uiso   1.00
C250   C     0.22575   0.38565   0.40749   0.00000  Uiso   1.00
C251   C     0.24645   0.72509   0.35953   0.00000  Uiso   1.00
C252   C     0.19931   0.79148   0.34305   0.00000  Uiso   1.00
C253   C     0.19217   0.89022   0.35912   0.00000  Uiso   1.00
H254   H     0.36363   0.69532   0.42886   0.00000  Uiso   1.00
H255   H     0.46283   0.68302   0.39945   0.00000  Uiso   1.00
H256   H     0.33095   0.53271   0.46456   0.00000  Uiso   1.00
H257   H     0.30791   0.87888   0.43137   0.00000  Uiso   1.00
H258   H     0.55576   0.65563   0.35300   0.00000  Uiso   1.00
H259   H     0.27767   0.33872   0.49028   0.00000  Uiso   1.00
H260   H     0.22910   0.06869   0.42029   0.00000  Uiso   1.00
H261   H     0.23235   0.58962   0.32208   0.00000  Uiso   1.00
H262   H     0.32433   0.57153   0.28681   0.00000  Uiso   1.00
H263   H     0.19246   0.42122   0.35192   0.00000  Uiso   1.00
H264   H     0.16942   0.76739   0.31873   0.00000  Uiso   1.00
H265   H     0.44336   0.56514   0.26157   0.00000  Uiso   1.00
H266   H     0.16527   0.24822   0.39886   0.00000  Uiso   1.00
H267   H     0.11670   0.97819   0.32887   0.00000  Uiso   1.00
O268   O     0.56244   0.60035   0.28602   0.00000  Uiso   1.00
O269   O     0.19760   0.18459   0.46613   0.00000  Uiso   1.00
O270   O     0.13388   0.14229   0.37431   0.00000  Uiso   1.00
N271   N     0.51668   0.63684   0.33632   0.00000  Uiso   1.00
N272   N     0.25669   0.34053   0.46467   0.00000  Uiso   1.00
N273   N     0.21127   0.02298   0.39924   0.00000  Uiso   1.00
N274   N     0.45620   0.58815   0.28712   0.00000  Uiso   1.00
N275   N     0.19621   0.29184   0.41547   0.00000  Uiso   1.00
N276   N     0.15079   0.97428   0.35005   0.00000  Uiso   1.00
C277   C     0.16644   0.17111   0.09560   0.00000  Uiso   1.00
C278   C     0.13076   0.14978   0.12639   0.00000  Uiso   1.00
C279   C     0.06706   0.15896   0.12487   0.00000  Uiso   1.00
C280   C     0.04333   0.13590   0.15592   0.00000  Uiso   1.00
C281   C     0.98204   0.10746   0.19894   0.00000  Uiso   1.00
C282   C     0.20240   0.06810   0.09102   0.00000  Uiso   1.00
C283   C     0.19895   0.00862   0.05975   0.00000  Uiso   1.00
C284   C     0.23554   0.91681   0.06103   0.00000  Uiso   1.00
C285   C     0.28552   0.76161   0.04912   0.00000  Uiso   1.00
C286   C     0.21491   0.25619   0.10905   0.00000  Uiso   1.00
C287   C     0.22199   0.35484   0.09295   0.00000  Uiso   1.00
C288   C     0.26913   0.42138   0.10940   0.00000  Uiso   1.00
C289   C     0.33852   0.55821   0.12549   0.00000  Uiso   1.00
C290   C     0.23757   0.11384   0.15346   0.00000  Uiso   1.00
C291   C     0.16939   0.11867   0.15781   0.00000  Uiso   1.00
C292   C     0.14576   0.09560   0.18888   0.00000  Uiso   1.00
C293   C     0.08203   0.10474   0.18740   0.00000  Uiso   1.00
C294   C     0.24104   0.03700   0.12244   0.00000  Uiso   1.00
C295   C     0.27765   0.94526   0.12376   0.00000  Uiso   1.00
C296   C     0.27425   0.88565   0.09251   0.00000  Uiso   1.00
C297   C     0.25355   0.22509   0.14047   0.00000  Uiso   1.00
C298   C     0.30069   0.29148   0.15695   0.00000  Uiso   1.00
C299   C     0.30783   0.39022   0.14088   0.00000  Uiso   1.00
H300   H     0.13637   0.19532   0.07114   0.00000  Uiso   1.00
H301   H     0.03717   0.18302   0.10055   0.00000  Uiso   1.00
H302   H     0.16905   0.03271   0.03544   0.00000  Uiso   1.00
H303   H     0.19209   0.37888   0.06863   0.00000  Uiso   1.00
H304   H     0.94424   0.15563   0.14700   0.00000  Uiso   1.00
H305   H     0.22233   0.83872   0.00972   0.00000  Uiso   1.00
H306   H     0.27090   0.56869   0.07971   0.00000  Uiso   1.00
H307   H     0.26765   0.08962   0.17792   0.00000  Uiso   1.00
H308   H     0.17567   0.07153   0.21319   0.00000  Uiso   1.00
H309   H     0.30754   0.92122   0.14808   0.00000  Uiso   1.00
H310   H     0.33058   0.26739   0.18127   0.00000  Uiso   1.00
H311   H     0.05664   0.06514   0.23843   0.00000  Uiso   1.00
H312   H     0.33473   0.74822   0.10114   0.00000  Uiso   1.00
H313   H     0.38330   0.47819   0.17113   0.00000  Uiso   1.00
O314   O     0.93756   0.10035   0.21398   0.00000  Uiso   1.00
O315   O     0.30240   0.68459   0.03387   0.00000  Uiso   1.00
O316   O     0.36612   0.64229   0.12569   0.00000  Uiso   1.00
N317   N     0.98332   0.13684   0.16368   0.00000  Uiso   1.00
N318   N     0.24331   0.84053   0.03533   0.00000  Uiso   1.00
N319   N     0.28873   0.52298   0.10076   0.00000  Uiso   1.00
N320   N     0.04380   0.08815   0.21288   0.00000  Uiso   1.00
N321   N     0.30379   0.79184   0.08453   0.00000  Uiso   1.00
N322   N     0.34921   0.47428   0.14995   0.00000  Uiso   1.00
C323   C     0.66644   0.67111   0.09560   0.00000  Uiso   1.00
C324   C     0.63076   0.64978   0.12639   0.00000  Uiso   1.00
C325   C     0.56706   0.65896   0.12487   0.00000  Uiso   1.00
C326   C     0.54333   0.63590   0.15592   0.00000  Uiso   1.00
C327   C     0.48204   0.60746   0.19894   0.00000  Uiso   1.00
C328   C     0.70240   0.56810   0.09102   0.00000  Uiso   1.00
C329   C     0.69895   0.50862   0.05975   0.00000  Uiso   1.00
C330   C     0.73554   0.41681   0.06103   0.00000  Uiso   1.00
C331   C     0.78552   0.26161   0.04912   0.00000  Uiso   1.00
C332   C     0.71491   0.75619   0.10905   0.00000  Uiso   1.00
C333   C     0.72199   0.85484   0.09295   0.00000  Uiso   1.00
C334   C     0.76913   0.92138   0.10940   0.00000  Uiso   1.00
C335   C     0.83852   0.05821   0.12549   0.00000  Uiso   1.00
C336   C     0.73757   0.61384   0.15346   0.00000  Uiso   1.00
C337   C     0.66939   0.61867   0.15781   0.00000  Uiso   1.00
C338   C     0.64576   0.59560   0.18888   0.00000  Uiso   1.00
C339   C     0.58203   0.60474   0.18740   0.00000  Uiso   1.00
C340   C     0.74104   0.53700   0.12244   0.00000  Uiso   1.00
C341   C     0.77765   0.44526   0.12376   0.00000  Uiso   1.00
C342   C     0.77425   0.38565   0.09251   0.00000  Uiso   1.00
C343   C     0.75355   0.72509   0.14047   0.00000  Uiso   1.00
C344   C     0.80069   0.79148   0.15695   0.00000  Uiso   1.00
C345   C     0.80783   0.89022   0.14088   0.00000  Uiso   1.00
H346   H     0.63637   0.69532   0.07114   0.00000  Uiso   1.00
H347   H     0.53717   0.68302   0.10055   0.00000  Uiso   1.00
H348   H     0.66905   0.53271   0.03544   0.00000  Uiso   1.00
H349   H     0.69209   0.87888   0.06863   0.00000  Uiso   1.00
H350   H     0.44424   0.65563   0.14700   0.00000  Uiso   1.00
H351   H     0.72233   0.33872   0.00972   0.00000  Uiso   1.00
H352   H     0.77090   0.06869   0.07971   0.00000  Uiso   1.00
H353   H     0.76765   0.58962   0.17792   0.00000  Uiso   1.00
H354   H     0.67567   0.57153   0.21319   0.00000  Uiso   1.00
H355   H     0.80754   0.42122   0.14808   0.00000  Uiso   1.00
H356   H     0.83058   0.76739   0.18127   0.00000  Uiso   1.00
H357   H     0.55664   0.56514   0.23843   0.00000  Uiso   1.00
H358   H     0.83473   0.24822   0.10114   0.00000  Uiso   1.00
H359   H     0.88330   0.97819   0.17113   0.00000  Uiso   1.00
O360   O     0.43756   0.60035   0.21398   0.00000  Uiso   1.00
O361   O     0.80240   0.18459   0.03387   0.00000  Uiso   1.00
O362   O     0.86612   0.14229   0.12569   0.00000  Uiso   1.00
N363   N     0.48332   0.63684   0.16368   0.00000  Uiso   1.00
N364   N     0.74331   0.34053   0.03533   0.00000  Uiso   1.00
N365   N     0.78873   0.02298   0.10076   0.00000  Uiso   1.00
N366   N     0.54380   0.58815   0.21288   0.00000  Uiso   1.00
N367   N     0.80379   0.29184   0.08453   0.00000  Uiso   1.00
N368   N     0.84921   0.97428   0.14995   0.00000  Uiso   1.00
