data_job_04978
_audit_creation_date              2018-12-19
_audit_creation_method            'Materials Studio'
_symmetry_space_group_name_H-M    'P1'
_symmetry_Int_Tables_number       1
_symmetry_cell_setting            triclinic
loop_
_symmetry_equiv_pos_as_xyz
  x,y,z
_cell_length_a                    20.3131
_cell_length_b                    20.3623
_cell_length_c                    10.2594
_cell_angle_alpha                 90.0000
_cell_angle_beta                  90.0000
_cell_angle_gamma                 90.0000
loop_
_atom_site_label
_atom_site_type_symbol
_atom_site_fract_x
_atom_site_fract_y
_atom_site_fract_z
_atom_site_U_iso_or_equiv
_atom_site_adp_type
_atom_site_occupancy
C1     C     0.11818   0.31314   0.61871   0.00000  Uiso   1.00
C2     C     0.15600   0.31989   0.74641   0.00000  Uiso   1.00
C3     C     0.21571   0.35201   0.76235   0.00000  Uiso   1.00
C4     C     0.24232   0.35274   0.88700   0.00000  Uiso   1.00
C5     C     0.30590   0.36784   0.06935   0.00000  Uiso   1.00
C6     C     0.04995   0.34162   0.64422   0.00000  Uiso   1.00
C7     C     0.02050   0.39200   0.57423   0.00000  Uiso   1.00
C8     C     0.95782   0.41101   0.61285   0.00000  Uiso   1.00
C9     C     0.85674   0.45983   0.63649   0.00000  Uiso   1.00
C10    C     0.10819   0.23968   0.59778   0.00000  Uiso   1.00
C11    C     0.12769   0.20435   0.48872   0.00000  Uiso   1.00
C12    C     0.11403   0.13754   0.48823   0.00000  Uiso   1.00
C13    C     0.10338   0.02808   0.43976   0.00000  Uiso   1.00
C14    C     0.05924   0.25731   0.81173   0.00000  Uiso   1.00
C15    C     0.12398   0.28956   0.85125   0.00000  Uiso   1.00
C16    C     0.15050   0.29024   0.97591   0.00000  Uiso   1.00
C17    C     0.21024   0.32235   0.99203   0.00000  Uiso   1.00
C18    C     0.01793   0.31129   0.74906   0.00000  Uiso   1.00
C19    C     0.95528   0.33023   0.78778   0.00000  Uiso   1.00
C20    C     0.92575   0.38063   0.71788   0.00000  Uiso   1.00
C21    C     0.07618   0.20935   0.70262   0.00000  Uiso   1.00
C22    C     0.06248   0.14258   0.70229   0.00000  Uiso   1.00
C23    C     0.08196   0.10716   0.59326   0.00000  Uiso   1.00
H24    H     0.14310   0.33676   0.53709   0.00000  Uiso   1.00
H25    H     0.24047   0.37548   0.68119   0.00000  Uiso   1.00
H26    H     0.04529   0.41546   0.49309   0.00000  Uiso   1.00
H27    H     0.15246   0.22784   0.40761   0.00000  Uiso   1.00
H28    H     0.33430   0.40505   0.88721   0.00000  Uiso   1.00
H29    H     0.92272   0.48934   0.49056   0.00000  Uiso   1.00
H30    H     0.14873   0.09370   0.31030   0.00000  Uiso   1.00
H31    H     0.03431   0.23370   0.89336   0.00000  Uiso   1.00
H32    H     0.12571   0.26676   0.05702   0.00000  Uiso   1.00
H33    H     0.93052   0.30675   0.86892   0.00000  Uiso   1.00
H34    H     0.03770   0.11913   0.78344   0.00000  Uiso   1.00
H35    H     0.24115   0.31682   0.19225   0.00000  Uiso   1.00
H36    H     0.82958   0.40111   0.79559   0.00000  Uiso   1.00
H37    H     0.05558   0.00547   0.61534   0.00000  Uiso   1.00
O38    O     0.34980   0.38456   0.14097   0.00000  Uiso   1.00
O39    O     0.80983   0.49513   0.62057   0.00000  Uiso   1.00
O40    O     0.10635   0.97607   0.38408   0.00000  Uiso   1.00
N41    N     0.29984   0.37974   0.93653   0.00000  Uiso   1.00
N42    N     0.91505   0.45855   0.56570   0.00000  Uiso   1.00
N43    N     0.12632   0.08866   0.39716   0.00000  Uiso   1.00
N44    N     0.24972   0.33226   0.10067   0.00000  Uiso   1.00
N45    N     0.86492   0.41107   0.72984   0.00000  Uiso   1.00
N46    N     0.07620   0.04119   0.56130   0.00000  Uiso   1.00
C47    C     0.61818   0.81314   0.61871   0.00000  Uiso   1.00
C48    C     0.65600   0.81989   0.74641   0.00000  Uiso   1.00
C49    C     0.71571   0.85201   0.76235   0.00000  Uiso   1.00
C50    C     0.74232   0.85274   0.88700   0.00000  Uiso   1.00
C51    C     0.80590   0.86784   0.06935   0.00000  Uiso   1.00
C52    C     0.54995   0.84162   0.64422   0.00000  Uiso   1.00
C53    C     0.52050   0.89200   0.57423   0.00000  Uiso   1.00
C54    C     0.45782   0.91101   0.61285   0.00000  Uiso   1.00
C55    C     0.35674   0.95983   0.63649   0.00000  Uiso   1.00
C56    C     0.60819   0.73968   0.59778   0.00000  Uiso   1.00
C57    C     0.62769   0.70435   0.48872   0.00000  Uiso   1.00
C58    C     0.61403   0.63754   0.48823   0.00000  Uiso   1.00
C59    C     0.60338   0.52808   0.43976   0.00000  Uiso   1.00
C60    C     0.55924   0.75731   0.81173   0.00000  Uiso   1.00
C61    C     0.62398   0.78956   0.85125   0.00000  Uiso   1.00
C62    C     0.65050   0.79024   0.97591   0.00000  Uiso   1.00
C63    C     0.71024   0.82235   0.99203   0.00000  Uiso   1.00
C64    C     0.51793   0.81129   0.74906   0.00000  Uiso   1.00
C65    C     0.45528   0.83023   0.78778   0.00000  Uiso   1.00
C66    C     0.42575   0.88063   0.71788   0.00000  Uiso   1.00
C67    C     0.57618   0.70935   0.70262   0.00000  Uiso   1.00
C68    C     0.56248   0.64258   0.70229   0.00000  Uiso   1.00
C69    C     0.58196   0.60716   0.59326   0.00000  Uiso   1.00
H70    H     0.64310   0.83676   0.53709   0.00000  Uiso   1.00
H71    H     0.74047   0.87548   0.68119   0.00000  Uiso   1.00
H72    H     0.54529   0.91546   0.49309   0.00000  Uiso   1.00
H73    H     0.65246   0.72784   0.40761   0.00000  Uiso   1.00
H74    H     0.83430   0.90505   0.88721   0.00000  Uiso   1.00
H75    H     0.42272   0.98934   0.49056   0.00000  Uiso   1.00
H76    H     0.64873   0.59370   0.31030   0.00000  Uiso   1.00
H77    H     0.53431   0.73370   0.89336   0.00000  Uiso   1.00
H78    H     0.62571   0.76676   0.05702   0.00000  Uiso   1.00
H79    H     0.43052   0.80675   0.86892   0.00000  Uiso   1.00
H80    H     0.53770   0.61913   0.78344   0.00000  Uiso   1.00
H81    H     0.74115   0.81682   0.19225   0.00000  Uiso   1.00
H82    H     0.32958   0.90111   0.79559   0.00000  Uiso   1.00
H83    H     0.55558   0.50547   0.61534   0.00000  Uiso   1.00
O84    O     0.84980   0.88456   0.14097   0.00000  Uiso   1.00
O85    O     0.30983   0.99513   0.62057   0.00000  Uiso   1.00
O86    O     0.60635   0.47607   0.38408   0.00000  Uiso   1.00
N87    N     0.79984   0.87974   0.93653   0.00000  Uiso   1.00
N88    N     0.41505   0.95855   0.56570   0.00000  Uiso   1.00
N89    N     0.62632   0.58866   0.39716   0.00000  Uiso   1.00
N90    N     0.74972   0.83226   0.10067   0.00000  Uiso   1.00
N91    N     0.36492   0.91107   0.72984   0.00000  Uiso   1.00
N92    N     0.57620   0.54119   0.56130   0.00000  Uiso   1.00
C93    C     0.88182   0.68686   0.61871   0.00000  Uiso   1.00
C94    C     0.84400   0.68011   0.74641   0.00000  Uiso   1.00
C95    C     0.78429   0.64799   0.76235   0.00000  Uiso   1.00
C96    C     0.75768   0.64726   0.88700   0.00000  Uiso   1.00
C97    C     0.69410   0.63216   0.06935   0.00000  Uiso   1.00
C98    C     0.95005   0.65838   0.64422   0.00000  Uiso   1.00
C99    C     0.97950   0.60800   0.57423   0.00000  Uiso   1.00
C100   C     0.04218   0.58899   0.61285   0.00000  Uiso   1.00
C101   C     0.14326   0.54017   0.63649   0.00000  Uiso   1.00
C102   C     0.89181   0.76032   0.59778   0.00000  Uiso   1.00
C103   C     0.87231   0.79565   0.48872   0.00000  Uiso   1.00
C104   C     0.88597   0.86246   0.48823   0.00000  Uiso   1.00
C105   C     0.89662   0.97192   0.43976   0.00000  Uiso   1.00
C106   C     0.94076   0.74269   0.81173   0.00000  Uiso   1.00
C107   C     0.87602   0.71044   0.85125   0.00000  Uiso   1.00
C108   C     0.84950   0.70976   0.97591   0.00000  Uiso   1.00
C109   C     0.78976   0.67765   0.99203   0.00000  Uiso   1.00
C110   C     0.98207   0.68871   0.74906   0.00000  Uiso   1.00
C111   C     0.04472   0.66977   0.78778   0.00000  Uiso   1.00
C112   C     0.07425   0.61937   0.71788   0.00000  Uiso   1.00
C113   C     0.92382   0.79065   0.70262   0.00000  Uiso   1.00
C114   C     0.93752   0.85742   0.70229   0.00000  Uiso   1.00
C115   C     0.91804   0.89284   0.59326   0.00000  Uiso   1.00
H116   H     0.85690   0.66324   0.53709   0.00000  Uiso   1.00
H117   H     0.75953   0.62452   0.68119   0.00000  Uiso   1.00
H118   H     0.95471   0.58454   0.49309   0.00000  Uiso   1.00
H119   H     0.84754   0.77216   0.40761   0.00000  Uiso   1.00
H120   H     0.66570   0.59495   0.88721   0.00000  Uiso   1.00
H121   H     0.07728   0.51066   0.49056   0.00000  Uiso   1.00
H122   H     0.85127   0.90630   0.31030   0.00000  Uiso   1.00
H123   H     0.96569   0.76630   0.89336   0.00000  Uiso   1.00
H124   H     0.87429   0.73324   0.05702   0.00000  Uiso   1.00
H125   H     0.06948   0.69325   0.86892   0.00000  Uiso   1.00
H126   H     0.96230   0.88087   0.78344   0.00000  Uiso   1.00
H127   H     0.75885   0.68318   0.19225   0.00000  Uiso   1.00
H128   H     0.17042   0.59889   0.79559   0.00000  Uiso   1.00
H129   H     0.94442   0.99453   0.61534   0.00000  Uiso   1.00
O130   O     0.65020   0.61544   0.14097   0.00000  Uiso   1.00
O131   O     0.19017   0.50487   0.62057   0.00000  Uiso   1.00
O132   O     0.89365   0.02393   0.38408   0.00000  Uiso   1.00
N133   N     0.70016   0.62026   0.93653   0.00000  Uiso   1.00
N134   N     0.08495   0.54145   0.56570   0.00000  Uiso   1.00
N135   N     0.87368   0.91134   0.39716   0.00000  Uiso   1.00
N136   N     0.75028   0.66774   0.10067   0.00000  Uiso   1.00
N137   N     0.13508   0.58893   0.72984   0.00000  Uiso   1.00
N138   N     0.92380   0.95881   0.56130   0.00000  Uiso   1.00
C139   C     0.38182   0.18686   0.61871   0.00000  Uiso   1.00
C140   C     0.34400   0.18011   0.74641   0.00000  Uiso   1.00
C141   C     0.28429   0.14799   0.76235   0.00000  Uiso   1.00
C142   C     0.25768   0.14726   0.88700   0.00000  Uiso   1.00
C143   C     0.19410   0.13216   0.06935   0.00000  Uiso   1.00
C144   C     0.45005   0.15838   0.64422   0.00000  Uiso   1.00
C145   C     0.47950   0.10800   0.57423   0.00000  Uiso   1.00
C146   C     0.54218   0.08899   0.61285   0.00000  Uiso   1.00
C147   C     0.64326   0.04017   0.63649   0.00000  Uiso   1.00
C148   C     0.39181   0.26032   0.59778   0.00000  Uiso   1.00
C149   C     0.37231   0.29565   0.48872   0.00000  Uiso   1.00
C150   C     0.38597   0.36246   0.48823   0.00000  Uiso   1.00
C151   C     0.39662   0.47192   0.43976   0.00000  Uiso   1.00
C152   C     0.44076   0.24269   0.81173   0.00000  Uiso   1.00
C153   C     0.37602   0.21044   0.85125   0.00000  Uiso   1.00
C154   C     0.34950   0.20976   0.97591   0.00000  Uiso   1.00
C155   C     0.28976   0.17765   0.99203   0.00000  Uiso   1.00
C156   C     0.48207   0.18871   0.74906   0.00000  Uiso   1.00
C157   C     0.54472   0.16977   0.78778   0.00000  Uiso   1.00
C158   C     0.57425   0.11937   0.71788   0.00000  Uiso   1.00
C159   C     0.42382   0.29065   0.70262   0.00000  Uiso   1.00
C160   C     0.43752   0.35742   0.70229   0.00000  Uiso   1.00
C161   C     0.41804   0.39284   0.59326   0.00000  Uiso   1.00
H162   H     0.35690   0.16324   0.53709   0.00000  Uiso   1.00
H163   H     0.25953   0.12452   0.68119   0.00000  Uiso   1.00
H164   H     0.45471   0.08454   0.49309   0.00000  Uiso   1.00
H165   H     0.34754   0.27216   0.40761   0.00000  Uiso   1.00
H166   H     0.16570   0.09495   0.88721   0.00000  Uiso   1.00
H167   H     0.57728   0.01066   0.49056   0.00000  Uiso   1.00
H168   H     0.35127   0.40630   0.31030   0.00000  Uiso   1.00
H169   H     0.46569   0.26630   0.89336   0.00000  Uiso   1.00
H170   H     0.37429   0.23324   0.05702   0.00000  Uiso   1.00
H171   H     0.56948   0.19325   0.86892   0.00000  Uiso   1.00
H172   H     0.46230   0.38087   0.78344   0.00000  Uiso   1.00
H173   H     0.25885   0.18318   0.19225   0.00000  Uiso   1.00
H174   H     0.67042   0.09889   0.79559   0.00000  Uiso   1.00
H175   H     0.44442   0.49453   0.61534   0.00000  Uiso   1.00
O176   O     0.15020   0.11544   0.14097   0.00000  Uiso   1.00
O177   O     0.69017   0.00487   0.62057   0.00000  Uiso   1.00
O178   O     0.39365   0.52393   0.38408   0.00000  Uiso   1.00
N179   N     0.20016   0.12026   0.93653   0.00000  Uiso   1.00
N180   N     0.58495   0.04145   0.56570   0.00000  Uiso   1.00
N181   N     0.37368   0.41134   0.39716   0.00000  Uiso   1.00
N182   N     0.25028   0.16774   0.10067   0.00000  Uiso   1.00
N183   N     0.63508   0.08893   0.72984   0.00000  Uiso   1.00
N184   N     0.42380   0.45881   0.56130   0.00000  Uiso   1.00
C185   C     0.11818   0.68686   0.11871   0.00000  Uiso   1.00
C186   C     0.15600   0.68011   0.24641   0.00000  Uiso   1.00
C187   C     0.21571   0.64799   0.26235   0.00000  Uiso   1.00
C188   C     0.24232   0.64726   0.38700   0.00000  Uiso   1.00
C189   C     0.30590   0.63216   0.56935   0.00000  Uiso   1.00
C190   C     0.04995   0.65838   0.14422   0.00000  Uiso   1.00
C191   C     0.02050   0.60800   0.07423   0.00000  Uiso   1.00
C192   C     0.95782   0.58899   0.11285   0.00000  Uiso   1.00
C193   C     0.85674   0.54017   0.13649   0.00000  Uiso   1.00
C194   C     0.10819   0.76032   0.09778   0.00000  Uiso   1.00
C195   C     0.12769   0.79565   0.98872   0.00000  Uiso   1.00
C196   C     0.11403   0.86246   0.98823   0.00000  Uiso   1.00
C197   C     0.10338   0.97192   0.93976   0.00000  Uiso   1.00
C198   C     0.05924   0.74269   0.31173   0.00000  Uiso   1.00
C199   C     0.12398   0.71044   0.35125   0.00000  Uiso   1.00
C200   C     0.15050   0.70976   0.47591   0.00000  Uiso   1.00
C201   C     0.21024   0.67765   0.49203   0.00000  Uiso   1.00
C202   C     0.01793   0.68871   0.24906   0.00000  Uiso   1.00
C203   C     0.95528   0.66977   0.28778   0.00000  Uiso   1.00
C204   C     0.92575   0.61937   0.21788   0.00000  Uiso   1.00
C205   C     0.07618   0.79065   0.20262   0.00000  Uiso   1.00
C206   C     0.06248   0.85742   0.20229   0.00000  Uiso   1.00
C207   C     0.08196   0.89284   0.09326   0.00000  Uiso   1.00
H208   H     0.14310   0.66324   0.03709   0.00000  Uiso   1.00
H209   H     0.24047   0.62452   0.18119   0.00000  Uiso   1.00
H210   H     0.04529   0.58454   0.99309   0.00000  Uiso   1.00
H211   H     0.15246   0.77216   0.90761   0.00000  Uiso   1.00
H212   H     0.33430   0.59495   0.38721   0.00000  Uiso   1.00
H213   H     0.92272   0.51066   0.99056   0.00000  Uiso   1.00
H214   H     0.14873   0.90630   0.81030   0.00000  Uiso   1.00
H215   H     0.03431   0.76630   0.39336   0.00000  Uiso   1.00
H216   H     0.12571   0.73324   0.55702   0.00000  Uiso   1.00
H217   H     0.93052   0.69325   0.36892   0.00000  Uiso   1.00
H218   H     0.03770   0.88087   0.28344   0.00000  Uiso   1.00
H219   H     0.24115   0.68318   0.69225   0.00000  Uiso   1.00
H220   H     0.82958   0.59889   0.29559   0.00000  Uiso   1.00
H221   H     0.05558   0.99453   0.11534   0.00000  Uiso   1.00
O222   O     0.34980   0.61544   0.64097   0.00000  Uiso   1.00
O223   O     0.80983   0.50487   0.12057   0.00000  Uiso   1.00
O224   O     0.10635   0.02393   0.88408   0.00000  Uiso   1.00
N225   N     0.29984   0.62026   0.43653   0.00000  Uiso   1.00
N226   N     0.91505   0.54145   0.06570   0.00000  Uiso   1.00
N227   N     0.12632   0.91134   0.89716   0.00000  Uiso   1.00
N228   N     0.24972   0.66774   0.60067   0.00000  Uiso   1.00
N229   N     0.86492   0.58893   0.22984   0.00000  Uiso   1.00
N230   N     0.07620   0.95881   0.06130   0.00000  Uiso   1.00
C231   C     0.61818   0.18686   0.11871   0.00000  Uiso   1.00
C232   C     0.65600   0.18011   0.24641   0.00000  Uiso   1.00
C233   C     0.71571   0.14799   0.26235   0.00000  Uiso   1.00
C234   C     0.74232   0.14726   0.38700   0.00000  Uiso   1.00
C235   C     0.80590   0.13216   0.56935   0.00000  Uiso   1.00
C236   C     0.54995   0.15838   0.14422   0.00000  Uiso   1.00
C237   C     0.52050   0.10800   0.07423   0.00000  Uiso   1.00
C238   C     0.45782   0.08899   0.11285   0.00000  Uiso   1.00
C239   C     0.35674   0.04017   0.13649   0.00000  Uiso   1.00
C240   C     0.60819   0.26032   0.09778   0.00000  Uiso   1.00
C241   C     0.62769   0.29565   0.98872   0.00000  Uiso   1.00
C242   C     0.61403   0.36246   0.98823   0.00000  Uiso   1.00
C243   C     0.60338   0.47192   0.93976   0.00000  Uiso   1.00
C244   C     0.55924   0.24269   0.31173   0.00000  Uiso   1.00
C245   C     0.62398   0.21044   0.35125   0.00000  Uiso   1.00
C246   C     0.65050   0.20976   0.47591   0.00000  Uiso   1.00
C247   C     0.71024   0.17765   0.49203   0.00000  Uiso   1.00
C248   C     0.51793   0.18871   0.24906   0.00000  Uiso   1.00
C249   C     0.45528   0.16977   0.28778   0.00000  Uiso   1.00
C250   C     0.42575   0.11937   0.21788   0.00000  Uiso   1.00
C251   C     0.57618   0.29065   0.20262   0.00000  Uiso   1.00
C252   C     0.56248   0.35742   0.20229   0.00000  Uiso   1.00
C253   C     0.58196   0.39284   0.09326   0.00000  Uiso   1.00
H254   H     0.64310   0.16324   0.03709   0.00000  Uiso   1.00
H255   H     0.74047   0.12452   0.18119   0.00000  Uiso   1.00
H256   H     0.54529   0.08454   0.99309   0.00000  Uiso   1.00
H257   H     0.65246   0.27216   0.90761   0.00000  Uiso   1.00
H258   H     0.83430   0.09495   0.38721   0.00000  Uiso   1.00
H259   H     0.42272   0.01066   0.99056   0.00000  Uiso   1.00
H260   H     0.64873   0.40630   0.81030   0.00000  Uiso   1.00
H261   H     0.53431   0.26630   0.39336   0.00000  Uiso   1.00
H262   H     0.62571   0.23324   0.55702   0.00000  Uiso   1.00
H263   H     0.43052   0.19325   0.36892   0.00000  Uiso   1.00
H264   H     0.53770   0.38087   0.28344   0.00000  Uiso   1.00
H265   H     0.74115   0.18318   0.69225   0.00000  Uiso   1.00
H266   H     0.32958   0.09889   0.29559   0.00000  Uiso   1.00
H267   H     0.55558   0.49453   0.11534   0.00000  Uiso   1.00
O268   O     0.84980   0.11544   0.64097   0.00000  Uiso   1.00
O269   O     0.30983   0.00487   0.12057   0.00000  Uiso   1.00
O270   O     0.60635   0.52393   0.88408   0.00000  Uiso   1.00
N271   N     0.79984   0.12026   0.43653   0.00000  Uiso   1.00
N272   N     0.41505   0.04145   0.06570   0.00000  Uiso   1.00
N273   N     0.62632   0.41134   0.89716   0.00000  Uiso   1.00
N274   N     0.74972   0.16774   0.60067   0.00000  Uiso   1.00
N275   N     0.36492   0.08893   0.22984   0.00000  Uiso   1.00
N276   N     0.57620   0.45881   0.06130   0.00000  Uiso   1.00
C277   C     0.88182   0.31314   0.11871   0.00000  Uiso   1.00
C278   C     0.84400   0.31989   0.24641   0.00000  Uiso   1.00
C279   C     0.78429   0.35201   0.26235   0.00000  Uiso   1.00
C280   C     0.75768   0.35274   0.38700   0.00000  Uiso   1.00
C281   C     0.69410   0.36784   0.56935   0.00000  Uiso   1.00
C282   C     0.95005   0.34162   0.14422   0.00000  Uiso   1.00
C283   C     0.97950   0.39200   0.07423   0.00000  Uiso   1.00
C284   C     0.04218   0.41101   0.11285   0.00000  Uiso   1.00
C285   C     0.14326   0.45983   0.13649   0.00000  Uiso   1.00
C286   C     0.89181   0.23968   0.09778   0.00000  Uiso   1.00
C287   C     0.87231   0.20435   0.98872   0.00000  Uiso   1.00
C288   C     0.88597   0.13754   0.98823   0.00000  Uiso   1.00
C289   C     0.89662   0.02808   0.93976   0.00000  Uiso   1.00
C290   C     0.94076   0.25731   0.31173   0.00000  Uiso   1.00
C291   C     0.87602   0.28956   0.35125   0.00000  Uiso   1.00
C292   C     0.84950   0.29024   0.47591   0.00000  Uiso   1.00
C293   C     0.78976   0.32235   0.49203   0.00000  Uiso   1.00
C294   C     0.98207   0.31129   0.24906   0.00000  Uiso   1.00
C295   C     0.04472   0.33023   0.28778   0.00000  Uiso   1.00
C296   C     0.07425   0.38063   0.21788   0.00000  Uiso   1.00
C297   C     0.92382   0.20935   0.20262   0.00000  Uiso   1.00
C298   C     0.93752   0.14258   0.20229   0.00000  Uiso   1.00
C299   C     0.91804   0.10716   0.09326   0.00000  Uiso   1.00
H300   H     0.85690   0.33676   0.03709   0.00000  Uiso   1.00
H301   H     0.75953   0.37548   0.18119   0.00000  Uiso   1.00
H302   H     0.95471   0.41546   0.99309   0.00000  Uiso   1.00
H303   H     0.84754   0.22784   0.90761   0.00000  Uiso   1.00
H304   H     0.66570   0.40505   0.38721   0.00000  Uiso   1.00
H305   H     0.07728   0.48934   0.99056   0.00000  Uiso   1.00
H306   H     0.85127   0.09370   0.81030   0.00000  Uiso   1.00
H307   H     0.96569   0.23370   0.39336   0.00000  Uiso   1.00
H308   H     0.87429   0.26676   0.55702   0.00000  Uiso   1.00
H309   H     0.06948   0.30675   0.36892   0.00000  Uiso   1.00
H310   H     0.96230   0.11913   0.28344   0.00000  Uiso   1.00
H311   H     0.75885   0.31682   0.69225   0.00000  Uiso   1.00
H312   H     0.17042   0.40111   0.29559   0.00000  Uiso   1.00
H313   H     0.94442   0.00547   0.11534   0.00000  Uiso   1.00
O314   O     0.65020   0.38456   0.64097   0.00000  Uiso   1.00
O315   O     0.19017   0.49513   0.12057   0.00000  Uiso   1.00
O316   O     0.89365   0.97607   0.88408   0.00000  Uiso   1.00
N317   N     0.70016   0.37974   0.43653   0.00000  Uiso   1.00
N318   N     0.08495   0.45855   0.06570   0.00000  Uiso   1.00
N319   N     0.87368   0.08866   0.89716   0.00000  Uiso   1.00
N320   N     0.75028   0.33226   0.60067   0.00000  Uiso   1.00
N321   N     0.13508   0.41107   0.22984   0.00000  Uiso   1.00
N322   N     0.92380   0.04119   0.06130   0.00000  Uiso   1.00
C323   C     0.38182   0.81314   0.11871   0.00000  Uiso   1.00
C324   C     0.34400   0.81989   0.24641   0.00000  Uiso   1.00
C325   C     0.28429   0.85201   0.26235   0.00000  Uiso   1.00
C326   C     0.25768   0.85274   0.38700   0.00000  Uiso   1.00
C327   C     0.19410   0.86784   0.56935   0.00000  Uiso   1.00
C328   C     0.45005   0.84162   0.14422   0.00000  Uiso   1.00
C329   C     0.47950   0.89200   0.07423   0.00000  Uiso   1.00
C330   C     0.54218   0.91101   0.11285   0.00000  Uiso   1.00
C331   C     0.64326   0.95983   0.13649   0.00000  Uiso   1.00
C332   C     0.39181   0.73968   0.09778   0.00000  Uiso   1.00
C333   C     0.37231   0.70435   0.98872   0.00000  Uiso   1.00
C334   C     0.38597   0.63754   0.98823   0.00000  Uiso   1.00
C335   C     0.39662   0.52808   0.93976   0.00000  Uiso   1.00
C336   C     0.44076   0.75731   0.31173   0.00000  Uiso   1.00
C337   C     0.37602   0.78956   0.35125   0.00000  Uiso   1.00
C338   C     0.34950   0.79024   0.47591   0.00000  Uiso   1.00
C339   C     0.28976   0.82235   0.49203   0.00000  Uiso   1.00
C340   C     0.48207   0.81129   0.24906   0.00000  Uiso   1.00
C341   C     0.54472   0.83023   0.28778   0.00000  Uiso   1.00
C342   C     0.57425   0.88063   0.21788   0.00000  Uiso   1.00
C343   C     0.42382   0.70935   0.20262   0.00000  Uiso   1.00
C344   C     0.43752   0.64258   0.20229   0.00000  Uiso   1.00
C345   C     0.41804   0.60716   0.09326   0.00000  Uiso   1.00
H346   H     0.35690   0.83676   0.03709   0.00000  Uiso   1.00
H347   H     0.25953   0.87548   0.18119   0.00000  Uiso   1.00
H348   H     0.45471   0.91546   0.99309   0.00000  Uiso   1.00
H349   H     0.34754   0.72784   0.90761   0.00000  Uiso   1.00
H350   H     0.16570   0.90505   0.38721   0.00000  Uiso   1.00
H351   H     0.57728   0.98934   0.99056   0.00000  Uiso   1.00
H352   H     0.35127   0.59370   0.81030   0.00000  Uiso   1.00
H353   H     0.46569   0.73370   0.39336   0.00000  Uiso   1.00
H354   H     0.37429   0.76676   0.55702   0.00000  Uiso   1.00
H355   H     0.56948   0.80675   0.36892   0.00000  Uiso   1.00
H356   H     0.46230   0.61913   0.28344   0.00000  Uiso   1.00
H357   H     0.25885   0.81682   0.69225   0.00000  Uiso   1.00
H358   H     0.67042   0.90111   0.29559   0.00000  Uiso   1.00
H359   H     0.44442   0.50547   0.11534   0.00000  Uiso   1.00
O360   O     0.15020   0.88456   0.64097   0.00000  Uiso   1.00
O361   O     0.69017   0.99513   0.12057   0.00000  Uiso   1.00
O362   O     0.39365   0.47607   0.88408   0.00000  Uiso   1.00
N363   N     0.20016   0.87974   0.43653   0.00000  Uiso   1.00
N364   N     0.58495   0.95855   0.06570   0.00000  Uiso   1.00
N365   N     0.37368   0.58866   0.89716   0.00000  Uiso   1.00
N366   N     0.25028   0.83226   0.60067   0.00000  Uiso   1.00
N367   N     0.63508   0.91107   0.22984   0.00000  Uiso   1.00
N368   N     0.42380   0.54119   0.06130   0.00000  Uiso   1.00
