data_job_05800
_audit_creation_date              2018-12-19
_audit_creation_method            'Materials Studio'
_symmetry_space_group_name_H-M    'P1'
_symmetry_Int_Tables_number       1
_symmetry_cell_setting            triclinic
loop_
_symmetry_equiv_pos_as_xyz
  x,y,z
_cell_length_a                    17.0525
_cell_length_b                    29.6243
_cell_length_c                    12.5311
_cell_angle_alpha                 90.0000
_cell_angle_beta                  99.2302
_cell_angle_gamma                 90.0000
loop_
_atom_site_label
_atom_site_type_symbol
_atom_site_fract_x
_atom_site_fract_y
_atom_site_fract_z
_atom_site_U_iso_or_equiv
_atom_site_adp_type
_atom_site_occupancy
C1     C     0.66334   0.40492   0.01294   0.00000  Uiso   1.00
C2     C     0.65275   0.37582   0.10999   0.00000  Uiso   1.00
C3     C     0.68151   0.38580   0.21734   0.00000  Uiso   1.00
C4     C     0.66554   0.35484   0.29422   0.00000  Uiso   1.00
C5     C     0.65569   0.31566   0.44942   0.00000  Uiso   1.00
C6     C     0.70291   0.37472   0.93859   0.00000  Uiso   1.00
C7     C     0.77384   0.38378   0.90182   0.00000  Uiso   1.00
C8     C     0.80010   0.35189   0.83441   0.00000  Uiso   1.00
C9     C     0.86810   0.31101   0.72343   0.00000  Uiso   1.00
C10    C     0.57989   0.41438   0.95297   0.00000  Uiso   1.00
C11    C     0.54739   0.45678   0.92826   0.00000  Uiso   1.00
C12    C     0.47007   0.45829   0.87292   0.00000  Uiso   1.00
C13    C     0.34707   0.47899   0.78427   0.00000  Uiso   1.00
C14    C     0.58384   0.33219   0.95857   0.00000  Uiso   1.00
C15    C     0.60957   0.33632   0.08046   0.00000  Uiso   1.00
C16    C     0.59355   0.30534   0.15720   0.00000  Uiso   1.00
C17    C     0.62228   0.31527   0.26465   0.00000  Uiso   1.00
C18    C     0.65973   0.33522   0.90907   0.00000  Uiso   1.00
C19    C     0.68588   0.30331   0.84168   0.00000  Uiso   1.00
C20    C     0.75684   0.31231   0.80483   0.00000  Uiso   1.00
C21    C     0.53670   0.37488   0.92344   0.00000  Uiso   1.00
C22    C     0.45943   0.37632   0.86812   0.00000  Uiso   1.00
C23    C     0.42681   0.41872   0.84334   0.00000  Uiso   1.00
H24    H     0.69696   0.43567   0.03592   0.00000  Uiso   1.00
H25    H     0.71493   0.41637   0.24016   0.00000  Uiso   1.00
H26    H     0.80724   0.41435   0.92468   0.00000  Uiso   1.00
H27    H     0.58082   0.48735   0.95112   0.00000  Uiso   1.00
H28    H     0.71583   0.37755   0.45357   0.00000  Uiso   1.00
H29    H     0.91047   0.37329   0.78834   0.00000  Uiso   1.00
H30    H     0.43301   0.52721   0.84408   0.00000  Uiso   1.00
H31    H     0.55022   0.30144   0.93558   0.00000  Uiso   1.00
H32    H     0.56013   0.27477   0.13433   0.00000  Uiso   1.00
H33    H     0.65245   0.27275   0.81885   0.00000  Uiso   1.00
H34    H     0.42603   0.34574   0.84529   0.00000  Uiso   1.00
H35    H     0.59019   0.26262   0.36768   0.00000  Uiso   1.00
H36    H     0.78483   0.25835   0.70244   0.00000  Uiso   1.00
H37    H     0.30738   0.41228   0.75819   0.00000  Uiso   1.00
O38    O     0.66220   0.30495   0.54317   0.00000  Uiso   1.00
O39    O     0.91755   0.29937   0.67039   0.00000  Uiso   1.00
O40    O     0.29114   0.50132   0.74354   0.00000  Uiso   1.00
N41    N     0.68488   0.35416   0.40609   0.00000  Uiso   1.00
N42    N     0.86687   0.35017   0.78414   0.00000  Uiso   1.00
N43    N     0.42050   0.49408   0.83624   0.00000  Uiso   1.00
N44    N     0.61728   0.29232   0.35987   0.00000  Uiso   1.00
N45    N     0.79927   0.28833   0.73792   0.00000  Uiso   1.00
N46    N     0.35289   0.43224   0.79002   0.00000  Uiso   1.00
C47    C     0.16334   0.90492   0.01294   0.00000  Uiso   1.00
C48    C     0.15275   0.87582   0.10999   0.00000  Uiso   1.00
C49    C     0.18151   0.88580   0.21734   0.00000  Uiso   1.00
C50    C     0.16554   0.85484   0.29422   0.00000  Uiso   1.00
C51    C     0.15569   0.81566   0.44942   0.00000  Uiso   1.00
C52    C     0.20291   0.87472   0.93859   0.00000  Uiso   1.00
C53    C     0.27384   0.88378   0.90182   0.00000  Uiso   1.00
C54    C     0.30010   0.85189   0.83441   0.00000  Uiso   1.00
C55    C     0.36810   0.81101   0.72343   0.00000  Uiso   1.00
C56    C     0.07989   0.91438   0.95297   0.00000  Uiso   1.00
C57    C     0.04739   0.95678   0.92826   0.00000  Uiso   1.00
C58    C     0.97007   0.95829   0.87292   0.00000  Uiso   1.00
C59    C     0.84707   0.97899   0.78427   0.00000  Uiso   1.00
C60    C     0.08384   0.83219   0.95857   0.00000  Uiso   1.00
C61    C     0.10957   0.83632   0.08046   0.00000  Uiso   1.00
C62    C     0.09355   0.80534   0.15720   0.00000  Uiso   1.00
C63    C     0.12228   0.81527   0.26465   0.00000  Uiso   1.00
C64    C     0.15973   0.83522   0.90907   0.00000  Uiso   1.00
C65    C     0.18588   0.80331   0.84168   0.00000  Uiso   1.00
C66    C     0.25684   0.81231   0.80483   0.00000  Uiso   1.00
C67    C     0.03670   0.87488   0.92344   0.00000  Uiso   1.00
C68    C     0.95943   0.87632   0.86812   0.00000  Uiso   1.00
C69    C     0.92681   0.91872   0.84334   0.00000  Uiso   1.00
H70    H     0.19696   0.93567   0.03592   0.00000  Uiso   1.00
H71    H     0.21493   0.91637   0.24016   0.00000  Uiso   1.00
H72    H     0.30724   0.91435   0.92468   0.00000  Uiso   1.00
H73    H     0.08082   0.98735   0.95112   0.00000  Uiso   1.00
H74    H     0.21583   0.87755   0.45357   0.00000  Uiso   1.00
H75    H     0.41047   0.87329   0.78834   0.00000  Uiso   1.00
H76    H     0.93301   0.02721   0.84408   0.00000  Uiso   1.00
H77    H     0.05022   0.80144   0.93558   0.00000  Uiso   1.00
H78    H     0.06013   0.77477   0.13433   0.00000  Uiso   1.00
H79    H     0.15245   0.77275   0.81885   0.00000  Uiso   1.00
H80    H     0.92603   0.84574   0.84529   0.00000  Uiso   1.00
H81    H     0.09019   0.76262   0.36768   0.00000  Uiso   1.00
H82    H     0.28483   0.75835   0.70244   0.00000  Uiso   1.00
H83    H     0.80738   0.91228   0.75819   0.00000  Uiso   1.00
O84    O     0.16220   0.80495   0.54317   0.00000  Uiso   1.00
O85    O     0.41755   0.79937   0.67039   0.00000  Uiso   1.00
O86    O     0.79114   0.00132   0.74354   0.00000  Uiso   1.00
N87    N     0.18488   0.85416   0.40609   0.00000  Uiso   1.00
N88    N     0.36687   0.85017   0.78414   0.00000  Uiso   1.00
N89    N     0.92050   0.99408   0.83624   0.00000  Uiso   1.00
N90    N     0.11728   0.79232   0.35987   0.00000  Uiso   1.00
N91    N     0.29927   0.78833   0.73792   0.00000  Uiso   1.00
N92    N     0.85289   0.93224   0.79002   0.00000  Uiso   1.00
C93    C     0.33666   0.40492   0.48706   0.00000  Uiso   1.00
C94    C     0.34725   0.37582   0.39001   0.00000  Uiso   1.00
C95    C     0.31849   0.38580   0.28266   0.00000  Uiso   1.00
C96    C     0.33446   0.35484   0.20578   0.00000  Uiso   1.00
C97    C     0.34431   0.31566   0.05058   0.00000  Uiso   1.00
C98    C     0.29709   0.37472   0.56141   0.00000  Uiso   1.00
C99    C     0.22616   0.38378   0.59818   0.00000  Uiso   1.00
C100   C     0.19990   0.35189   0.66559   0.00000  Uiso   1.00
C101   C     0.13190   0.31101   0.77657   0.00000  Uiso   1.00
C102   C     0.42011   0.41438   0.54703   0.00000  Uiso   1.00
C103   C     0.45261   0.45678   0.57174   0.00000  Uiso   1.00
C104   C     0.52993   0.45829   0.62708   0.00000  Uiso   1.00
C105   C     0.65293   0.47899   0.71573   0.00000  Uiso   1.00
C106   C     0.41616   0.33219   0.54143   0.00000  Uiso   1.00
C107   C     0.39043   0.33632   0.41954   0.00000  Uiso   1.00
C108   C     0.40645   0.30534   0.34280   0.00000  Uiso   1.00
C109   C     0.37772   0.31527   0.23535   0.00000  Uiso   1.00
C110   C     0.34027   0.33522   0.59093   0.00000  Uiso   1.00
C111   C     0.31412   0.30331   0.65832   0.00000  Uiso   1.00
C112   C     0.24316   0.31231   0.69517   0.00000  Uiso   1.00
C113   C     0.46330   0.37488   0.57656   0.00000  Uiso   1.00
C114   C     0.54057   0.37632   0.63188   0.00000  Uiso   1.00
C115   C     0.57319   0.41872   0.65666   0.00000  Uiso   1.00
H116   H     0.30304   0.43567   0.46408   0.00000  Uiso   1.00
H117   H     0.28507   0.41637   0.25984   0.00000  Uiso   1.00
H118   H     0.19276   0.41435   0.57532   0.00000  Uiso   1.00
H119   H     0.41918   0.48735   0.54888   0.00000  Uiso   1.00
H120   H     0.28417   0.37755   0.04643   0.00000  Uiso   1.00
H121   H     0.08953   0.37329   0.71166   0.00000  Uiso   1.00
H122   H     0.56699   0.52721   0.65592   0.00000  Uiso   1.00
H123   H     0.44978   0.30144   0.56442   0.00000  Uiso   1.00
H124   H     0.43987   0.27477   0.36567   0.00000  Uiso   1.00
H125   H     0.34755   0.27275   0.68115   0.00000  Uiso   1.00
H126   H     0.57397   0.34574   0.65471   0.00000  Uiso   1.00
H127   H     0.40981   0.26262   0.13232   0.00000  Uiso   1.00
H128   H     0.21517   0.25835   0.79756   0.00000  Uiso   1.00
H129   H     0.69262   0.41228   0.74181   0.00000  Uiso   1.00
O130   O     0.33780   0.30495   0.95683   0.00000  Uiso   1.00
O131   O     0.08245   0.29937   0.82961   0.00000  Uiso   1.00
O132   O     0.70886   0.50132   0.75646   0.00000  Uiso   1.00
N133   N     0.31512   0.35416   0.09391   0.00000  Uiso   1.00
N134   N     0.13313   0.35017   0.71586   0.00000  Uiso   1.00
N135   N     0.57950   0.49408   0.66376   0.00000  Uiso   1.00
N136   N     0.38272   0.29232   0.14013   0.00000  Uiso   1.00
N137   N     0.20073   0.28833   0.76208   0.00000  Uiso   1.00
N138   N     0.64711   0.43224   0.70998   0.00000  Uiso   1.00
C139   C     0.83666   0.90492   0.48706   0.00000  Uiso   1.00
C140   C     0.84725   0.87582   0.39001   0.00000  Uiso   1.00
C141   C     0.81849   0.88580   0.28266   0.00000  Uiso   1.00
C142   C     0.83446   0.85484   0.20578   0.00000  Uiso   1.00
C143   C     0.84431   0.81566   0.05058   0.00000  Uiso   1.00
C144   C     0.79709   0.87472   0.56141   0.00000  Uiso   1.00
C145   C     0.72616   0.88378   0.59818   0.00000  Uiso   1.00
C146   C     0.69990   0.85189   0.66559   0.00000  Uiso   1.00
C147   C     0.63190   0.81101   0.77657   0.00000  Uiso   1.00
C148   C     0.92011   0.91438   0.54703   0.00000  Uiso   1.00
C149   C     0.95261   0.95678   0.57174   0.00000  Uiso   1.00
C150   C     0.02993   0.95829   0.62708   0.00000  Uiso   1.00
C151   C     0.15293   0.97899   0.71573   0.00000  Uiso   1.00
C152   C     0.91616   0.83219   0.54143   0.00000  Uiso   1.00
C153   C     0.89043   0.83632   0.41954   0.00000  Uiso   1.00
C154   C     0.90645   0.80534   0.34280   0.00000  Uiso   1.00
C155   C     0.87772   0.81527   0.23535   0.00000  Uiso   1.00
C156   C     0.84027   0.83522   0.59093   0.00000  Uiso   1.00
C157   C     0.81412   0.80331   0.65832   0.00000  Uiso   1.00
C158   C     0.74316   0.81231   0.69517   0.00000  Uiso   1.00
C159   C     0.96330   0.87488   0.57656   0.00000  Uiso   1.00
C160   C     0.04057   0.87632   0.63188   0.00000  Uiso   1.00
C161   C     0.07319   0.91872   0.65666   0.00000  Uiso   1.00
H162   H     0.80304   0.93567   0.46408   0.00000  Uiso   1.00
H163   H     0.78507   0.91637   0.25984   0.00000  Uiso   1.00
H164   H     0.69276   0.91435   0.57532   0.00000  Uiso   1.00
H165   H     0.91918   0.98735   0.54888   0.00000  Uiso   1.00
H166   H     0.78417   0.87755   0.04643   0.00000  Uiso   1.00
H167   H     0.58953   0.87329   0.71166   0.00000  Uiso   1.00
H168   H     0.06699   0.02721   0.65592   0.00000  Uiso   1.00
H169   H     0.94978   0.80144   0.56442   0.00000  Uiso   1.00
H170   H     0.93987   0.77477   0.36567   0.00000  Uiso   1.00
H171   H     0.84755   0.77275   0.68115   0.00000  Uiso   1.00
H172   H     0.07397   0.84574   0.65471   0.00000  Uiso   1.00
H173   H     0.90981   0.76262   0.13232   0.00000  Uiso   1.00
H174   H     0.71517   0.75835   0.79756   0.00000  Uiso   1.00
H175   H     0.19262   0.91228   0.74181   0.00000  Uiso   1.00
O176   O     0.83780   0.80495   0.95683   0.00000  Uiso   1.00
O177   O     0.58245   0.79937   0.82961   0.00000  Uiso   1.00
O178   O     0.20886   0.00132   0.75646   0.00000  Uiso   1.00
N179   N     0.81512   0.85416   0.09391   0.00000  Uiso   1.00
N180   N     0.63313   0.85017   0.71586   0.00000  Uiso   1.00
N181   N     0.07950   0.99408   0.66376   0.00000  Uiso   1.00
N182   N     0.88272   0.79232   0.14013   0.00000  Uiso   1.00
N183   N     0.70073   0.78833   0.76208   0.00000  Uiso   1.00
N184   N     0.14711   0.93224   0.70998   0.00000  Uiso   1.00
C185   C     0.33666   0.59508   0.98706   0.00000  Uiso   1.00
C186   C     0.34725   0.62418   0.89001   0.00000  Uiso   1.00
C187   C     0.31849   0.61420   0.78266   0.00000  Uiso   1.00
C188   C     0.33446   0.64516   0.70578   0.00000  Uiso   1.00
C189   C     0.34431   0.68434   0.55058   0.00000  Uiso   1.00
C190   C     0.29709   0.62528   0.06141   0.00000  Uiso   1.00
C191   C     0.22616   0.61622   0.09818   0.00000  Uiso   1.00
C192   C     0.19990   0.64811   0.16559   0.00000  Uiso   1.00
C193   C     0.13190   0.68899   0.27657   0.00000  Uiso   1.00
C194   C     0.42011   0.58562   0.04703   0.00000  Uiso   1.00
C195   C     0.45261   0.54322   0.07174   0.00000  Uiso   1.00
C196   C     0.52993   0.54171   0.12708   0.00000  Uiso   1.00
C197   C     0.65293   0.52101   0.21573   0.00000  Uiso   1.00
C198   C     0.41616   0.66781   0.04143   0.00000  Uiso   1.00
C199   C     0.39043   0.66368   0.91954   0.00000  Uiso   1.00
C200   C     0.40645   0.69466   0.84280   0.00000  Uiso   1.00
C201   C     0.37772   0.68473   0.73535   0.00000  Uiso   1.00
C202   C     0.34027   0.66478   0.09093   0.00000  Uiso   1.00
C203   C     0.31412   0.69669   0.15832   0.00000  Uiso   1.00
C204   C     0.24316   0.68769   0.19517   0.00000  Uiso   1.00
C205   C     0.46330   0.62512   0.07656   0.00000  Uiso   1.00
C206   C     0.54057   0.62368   0.13188   0.00000  Uiso   1.00
C207   C     0.57319   0.58128   0.15666   0.00000  Uiso   1.00
H208   H     0.30304   0.56433   0.96408   0.00000  Uiso   1.00
H209   H     0.28507   0.58363   0.75984   0.00000  Uiso   1.00
H210   H     0.19276   0.58565   0.07532   0.00000  Uiso   1.00
H211   H     0.41918   0.51265   0.04888   0.00000  Uiso   1.00
H212   H     0.28417   0.62245   0.54643   0.00000  Uiso   1.00
H213   H     0.08953   0.62671   0.21166   0.00000  Uiso   1.00
H214   H     0.56699   0.47279   0.15592   0.00000  Uiso   1.00
H215   H     0.44978   0.69856   0.06442   0.00000  Uiso   1.00
H216   H     0.43987   0.72523   0.86567   0.00000  Uiso   1.00
H217   H     0.34755   0.72725   0.18115   0.00000  Uiso   1.00
H218   H     0.57397   0.65426   0.15471   0.00000  Uiso   1.00
H219   H     0.40981   0.73738   0.63232   0.00000  Uiso   1.00
H220   H     0.21517   0.74165   0.29756   0.00000  Uiso   1.00
H221   H     0.69262   0.58772   0.24181   0.00000  Uiso   1.00
O222   O     0.33780   0.69505   0.45683   0.00000  Uiso   1.00
O223   O     0.08245   0.70063   0.32961   0.00000  Uiso   1.00
O224   O     0.70886   0.49868   0.25646   0.00000  Uiso   1.00
N225   N     0.31512   0.64584   0.59391   0.00000  Uiso   1.00
N226   N     0.13313   0.64983   0.21586   0.00000  Uiso   1.00
N227   N     0.57950   0.50592   0.16376   0.00000  Uiso   1.00
N228   N     0.38272   0.70768   0.64013   0.00000  Uiso   1.00
N229   N     0.20073   0.71167   0.26208   0.00000  Uiso   1.00
N230   N     0.64711   0.56776   0.20998   0.00000  Uiso   1.00
C231   C     0.83666   0.09508   0.98706   0.00000  Uiso   1.00
C232   C     0.84725   0.12418   0.89001   0.00000  Uiso   1.00
C233   C     0.81849   0.11420   0.78266   0.00000  Uiso   1.00
C234   C     0.83446   0.14516   0.70578   0.00000  Uiso   1.00
C235   C     0.84431   0.18434   0.55058   0.00000  Uiso   1.00
C236   C     0.79709   0.12528   0.06141   0.00000  Uiso   1.00
C237   C     0.72616   0.11622   0.09818   0.00000  Uiso   1.00
C238   C     0.69990   0.14811   0.16559   0.00000  Uiso   1.00
C239   C     0.63190   0.18899   0.27657   0.00000  Uiso   1.00
C240   C     0.92011   0.08562   0.04703   0.00000  Uiso   1.00
C241   C     0.95261   0.04322   0.07174   0.00000  Uiso   1.00
C242   C     0.02993   0.04171   0.12708   0.00000  Uiso   1.00
C243   C     0.15293   0.02101   0.21573   0.00000  Uiso   1.00
C244   C     0.91616   0.16781   0.04143   0.00000  Uiso   1.00
C245   C     0.89043   0.16368   0.91954   0.00000  Uiso   1.00
C246   C     0.90645   0.19466   0.84280   0.00000  Uiso   1.00
C247   C     0.87772   0.18473   0.73535   0.00000  Uiso   1.00
C248   C     0.84027   0.16478   0.09093   0.00000  Uiso   1.00
C249   C     0.81412   0.19669   0.15832   0.00000  Uiso   1.00
C250   C     0.74316   0.18769   0.19517   0.00000  Uiso   1.00
C251   C     0.96330   0.12512   0.07656   0.00000  Uiso   1.00
C252   C     0.04057   0.12368   0.13188   0.00000  Uiso   1.00
C253   C     0.07319   0.08128   0.15666   0.00000  Uiso   1.00
H254   H     0.80304   0.06433   0.96408   0.00000  Uiso   1.00
H255   H     0.78507   0.08363   0.75984   0.00000  Uiso   1.00
H256   H     0.69276   0.08565   0.07532   0.00000  Uiso   1.00
H257   H     0.91918   0.01265   0.04888   0.00000  Uiso   1.00
H258   H     0.78417   0.12245   0.54643   0.00000  Uiso   1.00
H259   H     0.58953   0.12671   0.21166   0.00000  Uiso   1.00
H260   H     0.06699   0.97279   0.15592   0.00000  Uiso   1.00
H261   H     0.94978   0.19856   0.06442   0.00000  Uiso   1.00
H262   H     0.93987   0.22523   0.86567   0.00000  Uiso   1.00
H263   H     0.84755   0.22725   0.18115   0.00000  Uiso   1.00
H264   H     0.07397   0.15426   0.15471   0.00000  Uiso   1.00
H265   H     0.90981   0.23738   0.63232   0.00000  Uiso   1.00
H266   H     0.71517   0.24165   0.29756   0.00000  Uiso   1.00
H267   H     0.19262   0.08772   0.24181   0.00000  Uiso   1.00
O268   O     0.83780   0.19505   0.45683   0.00000  Uiso   1.00
O269   O     0.58245   0.20063   0.32961   0.00000  Uiso   1.00
O270   O     0.20886   0.99868   0.25646   0.00000  Uiso   1.00
N271   N     0.81512   0.14584   0.59391   0.00000  Uiso   1.00
N272   N     0.63313   0.14983   0.21586   0.00000  Uiso   1.00
N273   N     0.07950   0.00592   0.16376   0.00000  Uiso   1.00
N274   N     0.88272   0.20768   0.64013   0.00000  Uiso   1.00
N275   N     0.70073   0.21167   0.26208   0.00000  Uiso   1.00
N276   N     0.14711   0.06776   0.20998   0.00000  Uiso   1.00
C277   C     0.66334   0.59508   0.51294   0.00000  Uiso   1.00
C278   C     0.65275   0.62418   0.60999   0.00000  Uiso   1.00
C279   C     0.68151   0.61420   0.71734   0.00000  Uiso   1.00
C280   C     0.66554   0.64516   0.79422   0.00000  Uiso   1.00
C281   C     0.65569   0.68434   0.94942   0.00000  Uiso   1.00
C282   C     0.70291   0.62528   0.43859   0.00000  Uiso   1.00
C283   C     0.77384   0.61622   0.40182   0.00000  Uiso   1.00
C284   C     0.80010   0.64811   0.33441   0.00000  Uiso   1.00
C285   C     0.86810   0.68899   0.22343   0.00000  Uiso   1.00
C286   C     0.57989   0.58562   0.45297   0.00000  Uiso   1.00
C287   C     0.54739   0.54322   0.42826   0.00000  Uiso   1.00
C288   C     0.47007   0.54171   0.37292   0.00000  Uiso   1.00
C289   C     0.34707   0.52101   0.28427   0.00000  Uiso   1.00
C290   C     0.58384   0.66781   0.45857   0.00000  Uiso   1.00
C291   C     0.60957   0.66368   0.58046   0.00000  Uiso   1.00
C292   C     0.59355   0.69466   0.65720   0.00000  Uiso   1.00
C293   C     0.62228   0.68473   0.76465   0.00000  Uiso   1.00
C294   C     0.65973   0.66478   0.40907   0.00000  Uiso   1.00
C295   C     0.68588   0.69669   0.34168   0.00000  Uiso   1.00
C296   C     0.75684   0.68769   0.30483   0.00000  Uiso   1.00
C297   C     0.53670   0.62512   0.42344   0.00000  Uiso   1.00
C298   C     0.45943   0.62368   0.36812   0.00000  Uiso   1.00
C299   C     0.42681   0.58128   0.34334   0.00000  Uiso   1.00
H300   H     0.69696   0.56433   0.53592   0.00000  Uiso   1.00
H301   H     0.71493   0.58363   0.74016   0.00000  Uiso   1.00
H302   H     0.80724   0.58565   0.42468   0.00000  Uiso   1.00
H303   H     0.58082   0.51265   0.45112   0.00000  Uiso   1.00
H304   H     0.71583   0.62245   0.95357   0.00000  Uiso   1.00
H305   H     0.91047   0.62671   0.28834   0.00000  Uiso   1.00
H306   H     0.43301   0.47279   0.34408   0.00000  Uiso   1.00
H307   H     0.55022   0.69856   0.43558   0.00000  Uiso   1.00
H308   H     0.56013   0.72523   0.63433   0.00000  Uiso   1.00
H309   H     0.65245   0.72725   0.31885   0.00000  Uiso   1.00
H310   H     0.42603   0.65426   0.34529   0.00000  Uiso   1.00
H311   H     0.59019   0.73738   0.86768   0.00000  Uiso   1.00
H312   H     0.78483   0.74165   0.20244   0.00000  Uiso   1.00
H313   H     0.30738   0.58772   0.25819   0.00000  Uiso   1.00
O314   O     0.66220   0.69505   0.04317   0.00000  Uiso   1.00
O315   O     0.91755   0.70063   0.17039   0.00000  Uiso   1.00
O316   O     0.29114   0.49868   0.24354   0.00000  Uiso   1.00
N317   N     0.68488   0.64584   0.90609   0.00000  Uiso   1.00
N318   N     0.86687   0.64983   0.28414   0.00000  Uiso   1.00
N319   N     0.42050   0.50592   0.33624   0.00000  Uiso   1.00
N320   N     0.61728   0.70768   0.85987   0.00000  Uiso   1.00
N321   N     0.79927   0.71167   0.23792   0.00000  Uiso   1.00
N322   N     0.35289   0.56776   0.29002   0.00000  Uiso   1.00
C323   C     0.16334   0.09508   0.51294   0.00000  Uiso   1.00
C324   C     0.15275   0.12418   0.60999   0.00000  Uiso   1.00
C325   C     0.18151   0.11420   0.71734   0.00000  Uiso   1.00
C326   C     0.16554   0.14516   0.79422   0.00000  Uiso   1.00
C327   C     0.15569   0.18434   0.94942   0.00000  Uiso   1.00
C328   C     0.20291   0.12528   0.43859   0.00000  Uiso   1.00
C329   C     0.27384   0.11622   0.40182   0.00000  Uiso   1.00
C330   C     0.30010   0.14811   0.33441   0.00000  Uiso   1.00
C331   C     0.36810   0.18899   0.22343   0.00000  Uiso   1.00
C332   C     0.07989   0.08562   0.45297   0.00000  Uiso   1.00
C333   C     0.04739   0.04322   0.42826   0.00000  Uiso   1.00
C334   C     0.97007   0.04171   0.37292   0.00000  Uiso   1.00
C335   C     0.84707   0.02101   0.28427   0.00000  Uiso   1.00
C336   C     0.08384   0.16781   0.45857   0.00000  Uiso   1.00
C337   C     0.10957   0.16368   0.58046   0.00000  Uiso   1.00
C338   C     0.09355   0.19466   0.65720   0.00000  Uiso   1.00
C339   C     0.12228   0.18473   0.76465   0.00000  Uiso   1.00
C340   C     0.15973   0.16478   0.40907   0.00000  Uiso   1.00
C341   C     0.18588   0.19669   0.34168   0.00000  Uiso   1.00
C342   C     0.25684   0.18769   0.30483   0.00000  Uiso   1.00
C343   C     0.03670   0.12512   0.42344   0.00000  Uiso   1.00
C344   C     0.95943   0.12368   0.36812   0.00000  Uiso   1.00
C345   C     0.92681   0.08128   0.34334   0.00000  Uiso   1.00
H346   H     0.19696   0.06433   0.53592   0.00000  Uiso   1.00
H347   H     0.21493   0.08363   0.74016   0.00000  Uiso   1.00
H348   H     0.30724   0.08565   0.42468   0.00000  Uiso   1.00
H349   H     0.08082   0.01265   0.45112   0.00000  Uiso   1.00
H350   H     0.21583   0.12245   0.95357   0.00000  Uiso   1.00
H351   H     0.41047   0.12671   0.28834   0.00000  Uiso   1.00
H352   H     0.93301   0.97279   0.34408   0.00000  Uiso   1.00
H353   H     0.05022   0.19856   0.43558   0.00000  Uiso   1.00
H354   H     0.06013   0.22523   0.63433   0.00000  Uiso   1.00
H355   H     0.15245   0.22725   0.31885   0.00000  Uiso   1.00
H356   H     0.92603   0.15426   0.34529   0.00000  Uiso   1.00
H357   H     0.09019   0.23738   0.86768   0.00000  Uiso   1.00
H358   H     0.28483   0.24165   0.20244   0.00000  Uiso   1.00
H359   H     0.80738   0.08772   0.25819   0.00000  Uiso   1.00
O360   O     0.16220   0.19505   0.04317   0.00000  Uiso   1.00
O361   O     0.41755   0.20063   0.17039   0.00000  Uiso   1.00
O362   O     0.79114   0.99868   0.24354   0.00000  Uiso   1.00
N363   N     0.18488   0.14584   0.90609   0.00000  Uiso   1.00
N364   N     0.36687   0.14983   0.28414   0.00000  Uiso   1.00
N365   N     0.92050   0.00592   0.33624   0.00000  Uiso   1.00
N366   N     0.11728   0.20768   0.85987   0.00000  Uiso   1.00
N367   N     0.29927   0.21167   0.23792   0.00000  Uiso   1.00
N368   N     0.85289   0.06776   0.29002   0.00000  Uiso   1.00
