data_job_01101
_audit_creation_date              2018-12-19
_audit_creation_method            'Materials Studio'
_symmetry_space_group_name_H-M    'P1'
_symmetry_Int_Tables_number       1
_symmetry_cell_setting            triclinic
loop_
_symmetry_equiv_pos_as_xyz
  x,y,z
_cell_length_a                    46.1830
_cell_length_b                    14.5275
_cell_length_c                    9.3897
_cell_angle_alpha                 90.0000
_cell_angle_beta                  99.0340
_cell_angle_gamma                 90.0000
loop_
_atom_site_label
_atom_site_type_symbol
_atom_site_fract_x
_atom_site_fract_y
_atom_site_fract_z
_atom_site_U_iso_or_equiv
_atom_site_adp_type
_atom_site_occupancy
C1     C     0.59161   0.71664   0.72326   0.00000  Uiso   1.00
C2     C     0.57917   0.81109   0.75075   0.00000  Uiso   1.00
C3     C     0.55624   0.82799   0.82662   0.00000  Uiso   1.00
C4     C     0.54811   0.91921   0.83985   0.00000  Uiso   1.00
C5     C     0.52662   0.05496   0.89167   0.00000  Uiso   1.00
C6     C     0.58943   0.70809   0.56006   0.00000  Uiso   1.00
C7     C     0.57512   0.63838   0.47561   0.00000  Uiso   1.00
C8     C     0.57563   0.64290   0.32832   0.00000  Uiso   1.00
C9     C     0.57007   0.61869   0.08411   0.00000  Uiso   1.00
C10    C     0.62426   0.72118   0.78261   0.00000  Uiso   1.00
C11    C     0.63925   0.66247   0.88525   0.00000  Uiso   1.00
C12    C     0.66908   0.67800   0.92530   0.00000  Uiso   1.00
C13    C     0.71761   0.67413   0.02662   0.00000  Uiso   1.00
C14    C     0.61793   0.84860   0.61184   0.00000  Uiso   1.00
C15    C     0.59347   0.88276   0.69022   0.00000  Uiso   1.00
C16    C     0.58537   0.97399   0.70335   0.00000  Uiso   1.00
C17    C     0.56244   0.99102   0.77922   0.00000  Uiso   1.00
C18    C     0.60373   0.77976   0.49954   0.00000  Uiso   1.00
C19    C     0.60425   0.78438   0.35234   0.00000  Uiso   1.00
C20    C     0.58995   0.71470   0.26768   0.00000  Uiso   1.00
C21    C     0.63856   0.79286   0.72209   0.00000  Uiso   1.00
C22    C     0.66838   0.80848   0.76198   0.00000  Uiso   1.00
C23    C     0.68341   0.74980   0.86466   0.00000  Uiso   1.00
H24    H     0.58047   0.66084   0.77037   0.00000  Uiso   1.00
H25    H     0.54518   0.77250   0.87343   0.00000  Uiso   1.00
H26    H     0.56406   0.58292   0.52248   0.00000  Uiso   1.00
H27    H     0.62818   0.60701   0.93206   0.00000  Uiso   1.00
H28    H     0.51235   0.92790   0.96095   0.00000  Uiso   1.00
H29    H     0.55217   0.52814   0.22096   0.00000  Uiso   1.00
H30    H     0.68737   0.57894   0.08463   0.00000  Uiso   1.00
H31    H     0.62907   0.90441   0.56472   0.00000  Uiso   1.00
H32    H     0.59644   0.02944   0.65650   0.00000  Uiso   1.00
H33    H     0.61532   0.83985   0.30554   0.00000  Uiso   1.00
H34    H     0.67944   0.86395   0.71512   0.00000  Uiso   1.00
H35    H     0.55396   0.13645   0.78488   0.00000  Uiso   1.00
H36    H     0.59378   0.73668   0.04488   0.00000  Uiso   1.00
H37    H     0.72897   0.78749   0.90856   0.00000  Uiso   1.00
O38    O     0.51081   0.11003   0.93696   0.00000  Uiso   1.00
O39    O     0.56305   0.58555   0.96613   0.00000  Uiso   1.00
O40    O     0.74043   0.65220   0.09925   0.00000  Uiso   1.00
N41    N     0.52663   0.95983   0.90694   0.00000  Uiso   1.00
N42    N     0.56385   0.58608   0.21509   0.00000  Uiso   1.00
N43    N     0.69025   0.63356   0.02252   0.00000  Uiso   1.00
N44    N     0.54901   0.07204   0.81220   0.00000  Uiso   1.00
N45    N     0.58624   0.69830   0.12035   0.00000  Uiso   1.00
N46    N     0.71264   0.74577   0.92778   0.00000  Uiso   1.00
C47    C     0.09161   0.21664   0.72326   0.00000  Uiso   1.00
C48    C     0.07917   0.31109   0.75075   0.00000  Uiso   1.00
C49    C     0.05624   0.32799   0.82662   0.00000  Uiso   1.00
C50    C     0.04811   0.41921   0.83985   0.00000  Uiso   1.00
C51    C     0.02662   0.55496   0.89167   0.00000  Uiso   1.00
C52    C     0.08943   0.20809   0.56006   0.00000  Uiso   1.00
C53    C     0.07512   0.13838   0.47561   0.00000  Uiso   1.00
C54    C     0.07563   0.14290   0.32832   0.00000  Uiso   1.00
C55    C     0.07007   0.11869   0.08411   0.00000  Uiso   1.00
C56    C     0.12426   0.22118   0.78261   0.00000  Uiso   1.00
C57    C     0.13925   0.16247   0.88525   0.00000  Uiso   1.00
C58    C     0.16908   0.17800   0.92530   0.00000  Uiso   1.00
C59    C     0.21761   0.17413   0.02662   0.00000  Uiso   1.00
C60    C     0.11793   0.34860   0.61184   0.00000  Uiso   1.00
C61    C     0.09347   0.38276   0.69022   0.00000  Uiso   1.00
C62    C     0.08537   0.47399   0.70335   0.00000  Uiso   1.00
C63    C     0.06244   0.49102   0.77922   0.00000  Uiso   1.00
C64    C     0.10373   0.27976   0.49954   0.00000  Uiso   1.00
C65    C     0.10425   0.28438   0.35234   0.00000  Uiso   1.00
C66    C     0.08995   0.21470   0.26768   0.00000  Uiso   1.00
C67    C     0.13856   0.29286   0.72209   0.00000  Uiso   1.00
C68    C     0.16838   0.30848   0.76198   0.00000  Uiso   1.00
C69    C     0.18341   0.24980   0.86466   0.00000  Uiso   1.00
H70    H     0.08047   0.16084   0.77037   0.00000  Uiso   1.00
H71    H     0.04518   0.27250   0.87343   0.00000  Uiso   1.00
H72    H     0.06406   0.08292   0.52248   0.00000  Uiso   1.00
H73    H     0.12818   0.10701   0.93206   0.00000  Uiso   1.00
H74    H     0.01235   0.42790   0.96095   0.00000  Uiso   1.00
H75    H     0.05217   0.02814   0.22096   0.00000  Uiso   1.00
H76    H     0.18737   0.07894   0.08463   0.00000  Uiso   1.00
H77    H     0.12907   0.40441   0.56472   0.00000  Uiso   1.00
H78    H     0.09644   0.52944   0.65650   0.00000  Uiso   1.00
H79    H     0.11532   0.33985   0.30554   0.00000  Uiso   1.00
H80    H     0.17944   0.36395   0.71512   0.00000  Uiso   1.00
H81    H     0.05396   0.63645   0.78488   0.00000  Uiso   1.00
H82    H     0.09378   0.23668   0.04488   0.00000  Uiso   1.00
H83    H     0.22897   0.28749   0.90856   0.00000  Uiso   1.00
O84    O     0.01081   0.61003   0.93696   0.00000  Uiso   1.00
O85    O     0.06305   0.08555   0.96613   0.00000  Uiso   1.00
O86    O     0.24043   0.15220   0.09925   0.00000  Uiso   1.00
N87    N     0.02663   0.45983   0.90694   0.00000  Uiso   1.00
N88    N     0.06385   0.08608   0.21509   0.00000  Uiso   1.00
N89    N     0.19025   0.13356   0.02252   0.00000  Uiso   1.00
N90    N     0.04901   0.57204   0.81220   0.00000  Uiso   1.00
N91    N     0.08624   0.19830   0.12035   0.00000  Uiso   1.00
N92    N     0.21264   0.24577   0.92778   0.00000  Uiso   1.00
C93    C     0.40839   0.71664   0.77674   0.00000  Uiso   1.00
C94    C     0.42083   0.81109   0.74925   0.00000  Uiso   1.00
C95    C     0.44376   0.82799   0.67338   0.00000  Uiso   1.00
C96    C     0.45189   0.91921   0.66015   0.00000  Uiso   1.00
C97    C     0.47338   0.05496   0.60833   0.00000  Uiso   1.00
C98    C     0.41057   0.70809   0.93994   0.00000  Uiso   1.00
C99    C     0.42488   0.63838   0.02439   0.00000  Uiso   1.00
C100   C     0.42437   0.64290   0.17168   0.00000  Uiso   1.00
C101   C     0.42993   0.61869   0.41589   0.00000  Uiso   1.00
C102   C     0.37574   0.72118   0.71739   0.00000  Uiso   1.00
C103   C     0.36075   0.66247   0.61475   0.00000  Uiso   1.00
C104   C     0.33092   0.67800   0.57470   0.00000  Uiso   1.00
C105   C     0.28239   0.67413   0.47338   0.00000  Uiso   1.00
C106   C     0.38207   0.84860   0.88816   0.00000  Uiso   1.00
C107   C     0.40653   0.88276   0.80978   0.00000  Uiso   1.00
C108   C     0.41463   0.97399   0.79665   0.00000  Uiso   1.00
C109   C     0.43756   0.99102   0.72078   0.00000  Uiso   1.00
C110   C     0.39627   0.77976   0.00046   0.00000  Uiso   1.00
C111   C     0.39575   0.78438   0.14766   0.00000  Uiso   1.00
C112   C     0.41005   0.71470   0.23232   0.00000  Uiso   1.00
C113   C     0.36144   0.79286   0.77791   0.00000  Uiso   1.00
C114   C     0.33162   0.80848   0.73802   0.00000  Uiso   1.00
C115   C     0.31659   0.74980   0.63534   0.00000  Uiso   1.00
H116   H     0.41953   0.66084   0.72963   0.00000  Uiso   1.00
H117   H     0.45482   0.77250   0.62657   0.00000  Uiso   1.00
H118   H     0.43594   0.58292   0.97752   0.00000  Uiso   1.00
H119   H     0.37182   0.60701   0.56794   0.00000  Uiso   1.00
H120   H     0.48765   0.92790   0.53905   0.00000  Uiso   1.00
H121   H     0.44783   0.52814   0.27904   0.00000  Uiso   1.00
H122   H     0.31263   0.57894   0.41537   0.00000  Uiso   1.00
H123   H     0.37093   0.90441   0.93528   0.00000  Uiso   1.00
H124   H     0.40356   0.02944   0.84350   0.00000  Uiso   1.00
H125   H     0.38468   0.83985   0.19446   0.00000  Uiso   1.00
H126   H     0.32056   0.86395   0.78488   0.00000  Uiso   1.00
H127   H     0.44604   0.13645   0.71512   0.00000  Uiso   1.00
H128   H     0.40622   0.73668   0.45512   0.00000  Uiso   1.00
H129   H     0.27103   0.78749   0.59144   0.00000  Uiso   1.00
O130   O     0.48919   0.11003   0.56304   0.00000  Uiso   1.00
O131   O     0.43695   0.58555   0.53387   0.00000  Uiso   1.00
O132   O     0.25957   0.65220   0.40075   0.00000  Uiso   1.00
N133   N     0.47337   0.95983   0.59306   0.00000  Uiso   1.00
N134   N     0.43615   0.58608   0.28491   0.00000  Uiso   1.00
N135   N     0.30975   0.63356   0.47748   0.00000  Uiso   1.00
N136   N     0.45099   0.07204   0.68780   0.00000  Uiso   1.00
N137   N     0.41376   0.69830   0.37965   0.00000  Uiso   1.00
N138   N     0.28736   0.74577   0.57222   0.00000  Uiso   1.00
C139   C     0.90839   0.21664   0.77674   0.00000  Uiso   1.00
C140   C     0.92083   0.31109   0.74925   0.00000  Uiso   1.00
C141   C     0.94376   0.32799   0.67338   0.00000  Uiso   1.00
C142   C     0.95189   0.41921   0.66015   0.00000  Uiso   1.00
C143   C     0.97338   0.55496   0.60833   0.00000  Uiso   1.00
C144   C     0.91057   0.20809   0.93994   0.00000  Uiso   1.00
C145   C     0.92488   0.13838   0.02439   0.00000  Uiso   1.00
C146   C     0.92437   0.14290   0.17168   0.00000  Uiso   1.00
C147   C     0.92993   0.11869   0.41589   0.00000  Uiso   1.00
C148   C     0.87574   0.22118   0.71739   0.00000  Uiso   1.00
C149   C     0.86075   0.16247   0.61475   0.00000  Uiso   1.00
C150   C     0.83092   0.17800   0.57470   0.00000  Uiso   1.00
C151   C     0.78239   0.17413   0.47338   0.00000  Uiso   1.00
C152   C     0.88207   0.34860   0.88816   0.00000  Uiso   1.00
C153   C     0.90653   0.38276   0.80978   0.00000  Uiso   1.00
C154   C     0.91463   0.47399   0.79665   0.00000  Uiso   1.00
C155   C     0.93756   0.49102   0.72078   0.00000  Uiso   1.00
C156   C     0.89627   0.27976   0.00046   0.00000  Uiso   1.00
C157   C     0.89575   0.28438   0.14766   0.00000  Uiso   1.00
C158   C     0.91005   0.21470   0.23232   0.00000  Uiso   1.00
C159   C     0.86144   0.29286   0.77791   0.00000  Uiso   1.00
C160   C     0.83162   0.30848   0.73802   0.00000  Uiso   1.00
C161   C     0.81659   0.24980   0.63534   0.00000  Uiso   1.00
H162   H     0.91953   0.16084   0.72963   0.00000  Uiso   1.00
H163   H     0.95482   0.27250   0.62657   0.00000  Uiso   1.00
H164   H     0.93594   0.08292   0.97752   0.00000  Uiso   1.00
H165   H     0.87182   0.10701   0.56794   0.00000  Uiso   1.00
H166   H     0.98765   0.42790   0.53905   0.00000  Uiso   1.00
H167   H     0.94783   0.02814   0.27904   0.00000  Uiso   1.00
H168   H     0.81263   0.07894   0.41537   0.00000  Uiso   1.00
H169   H     0.87093   0.40441   0.93528   0.00000  Uiso   1.00
H170   H     0.90356   0.52944   0.84350   0.00000  Uiso   1.00
H171   H     0.88468   0.33985   0.19446   0.00000  Uiso   1.00
H172   H     0.82056   0.36395   0.78488   0.00000  Uiso   1.00
H173   H     0.94604   0.63645   0.71512   0.00000  Uiso   1.00
H174   H     0.90622   0.23668   0.45512   0.00000  Uiso   1.00
H175   H     0.77103   0.28749   0.59144   0.00000  Uiso   1.00
O176   O     0.98919   0.61003   0.56304   0.00000  Uiso   1.00
O177   O     0.93695   0.08555   0.53387   0.00000  Uiso   1.00
O178   O     0.75957   0.15220   0.40075   0.00000  Uiso   1.00
N179   N     0.97337   0.45983   0.59306   0.00000  Uiso   1.00
N180   N     0.93615   0.08608   0.28491   0.00000  Uiso   1.00
N181   N     0.80975   0.13356   0.47748   0.00000  Uiso   1.00
N182   N     0.95099   0.57204   0.68780   0.00000  Uiso   1.00
N183   N     0.91376   0.19830   0.37965   0.00000  Uiso   1.00
N184   N     0.78736   0.24577   0.57222   0.00000  Uiso   1.00
C185   C     0.40839   0.28336   0.27674   0.00000  Uiso   1.00
C186   C     0.42083   0.18891   0.24925   0.00000  Uiso   1.00
C187   C     0.44376   0.17201   0.17338   0.00000  Uiso   1.00
C188   C     0.45189   0.08079   0.16015   0.00000  Uiso   1.00
C189   C     0.47338   0.94504   0.10833   0.00000  Uiso   1.00
C190   C     0.41057   0.29191   0.43994   0.00000  Uiso   1.00
C191   C     0.42488   0.36162   0.52439   0.00000  Uiso   1.00
C192   C     0.42437   0.35710   0.67168   0.00000  Uiso   1.00
C193   C     0.42993   0.38131   0.91589   0.00000  Uiso   1.00
C194   C     0.37574   0.27882   0.21739   0.00000  Uiso   1.00
C195   C     0.36075   0.33753   0.11475   0.00000  Uiso   1.00
C196   C     0.33092   0.32200   0.07470   0.00000  Uiso   1.00
C197   C     0.28239   0.32587   0.97338   0.00000  Uiso   1.00
C198   C     0.38207   0.15140   0.38816   0.00000  Uiso   1.00
C199   C     0.40653   0.11724   0.30978   0.00000  Uiso   1.00
C200   C     0.41463   0.02601   0.29665   0.00000  Uiso   1.00
C201   C     0.43756   0.00898   0.22078   0.00000  Uiso   1.00
C202   C     0.39627   0.22024   0.50046   0.00000  Uiso   1.00
C203   C     0.39575   0.21562   0.64766   0.00000  Uiso   1.00
C204   C     0.41005   0.28530   0.73232   0.00000  Uiso   1.00
C205   C     0.36144   0.20714   0.27791   0.00000  Uiso   1.00
C206   C     0.33162   0.19152   0.23802   0.00000  Uiso   1.00
C207   C     0.31659   0.25020   0.13534   0.00000  Uiso   1.00
H208   H     0.41953   0.33916   0.22963   0.00000  Uiso   1.00
H209   H     0.45482   0.22750   0.12657   0.00000  Uiso   1.00
H210   H     0.43594   0.41708   0.47752   0.00000  Uiso   1.00
H211   H     0.37182   0.39299   0.06794   0.00000  Uiso   1.00
H212   H     0.48765   0.07210   0.03905   0.00000  Uiso   1.00
H213   H     0.44783   0.47186   0.77904   0.00000  Uiso   1.00
H214   H     0.31263   0.42106   0.91537   0.00000  Uiso   1.00
H215   H     0.37093   0.09559   0.43528   0.00000  Uiso   1.00
H216   H     0.40356   0.97056   0.34350   0.00000  Uiso   1.00
H217   H     0.38468   0.16015   0.69446   0.00000  Uiso   1.00
H218   H     0.32056   0.13605   0.28488   0.00000  Uiso   1.00
H219   H     0.44604   0.86355   0.21512   0.00000  Uiso   1.00
H220   H     0.40622   0.26332   0.95512   0.00000  Uiso   1.00
H221   H     0.27103   0.21251   0.09144   0.00000  Uiso   1.00
O222   O     0.48919   0.88997   0.06304   0.00000  Uiso   1.00
O223   O     0.43695   0.41445   0.03387   0.00000  Uiso   1.00
O224   O     0.25957   0.34780   0.90075   0.00000  Uiso   1.00
N225   N     0.47337   0.04017   0.09306   0.00000  Uiso   1.00
N226   N     0.43615   0.41392   0.78491   0.00000  Uiso   1.00
N227   N     0.30975   0.36644   0.97748   0.00000  Uiso   1.00
N228   N     0.45099   0.92796   0.18780   0.00000  Uiso   1.00
N229   N     0.41376   0.30170   0.87965   0.00000  Uiso   1.00
N230   N     0.28736   0.25423   0.07222   0.00000  Uiso   1.00
C231   C     0.90839   0.78336   0.27674   0.00000  Uiso   1.00
C232   C     0.92083   0.68891   0.24925   0.00000  Uiso   1.00
C233   C     0.94376   0.67201   0.17338   0.00000  Uiso   1.00
C234   C     0.95189   0.58079   0.16015   0.00000  Uiso   1.00
C235   C     0.97338   0.44504   0.10833   0.00000  Uiso   1.00
C236   C     0.91057   0.79191   0.43994   0.00000  Uiso   1.00
C237   C     0.92488   0.86162   0.52439   0.00000  Uiso   1.00
C238   C     0.92437   0.85710   0.67168   0.00000  Uiso   1.00
C239   C     0.92993   0.88131   0.91589   0.00000  Uiso   1.00
C240   C     0.87574   0.77882   0.21739   0.00000  Uiso   1.00
C241   C     0.86075   0.83753   0.11475   0.00000  Uiso   1.00
C242   C     0.83092   0.82200   0.07470   0.00000  Uiso   1.00
C243   C     0.78239   0.82587   0.97338   0.00000  Uiso   1.00
C244   C     0.88207   0.65140   0.38816   0.00000  Uiso   1.00
C245   C     0.90653   0.61724   0.30978   0.00000  Uiso   1.00
C246   C     0.91463   0.52601   0.29665   0.00000  Uiso   1.00
C247   C     0.93756   0.50898   0.22078   0.00000  Uiso   1.00
C248   C     0.89627   0.72024   0.50046   0.00000  Uiso   1.00
C249   C     0.89575   0.71562   0.64766   0.00000  Uiso   1.00
C250   C     0.91005   0.78530   0.73232   0.00000  Uiso   1.00
C251   C     0.86144   0.70714   0.27791   0.00000  Uiso   1.00
C252   C     0.83162   0.69152   0.23802   0.00000  Uiso   1.00
C253   C     0.81659   0.75020   0.13534   0.00000  Uiso   1.00
H254   H     0.91953   0.83916   0.22963   0.00000  Uiso   1.00
H255   H     0.95482   0.72750   0.12657   0.00000  Uiso   1.00
H256   H     0.93594   0.91708   0.47752   0.00000  Uiso   1.00
H257   H     0.87182   0.89299   0.06794   0.00000  Uiso   1.00
H258   H     0.98765   0.57210   0.03905   0.00000  Uiso   1.00
H259   H     0.94783   0.97186   0.77904   0.00000  Uiso   1.00
H260   H     0.81263   0.92106   0.91537   0.00000  Uiso   1.00
H261   H     0.87093   0.59559   0.43528   0.00000  Uiso   1.00
H262   H     0.90356   0.47056   0.34350   0.00000  Uiso   1.00
H263   H     0.88468   0.66015   0.69446   0.00000  Uiso   1.00
H264   H     0.82056   0.63605   0.28488   0.00000  Uiso   1.00
H265   H     0.94604   0.36355   0.21512   0.00000  Uiso   1.00
H266   H     0.90622   0.76332   0.95512   0.00000  Uiso   1.00
H267   H     0.77103   0.71251   0.09144   0.00000  Uiso   1.00
O268   O     0.98919   0.38997   0.06304   0.00000  Uiso   1.00
O269   O     0.93695   0.91445   0.03387   0.00000  Uiso   1.00
O270   O     0.75957   0.84780   0.90075   0.00000  Uiso   1.00
N271   N     0.97337   0.54017   0.09306   0.00000  Uiso   1.00
N272   N     0.93615   0.91392   0.78491   0.00000  Uiso   1.00
N273   N     0.80975   0.86644   0.97748   0.00000  Uiso   1.00
N274   N     0.95099   0.42796   0.18780   0.00000  Uiso   1.00
N275   N     0.91376   0.80170   0.87965   0.00000  Uiso   1.00
N276   N     0.78736   0.75423   0.07222   0.00000  Uiso   1.00
C277   C     0.59161   0.28336   0.22326   0.00000  Uiso   1.00
C278   C     0.57917   0.18891   0.25075   0.00000  Uiso   1.00
C279   C     0.55624   0.17201   0.32662   0.00000  Uiso   1.00
C280   C     0.54811   0.08079   0.33985   0.00000  Uiso   1.00
C281   C     0.52662   0.94504   0.39167   0.00000  Uiso   1.00
C282   C     0.58943   0.29191   0.06006   0.00000  Uiso   1.00
C283   C     0.57512   0.36162   0.97561   0.00000  Uiso   1.00
C284   C     0.57563   0.35710   0.82832   0.00000  Uiso   1.00
C285   C     0.57007   0.38131   0.58411   0.00000  Uiso   1.00
C286   C     0.62426   0.27882   0.28261   0.00000  Uiso   1.00
C287   C     0.63925   0.33753   0.38525   0.00000  Uiso   1.00
C288   C     0.66908   0.32200   0.42530   0.00000  Uiso   1.00
C289   C     0.71761   0.32587   0.52662   0.00000  Uiso   1.00
C290   C     0.61793   0.15140   0.11184   0.00000  Uiso   1.00
C291   C     0.59347   0.11724   0.19022   0.00000  Uiso   1.00
C292   C     0.58537   0.02601   0.20335   0.00000  Uiso   1.00
C293   C     0.56244   0.00898   0.27922   0.00000  Uiso   1.00
C294   C     0.60373   0.22024   0.99954   0.00000  Uiso   1.00
C295   C     0.60425   0.21562   0.85234   0.00000  Uiso   1.00
C296   C     0.58995   0.28530   0.76768   0.00000  Uiso   1.00
C297   C     0.63856   0.20714   0.22209   0.00000  Uiso   1.00
C298   C     0.66838   0.19152   0.26198   0.00000  Uiso   1.00
C299   C     0.68341   0.25020   0.36466   0.00000  Uiso   1.00
H300   H     0.58047   0.33916   0.27037   0.00000  Uiso   1.00
H301   H     0.54518   0.22750   0.37343   0.00000  Uiso   1.00
H302   H     0.56406   0.41708   0.02248   0.00000  Uiso   1.00
H303   H     0.62818   0.39299   0.43206   0.00000  Uiso   1.00
H304   H     0.51235   0.07210   0.46095   0.00000  Uiso   1.00
H305   H     0.55217   0.47186   0.72096   0.00000  Uiso   1.00
H306   H     0.68737   0.42106   0.58463   0.00000  Uiso   1.00
H307   H     0.62907   0.09559   0.06472   0.00000  Uiso   1.00
H308   H     0.59644   0.97056   0.15650   0.00000  Uiso   1.00
H309   H     0.61532   0.16015   0.80554   0.00000  Uiso   1.00
H310   H     0.67944   0.13605   0.21512   0.00000  Uiso   1.00
H311   H     0.55396   0.86355   0.28488   0.00000  Uiso   1.00
H312   H     0.59378   0.26332   0.54488   0.00000  Uiso   1.00
H313   H     0.72897   0.21251   0.40856   0.00000  Uiso   1.00
O314   O     0.51081   0.88997   0.43696   0.00000  Uiso   1.00
O315   O     0.56305   0.41445   0.46613   0.00000  Uiso   1.00
O316   O     0.74043   0.34780   0.59925   0.00000  Uiso   1.00
N317   N     0.52663   0.04017   0.40694   0.00000  Uiso   1.00
N318   N     0.56385   0.41392   0.71509   0.00000  Uiso   1.00
N319   N     0.69025   0.36644   0.52252   0.00000  Uiso   1.00
N320   N     0.54901   0.92796   0.31220   0.00000  Uiso   1.00
N321   N     0.58624   0.30170   0.62035   0.00000  Uiso   1.00
N322   N     0.71264   0.25423   0.42778   0.00000  Uiso   1.00
C323   C     0.09161   0.78336   0.22326   0.00000  Uiso   1.00
C324   C     0.07917   0.68891   0.25075   0.00000  Uiso   1.00
C325   C     0.05624   0.67201   0.32662   0.00000  Uiso   1.00
C326   C     0.04811   0.58079   0.33985   0.00000  Uiso   1.00
C327   C     0.02662   0.44504   0.39167   0.00000  Uiso   1.00
C328   C     0.08943   0.79191   0.06006   0.00000  Uiso   1.00
C329   C     0.07512   0.86162   0.97561   0.00000  Uiso   1.00
C330   C     0.07563   0.85710   0.82832   0.00000  Uiso   1.00
C331   C     0.07007   0.88131   0.58411   0.00000  Uiso   1.00
C332   C     0.12426   0.77882   0.28261   0.00000  Uiso   1.00
C333   C     0.13925   0.83753   0.38525   0.00000  Uiso   1.00
C334   C     0.16908   0.82200   0.42530   0.00000  Uiso   1.00
C335   C     0.21761   0.82587   0.52662   0.00000  Uiso   1.00
C336   C     0.11793   0.65140   0.11184   0.00000  Uiso   1.00
C337   C     0.09347   0.61724   0.19022   0.00000  Uiso   1.00
C338   C     0.08537   0.52601   0.20335   0.00000  Uiso   1.00
C339   C     0.06244   0.50898   0.27922   0.00000  Uiso   1.00
C340   C     0.10373   0.72024   0.99954   0.00000  Uiso   1.00
C341   C     0.10425   0.71562   0.85234   0.00000  Uiso   1.00
C342   C     0.08995   0.78530   0.76768   0.00000  Uiso   1.00
C343   C     0.13856   0.70714   0.22209   0.00000  Uiso   1.00
C344   C     0.16838   0.69152   0.26198   0.00000  Uiso   1.00
C345   C     0.18341   0.75020   0.36466   0.00000  Uiso   1.00
H346   H     0.08047   0.83916   0.27037   0.00000  Uiso   1.00
H347   H     0.04518   0.72750   0.37343   0.00000  Uiso   1.00
H348   H     0.06406   0.91708   0.02248   0.00000  Uiso   1.00
H349   H     0.12818   0.89299   0.43206   0.00000  Uiso   1.00
H350   H     0.01235   0.57210   0.46095   0.00000  Uiso   1.00
H351   H     0.05217   0.97186   0.72096   0.00000  Uiso   1.00
H352   H     0.18737   0.92106   0.58463   0.00000  Uiso   1.00
H353   H     0.12907   0.59559   0.06472   0.00000  Uiso   1.00
H354   H     0.09644   0.47056   0.15650   0.00000  Uiso   1.00
H355   H     0.11532   0.66015   0.80554   0.00000  Uiso   1.00
H356   H     0.17944   0.63605   0.21512   0.00000  Uiso   1.00
H357   H     0.05396   0.36355   0.28488   0.00000  Uiso   1.00
H358   H     0.09378   0.76332   0.54488   0.00000  Uiso   1.00
H359   H     0.22897   0.71251   0.40856   0.00000  Uiso   1.00
O360   O     0.01081   0.38997   0.43696   0.00000  Uiso   1.00
O361   O     0.06305   0.91445   0.46613   0.00000  Uiso   1.00
O362   O     0.24043   0.84780   0.59925   0.00000  Uiso   1.00
N363   N     0.02663   0.54017   0.40694   0.00000  Uiso   1.00
N364   N     0.06385   0.91392   0.71509   0.00000  Uiso   1.00
N365   N     0.19025   0.86644   0.52252   0.00000  Uiso   1.00
N366   N     0.04901   0.42796   0.31220   0.00000  Uiso   1.00
N367   N     0.08624   0.80170   0.62035   0.00000  Uiso   1.00
N368   N     0.21264   0.75423   0.42778   0.00000  Uiso   1.00
