data_job_05188
_audit_creation_date              2018-12-19
_audit_creation_method            'Materials Studio'
_symmetry_space_group_name_H-M    'P1'
_symmetry_Int_Tables_number       1
_symmetry_cell_setting            triclinic
loop_
_symmetry_equiv_pos_as_xyz
  x,y,z
_cell_length_a                    18.7418
_cell_length_b                    8.2153
_cell_length_c                    40.5000
_cell_angle_alpha                 90.0000
_cell_angle_beta                  90.0000
_cell_angle_gamma                 90.0000
loop_
_atom_site_label
_atom_site_type_symbol
_atom_site_fract_x
_atom_site_fract_y
_atom_site_fract_z
_atom_site_U_iso_or_equiv
_atom_site_adp_type
_atom_site_occupancy
C1     C     0.56511   0.28347   0.41124   0.00000  Uiso   1.00
C2     C     0.59222   0.14785   0.43368   0.00000  Uiso   1.00
C3     C     0.63983   0.16676   0.45965   0.00000  Uiso   1.00
C4     C     0.65801   0.02767   0.47721   0.00000  Uiso   1.00
C5     C     0.70446   0.84027   0.51328   0.00000  Uiso   1.00
C6     C     0.58329   0.23124   0.37610   0.00000  Uiso   1.00
C7     C     0.62338   0.32028   0.35366   0.00000  Uiso   1.00
C8     C     0.63404   0.25138   0.32274   0.00000  Uiso   1.00
C9     C     0.66658   0.19350   0.26941   0.00000  Uiso   1.00
C10    C     0.48394   0.27897   0.41367   0.00000  Uiso   1.00
C11    C     0.44049   0.40815   0.42279   0.00000  Uiso   1.00
C12    C     0.36750   0.37945   0.42350   0.00000  Uiso   1.00
C13    C     0.24579   0.39568   0.42849   0.00000  Uiso   1.00
C14    C     0.51275   0.00281   0.39626   0.00000  Uiso   1.00
C15    C     0.56378   0.99541   0.42554   0.00000  Uiso   1.00
C16    C     0.58190   0.85625   0.44307   0.00000  Uiso   1.00
C17    C     0.62952   0.87496   0.46905   0.00000  Uiso   1.00
C18    C     0.55486   0.07880   0.36796   0.00000  Uiso   1.00
C19    C     0.56545   0.00977   0.33708   0.00000  Uiso   1.00
C20    C     0.60555   0.09867   0.31459   0.00000  Uiso   1.00
C21    C     0.45550   0.12653   0.40553   0.00000  Uiso   1.00
C22    C     0.38256   0.09763   0.40621   0.00000  Uiso   1.00
C23    C     0.33901   0.22673   0.41534   0.00000  Uiso   1.00
H24    H     0.58726   0.40215   0.41758   0.00000  Uiso   1.00
H25    H     0.66183   0.28476   0.46594   0.00000  Uiso   1.00
H26    H     0.64538   0.43825   0.35996   0.00000  Uiso   1.00
H27    H     0.46252   0.52610   0.42909   0.00000  Uiso   1.00
H28    H     0.73199   0.08737   0.51596   0.00000  Uiso   1.00
H29    H     0.69728   0.41105   0.29250   0.00000  Uiso   1.00
H30    H     0.31168   0.59630   0.43826   0.00000  Uiso   1.00
H31    H     0.49061   0.88412   0.38992   0.00000  Uiso   1.00
H32    H     0.55988   0.73830   0.43676   0.00000  Uiso   1.00
H33    H     0.54343   0.89180   0.33078   0.00000  Uiso   1.00
H34    H     0.36057   0.97965   0.39991   0.00000  Uiso   1.00
H35    H     0.64924   0.64385   0.49228   0.00000  Uiso   1.00
H36    H     0.61453   0.96753   0.26881   0.00000  Uiso   1.00
H37    H     0.22894   0.15277   0.41458   0.00000  Uiso   1.00
O38    O     0.73795   0.77902   0.53542   0.00000  Uiso   1.00
O39    O     0.69240   0.20369   0.24225   0.00000  Uiso   1.00
O40    O     0.18651   0.44673   0.43350   0.00000  Uiso   1.00
N41    N     0.70300   0.00300   0.50396   0.00000  Uiso   1.00
N42    N     0.67056   0.30561   0.29504   0.00000  Uiso   1.00
N43    N     0.31005   0.47882   0.43131   0.00000  Uiso   1.00
N44    N     0.65847   0.76435   0.49122   0.00000  Uiso   1.00
N45    N     0.62603   0.06695   0.28229   0.00000  Uiso   1.00
N46    N     0.26553   0.24016   0.41857   0.00000  Uiso   1.00
C47    C     0.52429   0.28170   0.57769   0.00000  Uiso   1.00
C48    C     0.49764   0.14547   0.55528   0.00000  Uiso   1.00
C49    C     0.44990   0.16334   0.52934   0.00000  Uiso   1.00
C50    C     0.43220   0.02382   0.51182   0.00000  Uiso   1.00
C51    C     0.38638   0.83538   0.47580   0.00000  Uiso   1.00
C52    C     0.50640   0.22925   0.61285   0.00000  Uiso   1.00
C53    C     0.46604   0.31757   0.63530   0.00000  Uiso   1.00
C54    C     0.45572   0.24859   0.66623   0.00000  Uiso   1.00
C55    C     0.42354   0.19026   0.71959   0.00000  Uiso   1.00
C56    C     0.60547   0.27881   0.57522   0.00000  Uiso   1.00
C57    C     0.64840   0.40881   0.56605   0.00000  Uiso   1.00
C58    C     0.72150   0.38156   0.56531   0.00000  Uiso   1.00
C59    C     0.84314   0.40019   0.56025   0.00000  Uiso   1.00
C60    C     0.57777   0.00215   0.59269   0.00000  Uiso   1.00
C61    C     0.52669   0.99363   0.56343   0.00000  Uiso   1.00
C62    C     0.50906   0.85405   0.54594   0.00000  Uiso   1.00
C63    C     0.46130   0.87171   0.51998   0.00000  Uiso   1.00
C64    C     0.53545   0.07742   0.62099   0.00000  Uiso   1.00
C65    C     0.52520   0.00829   0.65190   0.00000  Uiso   1.00
C66    C     0.48482   0.09647   0.67440   0.00000  Uiso   1.00
C67    C     0.63452   0.12697   0.58337   0.00000  Uiso   1.00
C68    C     0.70756   0.09952   0.58264   0.00000  Uiso   1.00
C69    C     0.75060   0.22945   0.57347   0.00000  Uiso   1.00
H70    H     0.50168   0.39991   0.57135   0.00000  Uiso   1.00
H71    H     0.42743   0.28087   0.52305   0.00000  Uiso   1.00
H72    H     0.44357   0.43508   0.62899   0.00000  Uiso   1.00
H73    H     0.62591   0.52630   0.55975   0.00000  Uiso   1.00
H74    H     0.35790   0.08190   0.47310   0.00000  Uiso   1.00
H75    H     0.39195   0.40710   0.69649   0.00000  Uiso   1.00
H76    H     0.77645   0.59946   0.55048   0.00000  Uiso   1.00
H77    H     0.60038   0.88394   0.59903   0.00000  Uiso   1.00
H78    H     0.53154   0.73657   0.55225   0.00000  Uiso   1.00
H79    H     0.54768   0.89079   0.65820   0.00000  Uiso   1.00
H80    H     0.73002   0.98200   0.58895   0.00000  Uiso   1.00
H81    H     0.44240   0.64013   0.49680   0.00000  Uiso   1.00
H82    H     0.47645   0.96533   0.72020   0.00000  Uiso   1.00
H83    H     0.86095   0.15768   0.57418   0.00000  Uiso   1.00
O84    O     0.35307   0.77337   0.45368   0.00000  Uiso   1.00
O85    O     0.39776   0.20004   0.74677   0.00000  Uiso   1.00
O86    O     0.90220   0.45240   0.55520   0.00000  Uiso   1.00
N87    N     0.38724   0.99816   0.48509   0.00000  Uiso   1.00
N88    N     0.41907   0.30219   0.69395   0.00000  Uiso   1.00
N89    N     0.77855   0.48204   0.55745   0.00000  Uiso   1.00
N90    N     0.43271   0.76045   0.49785   0.00000  Uiso   1.00
N91    N     0.46454   0.06448   0.70670   0.00000  Uiso   1.00
N92    N     0.82401   0.24432   0.57020   0.00000  Uiso   1.00
C93    C     0.43489   0.71653   0.91124   0.00000  Uiso   1.00
C94    C     0.40778   0.85215   0.93368   0.00000  Uiso   1.00
C95    C     0.36017   0.83324   0.95965   0.00000  Uiso   1.00
C96    C     0.34199   0.97233   0.97721   0.00000  Uiso   1.00
C97    C     0.29554   0.15973   0.01328   0.00000  Uiso   1.00
C98    C     0.41671   0.76876   0.87610   0.00000  Uiso   1.00
C99    C     0.37662   0.67972   0.85366   0.00000  Uiso   1.00
C100   C     0.36596   0.74862   0.82274   0.00000  Uiso   1.00
C101   C     0.33342   0.80650   0.76941   0.00000  Uiso   1.00
C102   C     0.51606   0.72103   0.91367   0.00000  Uiso   1.00
C103   C     0.55951   0.59185   0.92279   0.00000  Uiso   1.00
C104   C     0.63250   0.62055   0.92350   0.00000  Uiso   1.00
C105   C     0.75421   0.60432   0.92849   0.00000  Uiso   1.00
C106   C     0.48725   0.99719   0.89626   0.00000  Uiso   1.00
C107   C     0.43622   0.00459   0.92554   0.00000  Uiso   1.00
C108   C     0.41810   0.14375   0.94307   0.00000  Uiso   1.00
C109   C     0.37048   0.12504   0.96905   0.00000  Uiso   1.00
C110   C     0.44514   0.92120   0.86796   0.00000  Uiso   1.00
C111   C     0.43455   0.99023   0.83708   0.00000  Uiso   1.00
C112   C     0.39445   0.90133   0.81459   0.00000  Uiso   1.00
C113   C     0.54450   0.87347   0.90553   0.00000  Uiso   1.00
C114   C     0.61744   0.90237   0.90621   0.00000  Uiso   1.00
C115   C     0.66099   0.77327   0.91534   0.00000  Uiso   1.00
H116   H     0.41274   0.59785   0.91758   0.00000  Uiso   1.00
H117   H     0.33817   0.71524   0.96594   0.00000  Uiso   1.00
H118   H     0.35462   0.56175   0.85996   0.00000  Uiso   1.00
H119   H     0.53748   0.47390   0.92909   0.00000  Uiso   1.00
H120   H     0.26801   0.91263   0.01596   0.00000  Uiso   1.00
H121   H     0.30272   0.58895   0.79250   0.00000  Uiso   1.00
H122   H     0.68832   0.40370   0.93826   0.00000  Uiso   1.00
H123   H     0.50939   0.11588   0.88992   0.00000  Uiso   1.00
H124   H     0.44012   0.26170   0.93676   0.00000  Uiso   1.00
H125   H     0.45657   0.10820   0.83078   0.00000  Uiso   1.00
H126   H     0.63943   0.02035   0.89991   0.00000  Uiso   1.00
H127   H     0.35076   0.35615   0.99228   0.00000  Uiso   1.00
H128   H     0.38547   0.03247   0.76881   0.00000  Uiso   1.00
H129   H     0.77106   0.84723   0.91458   0.00000  Uiso   1.00
O130   O     0.26205   0.22098   0.03542   0.00000  Uiso   1.00
O131   O     0.30760   0.79631   0.74225   0.00000  Uiso   1.00
O132   O     0.81349   0.55327   0.93350   0.00000  Uiso   1.00
N133   N     0.29700   0.99700   0.00396   0.00000  Uiso   1.00
N134   N     0.32944   0.69439   0.79504   0.00000  Uiso   1.00
N135   N     0.68995   0.52118   0.93131   0.00000  Uiso   1.00
N136   N     0.34153   0.23565   0.99122   0.00000  Uiso   1.00
N137   N     0.37397   0.93305   0.78229   0.00000  Uiso   1.00
N138   N     0.73447   0.75984   0.91857   0.00000  Uiso   1.00
C139   C     0.47571   0.71830   0.07769   0.00000  Uiso   1.00
C140   C     0.50236   0.85453   0.05528   0.00000  Uiso   1.00
C141   C     0.55010   0.83666   0.02934   0.00000  Uiso   1.00
C142   C     0.56780   0.97618   0.01182   0.00000  Uiso   1.00
C143   C     0.61362   0.16462   0.97580   0.00000  Uiso   1.00
C144   C     0.49360   0.77075   0.11285   0.00000  Uiso   1.00
C145   C     0.53396   0.68243   0.13530   0.00000  Uiso   1.00
C146   C     0.54428   0.75141   0.16623   0.00000  Uiso   1.00
C147   C     0.57646   0.80974   0.21959   0.00000  Uiso   1.00
C148   C     0.39453   0.72119   0.07522   0.00000  Uiso   1.00
C149   C     0.35160   0.59119   0.06605   0.00000  Uiso   1.00
C150   C     0.27850   0.61844   0.06531   0.00000  Uiso   1.00
C151   C     0.15686   0.59981   0.06025   0.00000  Uiso   1.00
C152   C     0.42223   0.99785   0.09269   0.00000  Uiso   1.00
C153   C     0.47331   0.00637   0.06343   0.00000  Uiso   1.00
C154   C     0.49094   0.14595   0.04594   0.00000  Uiso   1.00
C155   C     0.53870   0.12829   0.01998   0.00000  Uiso   1.00
C156   C     0.46455   0.92258   0.12099   0.00000  Uiso   1.00
C157   C     0.47480   0.99171   0.15190   0.00000  Uiso   1.00
C158   C     0.51518   0.90353   0.17440   0.00000  Uiso   1.00
C159   C     0.36548   0.87303   0.08337   0.00000  Uiso   1.00
C160   C     0.29244   0.90048   0.08264   0.00000  Uiso   1.00
C161   C     0.24940   0.77055   0.07347   0.00000  Uiso   1.00
H162   H     0.49832   0.60009   0.07135   0.00000  Uiso   1.00
H163   H     0.57257   0.71913   0.02305   0.00000  Uiso   1.00
H164   H     0.55643   0.56492   0.12899   0.00000  Uiso   1.00
H165   H     0.37409   0.47370   0.05975   0.00000  Uiso   1.00
H166   H     0.64210   0.91810   0.97310   0.00000  Uiso   1.00
H167   H     0.60805   0.59290   0.19649   0.00000  Uiso   1.00
H168   H     0.22355   0.40054   0.05048   0.00000  Uiso   1.00
H169   H     0.39962   0.11606   0.09903   0.00000  Uiso   1.00
H170   H     0.46846   0.26343   0.05225   0.00000  Uiso   1.00
H171   H     0.45232   0.10921   0.15820   0.00000  Uiso   1.00
H172   H     0.26998   0.01800   0.08895   0.00000  Uiso   1.00
H173   H     0.55760   0.35987   0.99680   0.00000  Uiso   1.00
H174   H     0.52355   0.03467   0.22020   0.00000  Uiso   1.00
H175   H     0.13905   0.84232   0.07418   0.00000  Uiso   1.00
O176   O     0.64693   0.22663   0.95368   0.00000  Uiso   1.00
O177   O     0.60224   0.79996   0.24677   0.00000  Uiso   1.00
O178   O     0.09780   0.54760   0.05520   0.00000  Uiso   1.00
N179   N     0.61276   0.00184   0.98509   0.00000  Uiso   1.00
N180   N     0.58093   0.69781   0.19395   0.00000  Uiso   1.00
N181   N     0.22145   0.51796   0.05745   0.00000  Uiso   1.00
N182   N     0.56729   0.23955   0.99785   0.00000  Uiso   1.00
N183   N     0.53546   0.93552   0.20670   0.00000  Uiso   1.00
N184   N     0.17599   0.75568   0.07020   0.00000  Uiso   1.00
C185   C     0.06511   0.71653   0.41124   0.00000  Uiso   1.00
C186   C     0.09222   0.85215   0.43368   0.00000  Uiso   1.00
C187   C     0.13983   0.83324   0.45965   0.00000  Uiso   1.00
C188   C     0.15801   0.97233   0.47721   0.00000  Uiso   1.00
C189   C     0.20446   0.15973   0.51328   0.00000  Uiso   1.00
C190   C     0.08329   0.76876   0.37610   0.00000  Uiso   1.00
C191   C     0.12338   0.67972   0.35366   0.00000  Uiso   1.00
C192   C     0.13404   0.74862   0.32274   0.00000  Uiso   1.00
C193   C     0.16658   0.80650   0.26941   0.00000  Uiso   1.00
C194   C     0.98394   0.72103   0.41367   0.00000  Uiso   1.00
C195   C     0.94049   0.59185   0.42279   0.00000  Uiso   1.00
C196   C     0.86750   0.62055   0.42350   0.00000  Uiso   1.00
C197   C     0.74579   0.60432   0.42849   0.00000  Uiso   1.00
C198   C     0.01275   0.99719   0.39626   0.00000  Uiso   1.00
C199   C     0.06378   0.00459   0.42554   0.00000  Uiso   1.00
C200   C     0.08190   0.14375   0.44307   0.00000  Uiso   1.00
C201   C     0.12952   0.12504   0.46905   0.00000  Uiso   1.00
C202   C     0.05486   0.92120   0.36796   0.00000  Uiso   1.00
C203   C     0.06545   0.99023   0.33708   0.00000  Uiso   1.00
C204   C     0.10555   0.90133   0.31459   0.00000  Uiso   1.00
C205   C     0.95550   0.87347   0.40553   0.00000  Uiso   1.00
C206   C     0.88256   0.90237   0.40621   0.00000  Uiso   1.00
C207   C     0.83901   0.77327   0.41534   0.00000  Uiso   1.00
H208   H     0.08726   0.59785   0.41758   0.00000  Uiso   1.00
H209   H     0.16183   0.71524   0.46594   0.00000  Uiso   1.00
H210   H     0.14538   0.56175   0.35996   0.00000  Uiso   1.00
H211   H     0.96252   0.47390   0.42909   0.00000  Uiso   1.00
H212   H     0.23199   0.91263   0.51596   0.00000  Uiso   1.00
H213   H     0.19728   0.58895   0.29250   0.00000  Uiso   1.00
H214   H     0.81168   0.40370   0.43826   0.00000  Uiso   1.00
H215   H     0.99061   0.11588   0.38992   0.00000  Uiso   1.00
H216   H     0.05988   0.26170   0.43676   0.00000  Uiso   1.00
H217   H     0.04343   0.10820   0.33078   0.00000  Uiso   1.00
H218   H     0.86057   0.02035   0.39991   0.00000  Uiso   1.00
H219   H     0.14924   0.35615   0.49228   0.00000  Uiso   1.00
H220   H     0.11453   0.03247   0.26881   0.00000  Uiso   1.00
H221   H     0.72894   0.84723   0.41458   0.00000  Uiso   1.00
O222   O     0.23795   0.22098   0.53542   0.00000  Uiso   1.00
O223   O     0.19240   0.79631   0.24225   0.00000  Uiso   1.00
O224   O     0.68651   0.55327   0.43350   0.00000  Uiso   1.00
N225   N     0.20300   0.99700   0.50396   0.00000  Uiso   1.00
N226   N     0.17056   0.69439   0.29504   0.00000  Uiso   1.00
N227   N     0.81005   0.52118   0.43131   0.00000  Uiso   1.00
N228   N     0.15847   0.23565   0.49122   0.00000  Uiso   1.00
N229   N     0.12603   0.93305   0.28229   0.00000  Uiso   1.00
N230   N     0.76553   0.75984   0.41857   0.00000  Uiso   1.00
C231   C     0.02429   0.71830   0.57769   0.00000  Uiso   1.00
C232   C     0.99764   0.85453   0.55528   0.00000  Uiso   1.00
C233   C     0.94990   0.83666   0.52934   0.00000  Uiso   1.00
C234   C     0.93220   0.97618   0.51182   0.00000  Uiso   1.00
C235   C     0.88638   0.16462   0.47580   0.00000  Uiso   1.00
C236   C     0.00640   0.77075   0.61285   0.00000  Uiso   1.00
C237   C     0.96604   0.68243   0.63530   0.00000  Uiso   1.00
C238   C     0.95572   0.75141   0.66623   0.00000  Uiso   1.00
C239   C     0.92354   0.80974   0.71959   0.00000  Uiso   1.00
C240   C     0.10547   0.72119   0.57522   0.00000  Uiso   1.00
C241   C     0.14840   0.59119   0.56605   0.00000  Uiso   1.00
C242   C     0.22150   0.61844   0.56531   0.00000  Uiso   1.00
C243   C     0.34314   0.59981   0.56025   0.00000  Uiso   1.00
C244   C     0.07777   0.99785   0.59269   0.00000  Uiso   1.00
C245   C     0.02669   0.00637   0.56343   0.00000  Uiso   1.00
C246   C     0.00906   0.14595   0.54594   0.00000  Uiso   1.00
C247   C     0.96130   0.12829   0.51998   0.00000  Uiso   1.00
C248   C     0.03545   0.92258   0.62099   0.00000  Uiso   1.00
C249   C     0.02520   0.99171   0.65190   0.00000  Uiso   1.00
C250   C     0.98482   0.90353   0.67440   0.00000  Uiso   1.00
C251   C     0.13452   0.87303   0.58337   0.00000  Uiso   1.00
C252   C     0.20756   0.90048   0.58264   0.00000  Uiso   1.00
C253   C     0.25060   0.77055   0.57347   0.00000  Uiso   1.00
H254   H     0.00168   0.60009   0.57135   0.00000  Uiso   1.00
H255   H     0.92743   0.71913   0.52305   0.00000  Uiso   1.00
H256   H     0.94357   0.56492   0.62899   0.00000  Uiso   1.00
H257   H     0.12591   0.47370   0.55975   0.00000  Uiso   1.00
H258   H     0.85790   0.91810   0.47310   0.00000  Uiso   1.00
H259   H     0.89195   0.59290   0.69649   0.00000  Uiso   1.00
H260   H     0.27645   0.40054   0.55048   0.00000  Uiso   1.00
H261   H     0.10038   0.11606   0.59903   0.00000  Uiso   1.00
H262   H     0.03154   0.26343   0.55225   0.00000  Uiso   1.00
H263   H     0.04768   0.10921   0.65820   0.00000  Uiso   1.00
H264   H     0.23002   0.01800   0.58895   0.00000  Uiso   1.00
H265   H     0.94240   0.35987   0.49680   0.00000  Uiso   1.00
H266   H     0.97645   0.03467   0.72020   0.00000  Uiso   1.00
H267   H     0.36095   0.84232   0.57418   0.00000  Uiso   1.00
O268   O     0.85307   0.22663   0.45368   0.00000  Uiso   1.00
O269   O     0.89776   0.79996   0.74677   0.00000  Uiso   1.00
O270   O     0.40220   0.54760   0.55520   0.00000  Uiso   1.00
N271   N     0.88724   0.00184   0.48509   0.00000  Uiso   1.00
N272   N     0.91907   0.69781   0.69395   0.00000  Uiso   1.00
N273   N     0.27855   0.51796   0.55745   0.00000  Uiso   1.00
N274   N     0.93271   0.23955   0.49785   0.00000  Uiso   1.00
N275   N     0.96454   0.93552   0.70670   0.00000  Uiso   1.00
N276   N     0.32401   0.75568   0.57020   0.00000  Uiso   1.00
C277   C     0.93489   0.28347   0.91124   0.00000  Uiso   1.00
C278   C     0.90778   0.14785   0.93368   0.00000  Uiso   1.00
C279   C     0.86017   0.16676   0.95965   0.00000  Uiso   1.00
C280   C     0.84199   0.02767   0.97721   0.00000  Uiso   1.00
C281   C     0.79554   0.84027   0.01328   0.00000  Uiso   1.00
C282   C     0.91671   0.23124   0.87610   0.00000  Uiso   1.00
C283   C     0.87662   0.32028   0.85366   0.00000  Uiso   1.00
C284   C     0.86596   0.25138   0.82274   0.00000  Uiso   1.00
C285   C     0.83342   0.19350   0.76941   0.00000  Uiso   1.00
C286   C     0.01606   0.27897   0.91367   0.00000  Uiso   1.00
C287   C     0.05951   0.40815   0.92279   0.00000  Uiso   1.00
C288   C     0.13250   0.37945   0.92350   0.00000  Uiso   1.00
C289   C     0.25421   0.39568   0.92849   0.00000  Uiso   1.00
C290   C     0.98725   0.00281   0.89626   0.00000  Uiso   1.00
C291   C     0.93622   0.99541   0.92554   0.00000  Uiso   1.00
C292   C     0.91810   0.85625   0.94307   0.00000  Uiso   1.00
C293   C     0.87048   0.87496   0.96905   0.00000  Uiso   1.00
C294   C     0.94514   0.07880   0.86796   0.00000  Uiso   1.00
C295   C     0.93455   0.00977   0.83708   0.00000  Uiso   1.00
C296   C     0.89445   0.09867   0.81459   0.00000  Uiso   1.00
C297   C     0.04450   0.12653   0.90553   0.00000  Uiso   1.00
C298   C     0.11744   0.09763   0.90621   0.00000  Uiso   1.00
C299   C     0.16099   0.22673   0.91534   0.00000  Uiso   1.00
H300   H     0.91274   0.40215   0.91758   0.00000  Uiso   1.00
H301   H     0.83817   0.28476   0.96594   0.00000  Uiso   1.00
H302   H     0.85462   0.43825   0.85996   0.00000  Uiso   1.00
H303   H     0.03748   0.52610   0.92909   0.00000  Uiso   1.00
H304   H     0.76801   0.08737   0.01596   0.00000  Uiso   1.00
H305   H     0.80272   0.41105   0.79250   0.00000  Uiso   1.00
H306   H     0.18832   0.59630   0.93826   0.00000  Uiso   1.00
H307   H     0.00939   0.88412   0.88992   0.00000  Uiso   1.00
H308   H     0.94012   0.73830   0.93676   0.00000  Uiso   1.00
H309   H     0.95657   0.89180   0.83078   0.00000  Uiso   1.00
H310   H     0.13943   0.97965   0.89991   0.00000  Uiso   1.00
H311   H     0.85076   0.64385   0.99228   0.00000  Uiso   1.00
H312   H     0.88547   0.96753   0.76881   0.00000  Uiso   1.00
H313   H     0.27106   0.15277   0.91458   0.00000  Uiso   1.00
O314   O     0.76205   0.77902   0.03542   0.00000  Uiso   1.00
O315   O     0.80760   0.20369   0.74225   0.00000  Uiso   1.00
O316   O     0.31349   0.44673   0.93350   0.00000  Uiso   1.00
N317   N     0.79700   0.00300   0.00396   0.00000  Uiso   1.00
N318   N     0.82944   0.30561   0.79504   0.00000  Uiso   1.00
N319   N     0.18995   0.47882   0.93131   0.00000  Uiso   1.00
N320   N     0.84153   0.76435   0.99122   0.00000  Uiso   1.00
N321   N     0.87397   0.06695   0.78229   0.00000  Uiso   1.00
N322   N     0.23447   0.24016   0.91857   0.00000  Uiso   1.00
C323   C     0.97571   0.28170   0.07769   0.00000  Uiso   1.00
C324   C     0.00236   0.14547   0.05528   0.00000  Uiso   1.00
C325   C     0.05010   0.16334   0.02934   0.00000  Uiso   1.00
C326   C     0.06780   0.02382   0.01182   0.00000  Uiso   1.00
C327   C     0.11362   0.83538   0.97580   0.00000  Uiso   1.00
C328   C     0.99360   0.22925   0.11285   0.00000  Uiso   1.00
C329   C     0.03396   0.31757   0.13530   0.00000  Uiso   1.00
C330   C     0.04428   0.24859   0.16623   0.00000  Uiso   1.00
C331   C     0.07646   0.19026   0.21959   0.00000  Uiso   1.00
C332   C     0.89453   0.27881   0.07522   0.00000  Uiso   1.00
C333   C     0.85160   0.40881   0.06605   0.00000  Uiso   1.00
C334   C     0.77850   0.38156   0.06531   0.00000  Uiso   1.00
C335   C     0.65686   0.40019   0.06025   0.00000  Uiso   1.00
C336   C     0.92223   0.00215   0.09269   0.00000  Uiso   1.00
C337   C     0.97331   0.99363   0.06343   0.00000  Uiso   1.00
C338   C     0.99094   0.85405   0.04594   0.00000  Uiso   1.00
C339   C     0.03870   0.87171   0.01998   0.00000  Uiso   1.00
C340   C     0.96455   0.07742   0.12099   0.00000  Uiso   1.00
C341   C     0.97480   0.00829   0.15190   0.00000  Uiso   1.00
C342   C     0.01518   0.09647   0.17440   0.00000  Uiso   1.00
C343   C     0.86548   0.12697   0.08337   0.00000  Uiso   1.00
C344   C     0.79244   0.09952   0.08264   0.00000  Uiso   1.00
C345   C     0.74940   0.22945   0.07347   0.00000  Uiso   1.00
H346   H     0.99832   0.39991   0.07135   0.00000  Uiso   1.00
H347   H     0.07257   0.28087   0.02305   0.00000  Uiso   1.00
H348   H     0.05643   0.43508   0.12899   0.00000  Uiso   1.00
H349   H     0.87409   0.52630   0.05975   0.00000  Uiso   1.00
H350   H     0.14210   0.08190   0.97310   0.00000  Uiso   1.00
H351   H     0.10805   0.40710   0.19649   0.00000  Uiso   1.00
H352   H     0.72355   0.59946   0.05048   0.00000  Uiso   1.00
H353   H     0.89962   0.88394   0.09903   0.00000  Uiso   1.00
H354   H     0.96846   0.73657   0.05225   0.00000  Uiso   1.00
H355   H     0.95232   0.89079   0.15820   0.00000  Uiso   1.00
H356   H     0.76998   0.98200   0.08895   0.00000  Uiso   1.00
H357   H     0.05760   0.64013   0.99680   0.00000  Uiso   1.00
H358   H     0.02355   0.96533   0.22020   0.00000  Uiso   1.00
H359   H     0.63905   0.15768   0.07418   0.00000  Uiso   1.00
O360   O     0.14693   0.77337   0.95368   0.00000  Uiso   1.00
O361   O     0.10224   0.20004   0.24677   0.00000  Uiso   1.00
O362   O     0.59780   0.45240   0.05520   0.00000  Uiso   1.00
N363   N     0.11276   0.99816   0.98509   0.00000  Uiso   1.00
N364   N     0.08093   0.30219   0.19395   0.00000  Uiso   1.00
N365   N     0.72145   0.48204   0.05745   0.00000  Uiso   1.00
N366   N     0.06729   0.76045   0.99785   0.00000  Uiso   1.00
N367   N     0.03546   0.06448   0.20670   0.00000  Uiso   1.00
N368   N     0.67599   0.24432   0.07020   0.00000  Uiso   1.00
