data_job_02028
_audit_creation_date              2018-12-19
_audit_creation_method            'Materials Studio'
_symmetry_space_group_name_H-M    'P1'
_symmetry_Int_Tables_number       1
_symmetry_cell_setting            triclinic
loop_
_symmetry_equiv_pos_as_xyz
  x,y,z
_cell_length_a                    14.2743
_cell_length_b                    12.3426
_cell_length_c                    24.0673
_cell_angle_alpha                 90.0000
_cell_angle_beta                  41.5225
_cell_angle_gamma                 90.0000
loop_
_atom_site_label
_atom_site_type_symbol
_atom_site_fract_x
_atom_site_fract_y
_atom_site_fract_z
_atom_site_U_iso_or_equiv
_atom_site_adp_type
_atom_site_occupancy
C1     C     0.89014   0.46175   0.68255   0.00000  Uiso   1.00
C2     C     0.89326   0.44096   0.74361   0.00000  Uiso   1.00
C3     C     0.01069   0.45107   0.72561   0.00000  Uiso   1.00
C4     C     0.99181   0.42838   0.79001   0.00000  Uiso   1.00
C5     C     0.01669   0.40086   0.87271   0.00000  Uiso   1.00
C6     C     0.83542   0.35761   0.68039   0.00000  Uiso   1.00
C7     C     0.90422   0.29766   0.60924   0.00000  Uiso   1.00
C8     C     0.83662   0.20481   0.62043   0.00000  Uiso   1.00
C9     C     0.77166   0.04794   0.60499   0.00000  Uiso   1.00
C10    C     0.77564   0.54671   0.72395   0.00000  Uiso   1.00
C11    C     0.79417   0.64575   0.68941   0.00000  Uiso   1.00
C12    C     0.67623   0.71210   0.73726   0.00000  Uiso   1.00
C13    C     0.51847   0.84884   0.78944   0.00000  Uiso   1.00
C14    C     0.64776   0.40346   0.82892   0.00000  Uiso   1.00
C15    C     0.76161   0.40929   0.82311   0.00000  Uiso   1.00
C16    C     0.74253   0.38658   0.88756   0.00000  Uiso   1.00
C17    C     0.85992   0.39667   0.86966   0.00000  Uiso   1.00
C18    C     0.70377   0.32595   0.75990   0.00000  Uiso   1.00
C19    C     0.63605   0.23317   0.77119   0.00000  Uiso   1.00
C20    C     0.70473   0.17309   0.70008   0.00000  Uiso   1.00
C21    C     0.64399   0.51505   0.80345   0.00000  Uiso   1.00
C22    C     0.52600   0.58126   0.85136   0.00000  Uiso   1.00
C23    C     0.54434   0.68038   0.81691   0.00000  Uiso   1.00
H24    H     0.99263   0.48639   0.62065   0.00000  Uiso   1.00
H25    H     0.11257   0.47557   0.66407   0.00000  Uiso   1.00
H26    H     0.00609   0.32219   0.54772   0.00000  Uiso   1.00
H27    H     0.89606   0.67022   0.62788   0.00000  Uiso   1.00
H28    H     0.18748   0.44957   0.74727   0.00000  Uiso   1.00
H29    H     0.96296   0.12618   0.50194   0.00000  Uiso   1.00
H30    H     0.73094   0.86008   0.67096   0.00000  Uiso   1.00
H31    H     0.54526   0.37880   0.89082   0.00000  Uiso   1.00
H32    H     0.64064   0.36208   0.94908   0.00000  Uiso   1.00
H33    H     0.53417   0.20870   0.83273   0.00000  Uiso   1.00
H34    H     0.42414   0.55673   0.91288   0.00000  Uiso   1.00
H35    H     0.80445   0.35745   0.97859   0.00000  Uiso   1.00
H36    H     0.57993   0.03406   0.73326   0.00000  Uiso   1.00
H37    H     0.34791   0.76797   0.90229   0.00000  Uiso   1.00
O38    O     0.06679   0.39442   0.89636   0.00000  Uiso   1.00
O39    O     0.77222   0.97016   0.57450   0.00000  Uiso   1.00
O40    O     0.46782   0.93302   0.79626   0.00000  Uiso   1.00
N41    N     0.08424   0.43021   0.79372   0.00000  Uiso   1.00
N42    N     0.87433   0.12785   0.56435   0.00000  Uiso   1.00
N43    N     0.65741   0.81397   0.72237   0.00000  Uiso   1.00
N44    N     0.87813   0.38064   0.91819   0.00000  Uiso   1.00
N45    N     0.66823   0.07828   0.68883   0.00000  Uiso   1.00
N46    N     0.45130   0.76441   0.84684   0.00000  Uiso   1.00
C47    C     0.10986   0.96175   0.81745   0.00000  Uiso   1.00
C48    C     0.10674   0.94096   0.75639   0.00000  Uiso   1.00
C49    C     0.98931   0.95107   0.77439   0.00000  Uiso   1.00
C50    C     0.00819   0.92838   0.70999   0.00000  Uiso   1.00
C51    C     0.98331   0.90086   0.62729   0.00000  Uiso   1.00
C52    C     0.16458   0.85761   0.81961   0.00000  Uiso   1.00
C53    C     0.09578   0.79766   0.89076   0.00000  Uiso   1.00
C54    C     0.16338   0.70481   0.87957   0.00000  Uiso   1.00
C55    C     0.22834   0.54794   0.89501   0.00000  Uiso   1.00
C56    C     0.22436   0.04671   0.77605   0.00000  Uiso   1.00
C57    C     0.20583   0.14575   0.81059   0.00000  Uiso   1.00
C58    C     0.32377   0.21210   0.76274   0.00000  Uiso   1.00
C59    C     0.48153   0.34884   0.71056   0.00000  Uiso   1.00
C60    C     0.35224   0.90346   0.67108   0.00000  Uiso   1.00
C61    C     0.23839   0.90929   0.67689   0.00000  Uiso   1.00
C62    C     0.25747   0.88658   0.61244   0.00000  Uiso   1.00
C63    C     0.14008   0.89667   0.63034   0.00000  Uiso   1.00
C64    C     0.29623   0.82595   0.74010   0.00000  Uiso   1.00
C65    C     0.36395   0.73317   0.72881   0.00000  Uiso   1.00
C66    C     0.29527   0.67309   0.79992   0.00000  Uiso   1.00
C67    C     0.35601   0.01505   0.69655   0.00000  Uiso   1.00
C68    C     0.47400   0.08126   0.64864   0.00000  Uiso   1.00
C69    C     0.45566   0.18038   0.68309   0.00000  Uiso   1.00
H70    H     0.00737   0.98639   0.87935   0.00000  Uiso   1.00
H71    H     0.88743   0.97557   0.83593   0.00000  Uiso   1.00
H72    H     0.99391   0.82219   0.95228   0.00000  Uiso   1.00
H73    H     0.10394   0.17022   0.87212   0.00000  Uiso   1.00
H74    H     0.81252   0.94957   0.75273   0.00000  Uiso   1.00
H75    H     0.03704   0.62618   0.99806   0.00000  Uiso   1.00
H76    H     0.26906   0.36008   0.82904   0.00000  Uiso   1.00
H77    H     0.45474   0.87880   0.60918   0.00000  Uiso   1.00
H78    H     0.35936   0.86208   0.55092   0.00000  Uiso   1.00
H79    H     0.46583   0.70870   0.66727   0.00000  Uiso   1.00
H80    H     0.57586   0.05673   0.58712   0.00000  Uiso   1.00
H81    H     0.19555   0.85745   0.52141   0.00000  Uiso   1.00
H82    H     0.42007   0.53406   0.76674   0.00000  Uiso   1.00
H83    H     0.65209   0.26797   0.59771   0.00000  Uiso   1.00
O84    O     0.93321   0.89442   0.60364   0.00000  Uiso   1.00
O85    O     0.22778   0.47016   0.92550   0.00000  Uiso   1.00
O86    O     0.53218   0.43302   0.70374   0.00000  Uiso   1.00
N87    N     0.91576   0.93021   0.70628   0.00000  Uiso   1.00
N88    N     0.12567   0.62785   0.93565   0.00000  Uiso   1.00
N89    N     0.34259   0.31397   0.77763   0.00000  Uiso   1.00
N90    N     0.12187   0.88064   0.58181   0.00000  Uiso   1.00
N91    N     0.33177   0.57828   0.81117   0.00000  Uiso   1.00
N92    N     0.54870   0.26441   0.65316   0.00000  Uiso   1.00
C93    C     0.10986   0.53825   0.31745   0.00000  Uiso   1.00
C94    C     0.10674   0.55904   0.25639   0.00000  Uiso   1.00
C95    C     0.98931   0.54893   0.27439   0.00000  Uiso   1.00
C96    C     0.00819   0.57162   0.20999   0.00000  Uiso   1.00
C97    C     0.98331   0.59914   0.12729   0.00000  Uiso   1.00
C98    C     0.16458   0.64239   0.31961   0.00000  Uiso   1.00
C99    C     0.09578   0.70234   0.39076   0.00000  Uiso   1.00
C100   C     0.16338   0.79519   0.37957   0.00000  Uiso   1.00
C101   C     0.22834   0.95206   0.39501   0.00000  Uiso   1.00
C102   C     0.22436   0.45329   0.27605   0.00000  Uiso   1.00
C103   C     0.20583   0.35425   0.31059   0.00000  Uiso   1.00
C104   C     0.32377   0.28790   0.26274   0.00000  Uiso   1.00
C105   C     0.48153   0.15116   0.21056   0.00000  Uiso   1.00
C106   C     0.35224   0.59654   0.17108   0.00000  Uiso   1.00
C107   C     0.23839   0.59071   0.17689   0.00000  Uiso   1.00
C108   C     0.25747   0.61342   0.11244   0.00000  Uiso   1.00
C109   C     0.14008   0.60333   0.13034   0.00000  Uiso   1.00
C110   C     0.29623   0.67405   0.24010   0.00000  Uiso   1.00
C111   C     0.36395   0.76683   0.22881   0.00000  Uiso   1.00
C112   C     0.29527   0.82691   0.29992   0.00000  Uiso   1.00
C113   C     0.35601   0.48495   0.19655   0.00000  Uiso   1.00
C114   C     0.47400   0.41874   0.14864   0.00000  Uiso   1.00
C115   C     0.45566   0.31962   0.18309   0.00000  Uiso   1.00
H116   H     0.00737   0.51361   0.37935   0.00000  Uiso   1.00
H117   H     0.88743   0.52443   0.33593   0.00000  Uiso   1.00
H118   H     0.99391   0.67781   0.45228   0.00000  Uiso   1.00
H119   H     0.10394   0.32978   0.37212   0.00000  Uiso   1.00
H120   H     0.81252   0.55043   0.25273   0.00000  Uiso   1.00
H121   H     0.03704   0.87382   0.49806   0.00000  Uiso   1.00
H122   H     0.26906   0.13992   0.32904   0.00000  Uiso   1.00
H123   H     0.45474   0.62120   0.10918   0.00000  Uiso   1.00
H124   H     0.35936   0.63792   0.05092   0.00000  Uiso   1.00
H125   H     0.46583   0.79130   0.16727   0.00000  Uiso   1.00
H126   H     0.57586   0.44327   0.08712   0.00000  Uiso   1.00
H127   H     0.19555   0.64255   0.02141   0.00000  Uiso   1.00
H128   H     0.42007   0.96594   0.26674   0.00000  Uiso   1.00
H129   H     0.65209   0.23203   0.09771   0.00000  Uiso   1.00
O130   O     0.93321   0.60558   0.10364   0.00000  Uiso   1.00
O131   O     0.22778   0.02984   0.42550   0.00000  Uiso   1.00
O132   O     0.53218   0.06698   0.20374   0.00000  Uiso   1.00
N133   N     0.91576   0.56979   0.20628   0.00000  Uiso   1.00
N134   N     0.12567   0.87215   0.43565   0.00000  Uiso   1.00
N135   N     0.34259   0.18603   0.27763   0.00000  Uiso   1.00
N136   N     0.12187   0.61936   0.08181   0.00000  Uiso   1.00
N137   N     0.33177   0.92172   0.31117   0.00000  Uiso   1.00
N138   N     0.54870   0.23559   0.15316   0.00000  Uiso   1.00
C139   C     0.89014   0.03825   0.18255   0.00000  Uiso   1.00
C140   C     0.89326   0.05904   0.24361   0.00000  Uiso   1.00
C141   C     0.01069   0.04893   0.22561   0.00000  Uiso   1.00
C142   C     0.99181   0.07162   0.29001   0.00000  Uiso   1.00
C143   C     0.01669   0.09914   0.37271   0.00000  Uiso   1.00
C144   C     0.83542   0.14239   0.18039   0.00000  Uiso   1.00
C145   C     0.90422   0.20234   0.10924   0.00000  Uiso   1.00
C146   C     0.83662   0.29519   0.12043   0.00000  Uiso   1.00
C147   C     0.77166   0.45206   0.10499   0.00000  Uiso   1.00
C148   C     0.77564   0.95329   0.22395   0.00000  Uiso   1.00
C149   C     0.79417   0.85425   0.18941   0.00000  Uiso   1.00
C150   C     0.67623   0.78790   0.23726   0.00000  Uiso   1.00
C151   C     0.51847   0.65116   0.28944   0.00000  Uiso   1.00
C152   C     0.64776   0.09654   0.32892   0.00000  Uiso   1.00
C153   C     0.76161   0.09071   0.32311   0.00000  Uiso   1.00
C154   C     0.74253   0.11342   0.38756   0.00000  Uiso   1.00
C155   C     0.85992   0.10333   0.36966   0.00000  Uiso   1.00
C156   C     0.70377   0.17405   0.25990   0.00000  Uiso   1.00
C157   C     0.63605   0.26683   0.27119   0.00000  Uiso   1.00
C158   C     0.70473   0.32691   0.20008   0.00000  Uiso   1.00
C159   C     0.64399   0.98495   0.30345   0.00000  Uiso   1.00
C160   C     0.52600   0.91874   0.35136   0.00000  Uiso   1.00
C161   C     0.54434   0.81962   0.31691   0.00000  Uiso   1.00
H162   H     0.99263   0.01361   0.12065   0.00000  Uiso   1.00
H163   H     0.11257   0.02443   0.16407   0.00000  Uiso   1.00
H164   H     0.00609   0.17781   0.04772   0.00000  Uiso   1.00
H165   H     0.89606   0.82978   0.12788   0.00000  Uiso   1.00
H166   H     0.18748   0.05043   0.24727   0.00000  Uiso   1.00
H167   H     0.96296   0.37382   0.00194   0.00000  Uiso   1.00
H168   H     0.73094   0.63992   0.17096   0.00000  Uiso   1.00
H169   H     0.54526   0.12120   0.39082   0.00000  Uiso   1.00
H170   H     0.64064   0.13792   0.44908   0.00000  Uiso   1.00
H171   H     0.53417   0.29130   0.33273   0.00000  Uiso   1.00
H172   H     0.42414   0.94327   0.41288   0.00000  Uiso   1.00
H173   H     0.80445   0.14255   0.47859   0.00000  Uiso   1.00
H174   H     0.57993   0.46594   0.23326   0.00000  Uiso   1.00
H175   H     0.34791   0.73203   0.40229   0.00000  Uiso   1.00
O176   O     0.06679   0.10558   0.39636   0.00000  Uiso   1.00
O177   O     0.77222   0.52984   0.07450   0.00000  Uiso   1.00
O178   O     0.46782   0.56698   0.29626   0.00000  Uiso   1.00
N179   N     0.08424   0.06979   0.29372   0.00000  Uiso   1.00
N180   N     0.87433   0.37215   0.06435   0.00000  Uiso   1.00
N181   N     0.65741   0.68603   0.22237   0.00000  Uiso   1.00
N182   N     0.87813   0.11936   0.41819   0.00000  Uiso   1.00
N183   N     0.66823   0.42172   0.18883   0.00000  Uiso   1.00
N184   N     0.45130   0.73559   0.34684   0.00000  Uiso   1.00
