data_job_07109
_audit_creation_date              2018-12-19
_audit_creation_method            'Materials Studio'
_symmetry_space_group_name_H-M    'P1'
_symmetry_Int_Tables_number       1
_symmetry_cell_setting            triclinic
loop_
_symmetry_equiv_pos_as_xyz
  x,y,z
_cell_length_a                    22.3065
_cell_length_b                    19.6150
_cell_length_c                    22.9589
_cell_angle_alpha                 79.6693
_cell_angle_beta                  65.9391
_cell_angle_gamma                 82.0587
loop_
_atom_site_label
_atom_site_type_symbol
_atom_site_fract_x
_atom_site_fract_y
_atom_site_fract_z
_atom_site_U_iso_or_equiv
_atom_site_adp_type
_atom_site_occupancy
C1     C     0.50663   0.10335   0.58574   0.00000  Uiso   1.00
C2     C     0.47802   0.17687   0.57253   0.00000  Uiso   1.00
C3     C     0.41172   0.19923   0.59622   0.00000  Uiso   1.00
C4     C     0.39556   0.26851   0.57856   0.00000  Uiso   1.00
C5     C     0.34377   0.37578   0.56409   0.00000  Uiso   1.00
C6     C     0.54700   0.07997   0.51999   0.00000  Uiso   1.00
C7     C     0.53869   0.02085   0.49952   0.00000  Uiso   1.00
C8     C     0.58059   0.00857   0.43764   0.00000  Uiso   1.00
C9     C     0.63591   0.96537   0.34163   0.00000  Uiso   1.00
C10    C     0.55600   0.11030   0.61433   0.00000  Uiso   1.00
C11    C     0.55527   0.07666   0.67317   0.00000  Uiso   1.00
C12    C     0.60476   0.08989   0.69072   0.00000  Uiso   1.00
C13    C     0.67406   0.09378   0.74118   0.00000  Uiso   1.00
C14    C     0.59583   0.18666   0.51226   0.00000  Uiso   1.00
C15    C     0.52647   0.22212   0.53261   0.00000  Uiso   1.00
C16    C     0.51041   0.29139   0.51492   0.00000  Uiso   1.00
C17    C     0.44409   0.31384   0.53858   0.00000  Uiso   1.00
C18    C     0.59544   0.12522   0.48008   0.00000  Uiso   1.00
C19    C     0.63738   0.11302   0.41822   0.00000  Uiso   1.00
C20    C     0.62913   0.05389   0.39765   0.00000  Uiso   1.00
C21    C     0.60445   0.15555   0.57442   0.00000  Uiso   1.00
C22    C     0.65396   0.16883   0.59187   0.00000  Uiso   1.00
C23    C     0.65330   0.13522   0.65073   0.00000  Uiso   1.00
H24    H     0.46891   0.06812   0.61681   0.00000  Uiso   1.00
H25    H     0.37424   0.16419   0.62710   0.00000  Uiso   1.00
H26    H     0.50119   0.98584   0.53042   0.00000  Uiso   1.00
H27    H     0.51777   0.04165   0.70405   0.00000  Uiso   1.00
H28    H     0.29064   0.29065   0.62089   0.00000  Uiso   1.00
H29    H     0.55835   0.91458   0.41704   0.00000  Uiso   1.00
H30    H     0.59330   0.03225   0.78317   0.00000  Uiso   1.00
H31    H     0.63355   0.22188   0.48118   0.00000  Uiso   1.00
H32    H     0.54791   0.32639   0.48403   0.00000  Uiso   1.00
H33    H     0.67486   0.14804   0.38735   0.00000  Uiso   1.00
H34    H     0.69144   0.20385   0.56098   0.00000  Uiso   1.00
H35    H     0.43160   0.42230   0.50477   0.00000  Uiso   1.00
H36    H     0.69931   0.04622   0.30092   0.00000  Uiso   1.00
H37    H     0.73426   0.16390   0.66704   0.00000  Uiso   1.00
O38    O     0.30181   0.42244   0.56713   0.00000  Uiso   1.00
O39    O     0.65304   0.92904   0.29969   0.00000  Uiso   1.00
O40    O     0.69890   0.08343   0.78005   0.00000  Uiso   1.00
N41    N     0.33557   0.30729   0.59318   0.00000  Uiso   1.00
N42    N     0.58585   0.95569   0.40259   0.00000  Uiso   1.00
N43    N     0.61854   0.06569   0.74488   0.00000  Uiso   1.00
N44    N     0.41142   0.37813   0.53070   0.00000  Uiso   1.00
N45    N     0.66170   0.02653   0.34010   0.00000  Uiso   1.00
N46    N     0.69439   0.13653   0.68240   0.00000  Uiso   1.00
C47    C     0.59953   0.54566   0.08271   0.00000  Uiso   1.00
C48    C     0.56280   0.54784   0.15485   0.00000  Uiso   1.00
C49    C     0.56470   0.49492   0.20323   0.00000  Uiso   1.00
C50    C     0.52762   0.50701   0.26626   0.00000  Uiso   1.00
C51    C     0.47628   0.50083   0.37613   0.00000  Uiso   1.00
C52    C     0.54729   0.56004   0.05431   0.00000  Uiso   1.00
C53    C     0.53616   0.51738   0.01814   0.00000  Uiso   1.00
C54    C     0.48603   0.53975   0.99653   0.00000  Uiso   1.00
C55    C     0.41065   0.55254   0.95027   0.00000  Uiso   1.00
C56    C     0.64105   0.60832   0.05673   0.00000  Uiso   1.00
C57    C     0.70875   0.60625   0.02259   0.00000  Uiso   1.00
C58    C     0.73756   0.66927   0.00301   0.00000  Uiso   1.00
C59    C     0.80775   0.75701   0.96052   0.00000  Uiso   1.00
C60    C     0.53030   0.66127   0.10863   0.00000  Uiso   1.00
C61    C     0.52519   0.61064   0.16892   0.00000  Uiso   1.00
C62    C     0.48811   0.62282   0.23190   0.00000  Uiso   1.00
C63    C     0.48995   0.56992   0.28036   0.00000  Uiso   1.00
C64    C     0.50969   0.62283   0.06838   0.00000  Uiso   1.00
C65    C     0.45957   0.64528   0.04682   0.00000  Uiso   1.00
C66    C     0.44836   0.60266   0.01064   0.00000  Uiso   1.00
C67    C     0.60345   0.67111   0.07081   0.00000  Uiso   1.00
C68    C     0.63216   0.73415   0.05127   0.00000  Uiso   1.00
C69    C     0.69989   0.73218   0.01711   0.00000  Uiso   1.00
H70    H     0.62880   0.49678   0.07175   0.00000  Uiso   1.00
H71    H     0.59380   0.44633   0.19231   0.00000  Uiso   1.00
H72    H     0.56527   0.46879   0.00725   0.00000  Uiso   1.00
H73    H     0.73783   0.55765   0.01171   0.00000  Uiso   1.00
H74    H     0.53840   0.41807   0.33219   0.00000  Uiso   1.00
H75    H     0.47825   0.46545   0.94196   0.00000  Uiso   1.00
H76    H     0.84214   0.65283   0.95135   0.00000  Uiso   1.00
H77    H     0.50102   0.71015   0.11959   0.00000  Uiso   1.00
H78    H     0.45901   0.67141   0.24278   0.00000  Uiso   1.00
H79    H     0.43048   0.69387   0.05772   0.00000  Uiso   1.00
H80    H     0.60304   0.78273   0.06218   0.00000  Uiso   1.00
H81    H     0.42899   0.60076   0.37315   0.00000  Uiso   1.00
H82    H     0.36885   0.64814   0.98292   0.00000  Uiso   1.00
H83    H     0.73274   0.83551   0.99232   0.00000  Uiso   1.00
O84    O     0.45835   0.48007   0.43284   0.00000  Uiso   1.00
O85    O     0.37945   0.54224   0.92087   0.00000  Uiso   1.00
O86    O     0.85686   0.78807   0.93320   0.00000  Uiso   1.00
N87    N     0.51842   0.46639   0.32492   0.00000  Uiso   1.00
N88    N     0.46219   0.51068   0.96009   0.00000  Uiso   1.00
N89    N     0.80239   0.68586   0.96886   0.00000  Uiso   1.00
N90    N     0.45956   0.56469   0.34696   0.00000  Uiso   1.00
N91    N     0.40332   0.60899   0.98213   0.00000  Uiso   1.00
N92    N     0.74352   0.78416   0.99090   0.00000  Uiso   1.00
C93    C     0.07837   0.52087   0.48567   0.00000  Uiso   1.00
C94    C     0.14374   0.54311   0.43309   0.00000  Uiso   1.00
C95    C     0.15136   0.59663   0.38262   0.00000  Uiso   1.00
C96    C     0.21526   0.60882   0.33952   0.00000  Uiso   1.00
C97    C     0.30851   0.64941   0.25677   0.00000  Uiso   1.00
C98    C     0.07699   0.44385   0.48358   0.00000  Uiso   1.00
C99    C     0.02848   0.41391   0.47557   0.00000  Uiso   1.00
C100   C     0.03620   0.34254   0.47498   0.00000  Uiso   1.00
C101   C     0.02579   0.22902   0.47066   0.00000  Uiso   1.00
C102   C     0.08287   0.52526   0.54939   0.00000  Uiso   1.00
C103   C     0.03929   0.56376   0.59673   0.00000  Uiso   1.00
C104   C     0.05195   0.56092   0.65156   0.00000  Uiso   1.00
C105   C     0.05066   0.57380   0.74943   0.00000  Uiso   1.00
C106   C     0.17831   0.44736   0.49889   0.00000  Uiso   1.00
C107   C     0.19802   0.50318   0.44027   0.00000  Uiso   1.00
C108   C     0.26194   0.51530   0.39724   0.00000  Uiso   1.00
C109   C     0.26965   0.56882   0.34671   0.00000  Uiso   1.00
C110   C     0.13127   0.40393   0.49076   0.00000  Uiso   1.00
C111   C     0.13906   0.33259   0.49019   0.00000  Uiso   1.00
C112   C     0.09059   0.30254   0.48217   0.00000  Uiso   1.00
C113   C     0.13715   0.48534   0.55657   0.00000  Uiso   1.00
C114   C     0.14987   0.48244   0.61135   0.00000  Uiso   1.00
C115   C     0.10633   0.52092   0.65875   0.00000  Uiso   1.00
H116   H     0.03610   0.55195   0.48008   0.00000  Uiso   1.00
H117   H     0.10933   0.62751   0.37708   0.00000  Uiso   1.00
H118   H     0.98648   0.44482   0.47002   0.00000  Uiso   1.00
H119   H     0.99729   0.59465   0.59116   0.00000  Uiso   1.00
H120   H     0.21446   0.69365   0.26603   0.00000  Uiso   1.00
H121   H     0.95540   0.30845   0.46202   0.00000  Uiso   1.00
H122   H     0.97819   0.62438   0.71747   0.00000  Uiso   1.00
H123   H     0.22058   0.41628   0.50448   0.00000  Uiso   1.00
H124   H     0.30394   0.48440   0.40281   0.00000  Uiso   1.00
H125   H     0.18108   0.30171   0.49575   0.00000  Uiso   1.00
H126   H     0.19189   0.45153   0.61689   0.00000  Uiso   1.00
H127   H     0.37241   0.57750   0.28691   0.00000  Uiso   1.00
H128   H     0.11335   0.19229   0.48291   0.00000  Uiso   1.00
H129   H     0.13614   0.50823   0.73835   0.00000  Uiso   1.00
O130   O     0.34494   0.68282   0.20914   0.00000  Uiso   1.00
O131   O     0.00506   0.17744   0.46628   0.00000  Uiso   1.00
O132   O     0.03496   0.59195   0.80142   0.00000  Uiso   1.00
N133   N     0.24020   0.65698   0.28490   0.00000  Uiso   1.00
N134   N     0.99800   0.29683   0.46813   0.00000  Uiso   1.00
N135   N     0.01929   0.59219   0.70696   0.00000  Uiso   1.00
N136   N     0.32519   0.59448   0.29614   0.00000  Uiso   1.00
N137   N     0.08299   0.23433   0.47937   0.00000  Uiso   1.00
N138   N     0.10428   0.52969   0.71820   0.00000  Uiso   1.00
C139   C     0.98597   0.04525   0.62767   0.00000  Uiso   1.00
C140   C     0.94147   0.00891   0.69265   0.00000  Uiso   1.00
C141   C     0.87410   0.02337   0.72332   0.00000  Uiso   1.00
C142   C     0.84225   0.98433   0.78250   0.00000  Uiso   1.00
C143   C     0.76793   0.93573   0.87920   0.00000  Uiso   1.00
C144   C     0.02006   0.98809   0.58552   0.00000  Uiso   1.00
C145   C     0.01876   0.98505   0.52612   0.00000  Uiso   1.00
C146   C     0.05308   0.92848   0.49513   0.00000  Uiso   1.00
C147   C     0.10079   0.84758   0.42549   0.00000  Uiso   1.00
C148   C     0.03973   0.07361   0.63950   0.00000  Uiso   1.00
C149   C     0.05499   0.14249   0.62547   0.00000  Uiso   1.00
C150   C     0.10587   0.15792   0.63991   0.00000  Uiso   1.00
C151   C     0.18413   0.20981   0.65408   0.00000  Uiso   1.00
C152   C     0.04922   0.95020   0.67825   0.00000  Uiso   1.00
C153   C     0.97583   0.95728   0.72011   0.00000  Uiso   1.00
C154   C     0.94408   0.91821   0.77927   0.00000  Uiso   1.00
C155   C     0.87667   0.93261   0.81002   0.00000  Uiso   1.00
C156   C     0.05441   0.93646   0.61299   0.00000  Uiso   1.00
C157   C     0.08874   0.87989   0.58208   0.00000  Uiso   1.00
C158   C     0.08749   0.87676   0.52265   0.00000  Uiso   1.00
C159   C     0.07409   0.02199   0.66697   0.00000  Uiso   1.00
C160   C     0.12496   0.03732   0.68143   0.00000  Uiso   1.00
C161   C     0.14029   0.10620   0.66743   0.00000  Uiso   1.00
H162   H     0.95923   0.08544   0.60628   0.00000  Uiso   1.00
H163   H     0.84753   0.06333   0.70204   0.00000  Uiso   1.00
H164   H     0.99218   0.02501   0.50487   0.00000  Uiso   1.00
H165   H     0.02839   0.18242   0.60421   0.00000  Uiso   1.00
H166   H     0.73884   0.01602   0.82030   0.00000  Uiso   1.00
H167   H     0.04385   0.93524   0.40456   0.00000  Uiso   1.00
H168   H     0.12022   0.26718   0.61403   0.00000  Uiso   1.00
H169   H     0.07597   0.91000   0.69963   0.00000  Uiso   1.00
H170   H     0.97068   0.87826   0.80052   0.00000  Uiso   1.00
H171   H     0.11532   0.83994   0.60335   0.00000  Uiso   1.00
H172   H     0.15154   0.99735   0.70269   0.00000  Uiso   1.00
H173   H     0.83879   0.86581   0.90023   0.00000  Uiso   1.00
H174   H     0.14381   0.78504   0.48449   0.00000  Uiso   1.00
H175   H     0.22017   0.11697   0.69396   0.00000  Uiso   1.00
O176   O     0.71744   0.92318   0.92494   0.00000  Uiso   1.00
O177   O     0.11761   0.81722   0.37949   0.00000  Uiso   1.00
O178   O     0.21780   0.25270   0.65432   0.00000  Uiso   1.00
N179   N     0.77681   0.98503   0.82528   0.00000  Uiso   1.00
N180   N     0.06198   0.90951   0.43659   0.00000  Uiso   1.00
N181   N     0.13338   0.21983   0.63241   0.00000  Uiso   1.00
N182   N     0.83060   0.90421   0.86829   0.00000  Uiso   1.00
N183   N     0.11576   0.82868   0.47960   0.00000  Uiso   1.00
N184   N     0.18717   0.13901   0.67541   0.00000  Uiso   1.00
C185   C     0.08173   0.55703   0.98064   0.00000  Uiso   1.00
C186   C     0.09863   0.62708   0.93886   0.00000  Uiso   1.00
C187   C     0.12807   0.63781   0.87212   0.00000  Uiso   1.00
C188   C     0.13943   0.70581   0.84287   0.00000  Uiso   1.00
C189   C     0.16830   0.80617   0.77249   0.00000  Uiso   1.00
C190   C     0.00819   0.56418   0.02191   0.00000  Uiso   1.00
C191   C     0.96159   0.52202   0.02500   0.00000  Uiso   1.00
C192   C     0.89681   0.53707   0.06568   0.00000  Uiso   1.00
C193   C     0.78527   0.53975   0.12426   0.00000  Uiso   1.00
C194   C     0.11632   0.54953   0.02689   0.00000  Uiso   1.00
C195   C     0.16062   0.49504   0.03418   0.00000  Uiso   1.00
C196   C     0.18688   0.49775   0.07906   0.00000  Uiso   1.00
C197   C     0.24323   0.47769   0.14538   0.00000  Uiso   1.00
C198   C     0.04955   0.65873   0.04740   0.00000  Uiso   1.00
C199   C     0.08115   0.68232   0.97513   0.00000  Uiso   1.00
C200   C     0.09247   0.75032   0.94598   0.00000  Uiso   1.00
C201   C     0.12193   0.76114   0.87920   0.00000  Uiso   1.00
C202   C     0.99071   0.61942   0.05818   0.00000  Uiso   1.00
C203   C     0.92599   0.63453   0.09886   0.00000  Uiso   1.00
C204   C     0.87930   0.59240   0.10201   0.00000  Uiso   1.00
C205   C     0.09884   0.60477   0.06316   0.00000  Uiso   1.00
C206   C     0.12503   0.60756   0.10804   0.00000  Uiso   1.00
C207   C     0.16937   0.55308   0.11539   0.00000  Uiso   1.00
H208   H     0.09533   0.51403   0.95241   0.00000  Uiso   1.00
H209   H     0.14158   0.59504   0.84407   0.00000  Uiso   1.00
H210   H     0.97513   0.47927   0.99694   0.00000  Uiso   1.00
H211   H     0.17414   0.45230   0.00611   0.00000  Uiso   1.00
H212   H     0.18513   0.70923   0.73994   0.00000  Uiso   1.00
H213   H     0.83415   0.46510   0.06229   0.00000  Uiso   1.00
H214   H     0.25380   0.40823   0.08163   0.00000  Uiso   1.00
H215   H     0.03595   0.70174   0.07564   0.00000  Uiso   1.00
H216   H     0.07894   0.79306   0.97406   0.00000  Uiso   1.00
H217   H     0.91248   0.67728   0.12692   0.00000  Uiso   1.00
H218   H     0.11149   0.65031   0.13609   0.00000  Uiso   1.00
H219   H     0.13429   0.86994   0.84544   0.00000  Uiso   1.00
H220   H     0.78331   0.62580   0.16779   0.00000  Uiso   1.00
H221   H     0.20296   0.56894   0.18713   0.00000  Uiso   1.00
O222   O     0.18905   0.84627   0.72365   0.00000  Uiso   1.00
O223   O     0.72858   0.52597   0.14656   0.00000  Uiso   1.00
O224   O     0.27915   0.45137   0.17194   0.00000  Uiso   1.00
N225   N     0.16728   0.73452   0.77872   0.00000  Uiso   1.00
N226   N     0.83913   0.50627   0.08008   0.00000  Uiso   1.00
N227   N     0.23145   0.45310   0.09818   0.00000  Uiso   1.00
N228   N     0.13992   0.82100   0.83548   0.00000  Uiso   1.00
N229   N     0.81177   0.59275   0.13685   0.00000  Uiso   1.00
N230   N     0.20409   0.53958   0.15495   0.00000  Uiso   1.00
C231   C     0.54499   0.01917   0.15053   0.00000  Uiso   1.00
C232   C     0.60626   0.96948   0.14028   0.00000  Uiso   1.00
C233   C     0.60814   0.90319   0.17335   0.00000  Uiso   1.00
C234   C     0.66903   0.86595   0.15689   0.00000  Uiso   1.00
C235   C     0.75552   0.78451   0.14822   0.00000  Uiso   1.00
C236   C     0.54035   0.03785   0.08503   0.00000  Uiso   1.00
C237   C     0.48680   0.02905   0.07165   0.00000  Uiso   1.00
C238   C     0.49220   0.04938   0.00868   0.00000  Uiso   1.00
C239   C     0.47633   0.07414   0.91425   0.00000  Uiso   1.00
C240   C     0.56017   0.08563   0.16596   0.00000  Uiso   1.00
C241   C     0.52327   0.11702   0.22062   0.00000  Uiso   1.00
C242   C     0.54535   0.17759   0.22579   0.00000  Uiso   1.00
C243   C     0.56025   0.27653   0.25701   0.00000  Uiso   1.00
C244   C     0.64979   0.07093   0.06251   0.00000  Uiso   1.00
C245   C     0.66319   0.99760   0.09247   0.00000  Uiso   1.00
C246   C     0.72409   0.96045   0.07596   0.00000  Uiso   1.00
C247   C     0.72606   0.89411   0.10900   0.00000  Uiso   1.00
C248   C     0.59727   0.06597   0.03722   0.00000  Uiso   1.00
C249   C     0.60275   0.08632   0.97426   0.00000  Uiso   1.00
C250   C     0.54923   0.07755   0.96078   0.00000  Uiso   1.00
C251   C     0.61709   0.11375   0.11815   0.00000  Uiso   1.00
C252   C     0.63923   0.17428   0.12323   0.00000  Uiso   1.00
C253   C     0.60238   0.20575   0.17789   0.00000  Uiso   1.00
H254   H     0.50067   0.99728   0.18775   0.00000  Uiso   1.00
H255   H     0.56408   0.88145   0.21034   0.00000  Uiso   1.00
H256   H     0.44275   0.00730   0.10866   0.00000  Uiso   1.00
H257   H     0.47922   0.09525   0.25761   0.00000  Uiso   1.00
H258   H     0.65948   0.76541   0.21428   0.00000  Uiso   1.00
H259   H     0.40365   0.03081   0.99989   0.00000  Uiso   1.00
H260   H     0.48056   0.21626   0.31398   0.00000  Uiso   1.00
H261   H     0.69411   0.09281   0.02528   0.00000  Uiso   1.00
H262   H     0.76814   0.98222   0.03895   0.00000  Uiso   1.00
H263   H     0.64681   0.10807   0.93727   0.00000  Uiso   1.00
H264   H     0.68328   0.19602   0.08622   0.00000  Uiso   1.00
H265   H     0.82510   0.84720   0.07518   0.00000  Uiso   1.00
H266   H     0.56927   0.11260   0.86078   0.00000  Uiso   1.00
H267   H     0.64618   0.29805   0.17487   0.00000  Uiso   1.00
O268   O     0.78749   0.73182   0.15664   0.00000  Uiso   1.00
O269   O     0.45185   0.08002   0.87537   0.00000  Uiso   1.00
O270   O     0.55275   0.32333   0.28744   0.00000  Uiso   1.00
N271   N     0.68830   0.79984   0.17968   0.00000  Uiso   1.00
N272   N     0.44912   0.04796   0.97923   0.00000  Uiso   1.00
N273   N     0.52101   0.22136   0.27287   0.00000  Uiso   1.00
N274   N     0.77742   0.84385   0.10482   0.00000  Uiso   1.00
N275   N     0.53824   0.09197   0.90438   0.00000  Uiso   1.00
N276   N     0.61013   0.26537   0.19801   0.00000  Uiso   1.00
C277   C     0.43837   0.85631   0.39992   0.00000  Uiso   1.00
C278   C     0.46845   0.78406   0.41476   0.00000  Uiso   1.00
C279   C     0.53504   0.76297   0.39071   0.00000  Uiso   1.00
C280   C     0.55262   0.69471   0.41005   0.00000  Uiso   1.00
C281   C     0.60654   0.58944   0.42674   0.00000  Uiso   1.00
C282   C     0.39831   0.88174   0.46483   0.00000  Uiso   1.00
C283   C     0.40593   0.94278   0.48288   0.00000  Uiso   1.00
C284   C     0.36446   0.95675   0.54438   0.00000  Uiso   1.00
C285   C     0.30945   0.00315   0.63879   0.00000  Uiso   1.00
C286   C     0.38859   0.84577   0.37303   0.00000  Uiso   1.00
C287   C     0.38802   0.87658   0.31390   0.00000  Uiso   1.00
C288   C     0.33836   0.86028   0.29811   0.00000  Uiso   1.00
C289   C     0.26826   0.85083   0.24999   0.00000  Uiso   1.00
C290   C     0.35117   0.77257   0.47703   0.00000  Uiso   1.00
C291   C     0.42108   0.73857   0.45664   0.00000  Uiso   1.00
C292   C     0.43857   0.67032   0.47602   0.00000  Uiso   1.00
C293   C     0.50518   0.64914   0.45201   0.00000  Uiso   1.00
C294   C     0.35095   0.83625   0.50672   0.00000  Uiso   1.00
C295   C     0.30946   0.85013   0.56820   0.00000  Uiso   1.00
C296   C     0.31701   0.91118   0.58634   0.00000  Uiso   1.00
C297   C     0.34123   0.80028   0.41491   0.00000  Uiso   1.00
C298   C     0.29155   0.78393   0.39922   0.00000  Uiso   1.00
C299   C     0.29091   0.81471   0.34007   0.00000  Uiso   1.00
H300   H     0.47524   0.89173   0.36732   0.00000  Uiso   1.00
H301   H     0.57168   0.79819   0.35830   0.00000  Uiso   1.00
H302   H     0.44258   0.97797   0.45046   0.00000  Uiso   1.00
H303   H     0.42468   0.91178   0.28150   0.00000  Uiso   1.00
H304   H     0.65772   0.67444   0.36680   0.00000  Uiso   1.00
H305   H     0.38549   0.05353   0.56110   0.00000  Uiso   1.00
H306   H     0.34775   0.91395   0.20483   0.00000  Uiso   1.00
H307   H     0.31429   0.73716   0.50964   0.00000  Uiso   1.00
H308   H     0.40191   0.63513   0.50844   0.00000  Uiso   1.00
H309   H     0.27281   0.81492   0.60059   0.00000  Uiso   1.00
H310   H     0.25491   0.74873   0.43164   0.00000  Uiso   1.00
H311   H     0.51992   0.54209   0.48865   0.00000  Uiso   1.00
H312   H     0.24769   0.92119   0.68296   0.00000  Uiso   1.00
H313   H     0.20995   0.78161   0.32669   0.00000  Uiso   1.00
O314   O     0.64936   0.54395   0.42438   0.00000  Uiso   1.00
O315   O     0.29220   0.04131   0.67929   0.00000  Uiso   1.00
O316   O     0.24268   0.85818   0.21187   0.00000  Uiso   1.00
N317   N     0.61326   0.65729   0.39563   0.00000  Uiso   1.00
N318   N     0.35876   0.01171   0.57730   0.00000  Uiso   1.00
N319   N     0.32346   0.88123   0.24422   0.00000  Uiso   1.00
N320   N     0.53912   0.58607   0.46120   0.00000  Uiso   1.00
N321   N     0.28461   0.94050   0.64287   0.00000  Uiso   1.00
N322   N     0.24931   0.81002   0.30979   0.00000  Uiso   1.00
C323   C     0.31925   0.36514   0.90782   0.00000  Uiso   1.00
C324   C     0.36257   0.37506   0.83605   0.00000  Uiso   1.00
C325   C     0.36328   0.43516   0.79344   0.00000  Uiso   1.00
C326   C     0.40646   0.43382   0.72969   0.00000  Uiso   1.00
C327   C     0.46752   0.45827   0.62135   0.00000  Uiso   1.00
C328   C     0.36604   0.34344   0.94226   0.00000  Uiso   1.00
C329   C     0.36965   0.37695   0.98896   0.00000  Uiso   1.00
C330   C     0.41574   0.34899   0.01464   0.00000  Uiso   1.00
C331   C     0.48214   0.32431   0.07123   0.00000  Uiso   1.00
C332   C     0.28083   0.30204   0.91949   0.00000  Uiso   1.00
C333   C     0.21279   0.30072   0.94706   0.00000  Uiso   1.00
C334   C     0.18714   0.23789   0.95357   0.00000  Uiso   1.00
C335   C     0.12125   0.14893   0.97480   0.00000  Uiso   1.00
C336   C     0.39467   0.25588   0.87038   0.00000  Uiso   1.00
C337   C     0.40354   0.31572   0.81571   0.00000  Uiso   1.00
C338   C     0.44673   0.31428   0.75202   0.00000  Uiso   1.00
C339   C     0.44750   0.37437   0.70932   0.00000  Uiso   1.00
C340   C     0.40700   0.28410   0.92193   0.00000  Uiso   1.00
C341   C     0.45309   0.25607   0.94754   0.00000  Uiso   1.00
C342   C     0.45678   0.28953   0.99427   0.00000  Uiso   1.00
C343   C     0.32179   0.24269   0.89915   0.00000  Uiso   1.00
C344   C     0.29624   0.17984   0.90563   0.00000  Uiso   1.00
C345   C     0.22818   0.17843   0.93320   0.00000  Uiso   1.00
H346   H     0.28735   0.41134   0.92365   0.00000  Uiso   1.00
H347   H     0.33157   0.48108   0.80919   0.00000  Uiso   1.00
H348   H     0.33793   0.42287   0.00470   0.00000  Uiso   1.00
H349   H     0.18111   0.34666   0.96278   0.00000  Uiso   1.00
H350   H     0.39868   0.53224   0.67333   0.00000  Uiso   1.00
H351   H     0.41208   0.40949   0.08558   0.00000  Uiso   1.00
H352   H     0.08138   0.24878   0.99720   0.00000  Uiso   1.00
H353   H     0.42657   0.20967   0.85455   0.00000  Uiso   1.00
H354   H     0.47842   0.26835   0.73629   0.00000  Uiso   1.00
H355   H     0.48479   0.21014   0.93180   0.00000  Uiso   1.00
H356   H     0.32796   0.13393   0.88989   0.00000  Uiso   1.00
H357   H     0.51787   0.35958   0.61417   0.00000  Uiso   1.00
H358   H     0.53127   0.23683   0.02641   0.00000  Uiso   1.00
H359   H     0.20057   0.07611   0.93804   0.00000  Uiso   1.00
O360   O     0.48989   0.48816   0.56721   0.00000  Uiso   1.00
O361   O     0.50746   0.32711   0.10807   0.00000  Uiso   1.00
O362   O     0.07359   0.11625   0.99212   0.00000  Uiso   1.00
N363   N     0.41960   0.48355   0.67564   0.00000  Uiso   1.00
N364   N     0.43214   0.36879   0.06105   0.00000  Uiso   1.00
N365   N     0.12296   0.21853   0.97845   0.00000  Uiso   1.00
N366   N     0.48374   0.39064   0.64380   0.00000  Uiso   1.00
N367   N     0.49628   0.27589   0.02921   0.00000  Uiso   1.00
N368   N     0.18710   0.12562   0.94661   0.00000  Uiso   1.00
C369   C     0.87854   0.37983   0.38247   0.00000  Uiso   1.00
C370   C     0.82955   0.39084   0.45014   0.00000  Uiso   1.00
C371   C     0.82219   0.34542   0.50603   0.00000  Uiso   1.00
C372   C     0.77461   0.36494   0.56319   0.00000  Uiso   1.00
C373   C     0.70447   0.37251   0.66810   0.00000  Uiso   1.00
C374   C     0.91926   0.44311   0.35670   0.00000  Uiso   1.00
C375   C     0.98733   0.44162   0.33401   0.00000  Uiso   1.00
C376   C     0.01528   0.50514   0.31251   0.00000  Uiso   1.00
C377   C     0.08442   0.59384   0.27230   0.00000  Uiso   1.00
C378   C     0.83787   0.38468   0.34203   0.00000  Uiso   1.00
C379   C     0.83752   0.33407   0.30699   0.00000  Uiso   1.00
C380   C     0.79695   0.34841   0.27312   0.00000  Uiso   1.00
C381   C     0.73972   0.34640   0.21013   0.00000  Uiso   1.00
C382   C     0.80713   0.49529   0.38460   0.00000  Uiso   1.00
C383   C     0.79076   0.45356   0.45130   0.00000  Uiso   1.00
C384   C     0.74318   0.47315   0.50839   0.00000  Uiso   1.00
C385   C     0.73575   0.42776   0.56435   0.00000  Uiso   1.00
C386   C     0.88048   0.50581   0.35786   0.00000  Uiso   1.00
C387   C     0.90833   0.56935   0.33638   0.00000  Uiso   1.00
C388   C     0.97642   0.56796   0.31367   0.00000  Uiso   1.00
C389   C     0.79908   0.44739   0.34319   0.00000  Uiso   1.00
C390   C     0.75851   0.46181   0.30936   0.00000  Uiso   1.00
C391   C     0.75809   0.41124   0.27428   0.00000  Uiso   1.00
H392   H     0.90874   0.33102   0.38156   0.00000  Uiso   1.00
H393   H     0.85222   0.29689   0.50511   0.00000  Uiso   1.00
H394   H     0.01734   0.39308   0.33312   0.00000  Uiso   1.00
H395   H     0.86754   0.28555   0.30610   0.00000  Uiso   1.00
H396   H     0.77247   0.28673   0.64260   0.00000  Uiso   1.00
H397   H     0.12063   0.48954   0.27993   0.00000  Uiso   1.00
H398   H     0.80476   0.26280   0.22296   0.00000  Uiso   1.00
H399   H     0.77693   0.54411   0.38551   0.00000  Uiso   1.00
H400   H     0.71317   0.52168   0.50927   0.00000  Uiso   1.00
H401   H     0.87830   0.61787   0.33728   0.00000  Uiso   1.00
H402   H     0.72850   0.51034   0.31027   0.00000  Uiso   1.00
H403   H     0.65962   0.46918   0.64598   0.00000  Uiso   1.00
H404   H     0.00778   0.67199   0.28330   0.00000  Uiso   1.00
H405   H     0.69191   0.44525   0.22634   0.00000  Uiso   1.00
O406   O     0.67650   0.35937   0.72564   0.00000  Uiso   1.00
O407   O     0.13327   0.62545   0.24981   0.00000  Uiso   1.00
O408   O     0.71886   0.32797   0.17508   0.00000  Uiso   1.00
N409   N     0.75465   0.33274   0.62641   0.00000  Uiso   1.00
N410   N     0.08016   0.52236   0.28734   0.00000  Uiso   1.00
N411   N     0.78486   0.31038   0.23407   0.00000  Uiso   1.00
N412   N     0.69392   0.43092   0.62823   0.00000  Uiso   1.00
N413   N     0.01943   0.62053   0.28916   0.00000  Uiso   1.00
N414   N     0.72414   0.40856   0.23588   0.00000  Uiso   1.00
C415   C     0.94836   0.91881   0.34404   0.00000  Uiso   1.00
C416   C     0.00021   0.94713   0.27953   0.00000  Uiso   1.00
C417   C     0.06696   0.92676   0.25665   0.00000  Uiso   1.00
C418   C     0.10628   0.95889   0.19647   0.00000  Uiso   1.00
C419   C     0.19084   0.99518   0.10179   0.00000  Uiso   1.00
C420   C     0.91483   0.98164   0.37877   0.00000  Uiso   1.00
C421   C     0.90979   0.99028   0.43933   0.00000  Uiso   1.00
C422   C     0.87722   0.05146   0.46269   0.00000  Uiso   1.00
C423   C     0.82917   0.14130   0.52210   0.00000  Uiso   1.00
C424   C     0.89653   0.89159   0.32847   0.00000  Uiso   1.00
C425   C     0.87610   0.82453   0.34675   0.00000  Uiso   1.00
C426   C     0.82811   0.80989   0.32777   0.00000  Uiso   1.00
C427   C     0.75167   0.75992   0.30907   0.00000  Uiso   1.00
C428   C     0.89947   0.01208   0.27786   0.00000  Uiso   1.00
C429   C     0.97365   0.99779   0.24359   0.00000  Uiso   1.00
C430   C     0.01288   0.02995   0.18343   0.00000  Uiso   1.00
C431   C     0.07968   0.00964   0.16046   0.00000  Uiso   1.00
C432   C     0.88827   0.03230   0.34283   0.00000  Uiso   1.00
C433   C     0.85570   0.09348   0.36611   0.00000  Uiso   1.00
C434   C     0.85061   0.10221   0.42668   0.00000  Uiso   1.00
C435   C     0.86998   0.94225   0.29252   0.00000  Uiso   1.00
C436   C     0.82201   0.92772   0.27352   0.00000  Uiso   1.00
C437   C     0.80151   0.86065   0.29176   0.00000  Uiso   1.00
H438   H     0.96903   0.87937   0.37203   0.00000  Uiso   1.00
H439   H     0.08750   0.88756   0.28448   0.00000  Uiso   1.00
H440   H     0.93033   0.95107   0.46714   0.00000  Uiso   1.00
H441   H     0.89666   0.78534   0.37456   0.00000  Uiso   1.00
H442   H     0.20713   0.91899   0.17158   0.00000  Uiso   1.00
H443   H     0.87573   0.05289   0.55673   0.00000  Uiso   1.00
H444   H     0.80471   0.70342   0.36152   0.00000  Uiso   1.00
H445   H     0.87879   0.05152   0.24988   0.00000  Uiso   1.00
H446   H     0.99231   0.06916   0.15562   0.00000  Uiso   1.00
H447   H     0.83515   0.13267   0.33828   0.00000  Uiso   1.00
H448   H     0.80147   0.96694   0.24571   0.00000  Uiso   1.00
H449   H     0.12988   0.06639   0.06699   0.00000  Uiso   1.00
H450   H     0.79847   0.20029   0.45214   0.00000  Uiso   1.00
H451   H     0.72746   0.85082   0.25693   0.00000  Uiso   1.00
O452   O     0.24482   0.00120   0.05950   0.00000  Uiso   1.00
O453   O     0.81002   0.17686   0.56480   0.00000  Uiso   1.00
O454   O     0.71684   0.71836   0.30868   0.00000  Uiso   1.00
N455   N     0.17337   0.95125   0.15989   0.00000  Uiso   1.00
N456   N     0.86354   0.07645   0.51998   0.00000  Uiso   1.00
N457   N     0.79713   0.74972   0.33749   0.00000  Uiso   1.00
N458   N     0.13180   0.03057   0.10362   0.00000  Uiso   1.00
N459   N     0.82197   0.15576   0.46370   0.00000  Uiso   1.00
N460   N     0.75556   0.82903   0.28121   0.00000  Uiso   1.00
C461   C     0.87372   0.31668   0.92959   0.00000  Uiso   1.00
C462   C     0.86254   0.25979   0.98698   0.00000  Uiso   1.00
C463   C     0.81469   0.26303   0.04858   0.00000  Uiso   1.00
C464   C     0.81249   0.20557   0.09440   0.00000  Uiso   1.00
C465   C     0.78844   0.12615   0.18586   0.00000  Uiso   1.00
C466   C     0.94536   0.33328   0.90565   0.00000  Uiso   1.00
C467   C     0.96714   0.39832   0.89886   0.00000  Uiso   1.00
C468   C     0.03467   0.40272   0.87621   0.00000  Uiso   1.00
C469   C     0.13921   0.43742   0.84136   0.00000  Uiso   1.00
C470   C     0.86890   0.28308   0.87683   0.00000  Uiso   1.00
C471   C     0.82640   0.30592   0.84578   0.00000  Uiso   1.00
C472   C     0.82956   0.26806   0.79885   0.00000  Uiso   1.00
C473   C     0.81538   0.22481   0.71925   0.00000  Uiso   1.00
C474   C     0.95490   0.20886   0.90143   0.00000  Uiso   1.00
C475   C     0.90663   0.20122   0.97169   0.00000  Uiso   1.00
C476   C     0.90451   0.14374   0.01743   0.00000  Uiso   1.00
C477   C     0.85666   0.14689   0.07908   0.00000  Uiso   1.00
C478   C     0.98945   0.27472   0.89036   0.00000  Uiso   1.00
C479   C     0.05696   0.27903   0.86771   0.00000  Uiso   1.00
C480   C     0.07884   0.34405   0.86089   0.00000  Uiso   1.00
C481   C     0.91299   0.22451   0.86153   0.00000  Uiso   1.00
C482   C     0.91622   0.18662   0.81464   0.00000  Uiso   1.00
C483   C     0.87374   0.20939   0.78353   0.00000  Uiso   1.00
H484   H     0.83939   0.36227   0.94149   0.00000  Uiso   1.00
H485   H     0.78058   0.30837   0.06040   0.00000  Uiso   1.00
H486   H     0.93301   0.44363   0.91070   0.00000  Uiso   1.00
H487   H     0.79229   0.35124   0.85763   0.00000  Uiso   1.00
H488   H     0.73483   0.22278   0.18549   0.00000  Uiso   1.00
H489   H     0.05625   0.50800   0.86982   0.00000  Uiso   1.00
H490   H     0.75951   0.31317   0.75792   0.00000  Uiso   1.00
H491   H     0.98923   0.16326   0.88952   0.00000  Uiso   1.00
H492   H     0.93864   0.09842   0.00558   0.00000  Uiso   1.00
H493   H     0.09107   0.23369   0.85588   0.00000  Uiso   1.00
H494   H     0.95035   0.14130   0.80281   0.00000  Uiso   1.00
H495   H     0.86312   0.05238   0.14100   0.00000  Uiso   1.00
H496   H     0.18453   0.33761   0.82532   0.00000  Uiso   1.00
H497   H     0.88779   0.14278   0.71342   0.00000  Uiso   1.00
O498   O     0.76300   0.09853   0.24053   0.00000  Uiso   1.00
O499   O     0.18468   0.47274   0.82637   0.00000  Uiso   1.00
O500   O     0.79537   0.21712   0.67957   0.00000  Uiso   1.00
N501   N     0.77196   0.19157   0.15909   0.00000  Uiso   1.00
N502   N     0.07246   0.45823   0.86396   0.00000  Uiso   1.00
N503   N     0.79505   0.27610   0.75933   0.00000  Uiso   1.00
N504   N     0.84099   0.09988   0.13515   0.00000  Uiso   1.00
N505   N     0.14149   0.36655   0.84002   0.00000  Uiso   1.00
N506   N     0.86408   0.18441   0.73539   0.00000  Uiso   1.00
C507   C     0.26471   0.86893   0.94631   0.00000  Uiso   1.00
C508   C     0.19165   0.87696   0.98913   0.00000  Uiso   1.00
C509   C     0.14942   0.93517   0.98592   0.00000  Uiso   1.00
C510   C     0.08432   0.93230   0.02933   0.00000  Uiso   1.00
C511   C     0.97423   0.95377   0.08900   0.00000  Uiso   1.00
C512   C     0.30063   0.85144   0.99176   0.00000  Uiso   1.00
C513   C     0.35002   0.88818   0.99075   0.00000  Uiso   1.00
C514   C     0.37665   0.86381   0.03636   0.00000  Uiso   1.00
C515   C     0.43578   0.84561   0.10008   0.00000  Uiso   1.00
C516   C     0.27410   0.80395   0.91479   0.00000  Uiso   1.00
C517   C     0.30121   0.80075   0.84907   0.00000  Uiso   1.00
C518   C     0.30553   0.73640   0.82988   0.00000  Uiso   1.00
C519   C     0.32347   0.64448   0.77410   0.00000  Uiso   1.00
C520   C     0.22421   0.76032   0.02912   0.00000  Uiso   1.00
C521   C     0.16966   0.81797   0.03411   0.00000  Uiso   1.00
C522   C     0.10460   0.81501   0.07753   0.00000  Uiso   1.00
C523   C     0.06227   0.87320   0.07438   0.00000  Uiso   1.00
C524   C     0.27863   0.79245   0.03673   0.00000  Uiso   1.00
C525   C     0.30520   0.76801   0.08236   0.00000  Uiso   1.00
C526   C     0.35461   0.80471   0.08142   0.00000  Uiso   1.00
C527   C     0.25210   0.74496   0.95977   0.00000  Uiso   1.00
C528   C     0.25639   0.68059   0.94068   0.00000  Uiso   1.00
C529   C     0.28349   0.67730   0.87494   0.00000  Uiso   1.00
H530   H     0.28185   0.91485   0.91130   0.00000  Uiso   1.00
H531   H     0.16646   0.98082   0.95111   0.00000  Uiso   1.00
H532   H     0.36704   0.93382   0.95593   0.00000  Uiso   1.00
H533   H     0.31823   0.84642   0.81428   0.00000  Uiso   1.00
H534   H     0.02884   0.02794   0.01510   0.00000  Uiso   1.00
H535   H     0.45178   0.92884   0.02525   0.00000  Uiso   1.00
H536   H     0.34886   0.74453   0.72654   0.00000  Uiso   1.00
H537   H     0.20708   0.71439   0.06413   0.00000  Uiso   1.00
H538   H     0.08759   0.76935   0.11233   0.00000  Uiso   1.00
H539   H     0.28816   0.72236   0.11716   0.00000  Uiso   1.00
H540   H     0.23936   0.63495   0.97550   0.00000  Uiso   1.00
H541   H     0.96483   0.85631   0.14596   0.00000  Uiso   1.00
H542   H     0.38776   0.75721   0.15611   0.00000  Uiso   1.00
H543   H     0.28484   0.57290   0.85740   0.00000  Uiso   1.00
O544   O     0.91959   0.98191   0.10949   0.00000  Uiso   1.00
O545   O     0.47447   0.85188   0.12280   0.00000  Uiso   1.00
O546   O     0.33944   0.61007   0.73091   0.00000  Uiso   1.00
N547   N     0.03017   0.98000   0.03927   0.00000  Uiso   1.00
N548   N     0.42558   0.88735   0.04877   0.00000  Uiso   1.00
N549   N     0.32938   0.71503   0.76951   0.00000  Uiso   1.00
N550   N     0.99573   0.88765   0.10969   0.00000  Uiso   1.00
N551   N     0.39114   0.79500   0.11919   0.00000  Uiso   1.00
N552   N     0.29493   0.62268   0.83992   0.00000  Uiso   1.00
