data_job_06253
_audit_creation_date              2018-12-19
_audit_creation_method            'Materials Studio'
_symmetry_space_group_name_H-M    'P1'
_symmetry_Int_Tables_number       1
_symmetry_cell_setting            triclinic
loop_
_symmetry_equiv_pos_as_xyz
  x,y,z
_cell_length_a                    16.0191
_cell_length_b                    15.7964
_cell_length_c                    14.8253
_cell_angle_alpha                 82.1190
_cell_angle_beta                  82.2465
_cell_angle_gamma                 80.5409
loop_
_atom_site_label
_atom_site_type_symbol
_atom_site_fract_x
_atom_site_fract_y
_atom_site_fract_z
_atom_site_U_iso_or_equiv
_atom_site_adp_type
_atom_site_occupancy
C1     C     0.97310   0.64426   0.68123   0.00000  Uiso   1.00
C2     C     0.05528   0.59078   0.64344   0.00000  Uiso   1.00
C3     C     0.06752   0.50240   0.63866   0.00000  Uiso   1.00
C4     C     0.14736   0.46552   0.60180   0.00000  Uiso   1.00
C5     C     0.26505   0.37492   0.54787   0.00000  Uiso   1.00
C6     C     0.99678   0.68938   0.75669   0.00000  Uiso   1.00
C7     C     0.95983   0.68390   0.84712   0.00000  Uiso   1.00
C8     C     0.99043   0.73003   0.90559   0.00000  Uiso   1.00
C9     C     0.01726   0.79254   0.02746   0.00000  Uiso   1.00
C10    C     0.94950   0.71542   0.60454   0.00000  Uiso   1.00
C11    C     0.87279   0.73186   0.56705   0.00000  Uiso   1.00
C12    C     0.86357   0.79993   0.49744   0.00000  Uiso   1.00
C13    C     0.81699   0.90288   0.38307   0.00000  Uiso   1.00
C14    C     0.09312   0.73592   0.62427   0.00000  Uiso   1.00
C15    C     0.12046   0.64057   0.61250   0.00000  Uiso   1.00
C16    C     0.20031   0.60382   0.57564   0.00000  Uiso   1.00
C17    C     0.21267   0.51540   0.57080   0.00000  Uiso   1.00
C18    C     0.06197   0.73917   0.72575   0.00000  Uiso   1.00
C19    C     0.09262   0.78532   0.78410   0.00000  Uiso   1.00
C20    C     0.05573   0.77991   0.87460   0.00000  Uiso   1.00
C21    C     0.01469   0.76521   0.57359   0.00000  Uiso   1.00
C22    C     0.00558   0.83327   0.50403   0.00000  Uiso   1.00
C23    C     0.92887   0.84981   0.46644   0.00000  Uiso   1.00
H24    H     0.92235   0.60549   0.70532   0.00000  Uiso   1.00
H25    H     0.01706   0.46389   0.66262   0.00000  Uiso   1.00
H26    H     0.90938   0.64537   0.87104   0.00000  Uiso   1.00
H27    H     0.82236   0.69332   0.59101   0.00000  Uiso   1.00
H28    H     0.15082   0.32886   0.60166   0.00000  Uiso   1.00
H29    H     0.92376   0.71154   0.04112   0.00000  Uiso   1.00
H30    H     0.74024   0.81264   0.45063   0.00000  Uiso   1.00
H31    H     0.14387   0.77469   0.60018   0.00000  Uiso   1.00
H32    H     0.25074   0.64237   0.55170   0.00000  Uiso   1.00
H33    H     0.14306   0.82385   0.76013   0.00000  Uiso   1.00
H34    H     0.05604   0.87179   0.48010   0.00000  Uiso   1.00
H35    H     0.34049   0.47371   0.51164   0.00000  Uiso   1.00
H36    H     0.11342   0.85640   0.95111   0.00000  Uiso   1.00
H37    H     0.92991   0.95750   0.36061   0.00000  Uiso   1.00
O38    O     0.31197   0.31118   0.52668   0.00000  Uiso   1.00
O39    O     0.01406   0.81326   0.10324   0.00000  Uiso   1.00
O40    O     0.77329   0.94590   0.32853   0.00000  Uiso   1.00
N41    N     0.18079   0.38111   0.58711   0.00000  Uiso   1.00
N42    N     0.96851   0.73888   0.99799   0.00000  Uiso   1.00
N43    N     0.79692   0.83342   0.44594   0.00000  Uiso   1.00
N44    N     0.28284   0.45905   0.53867   0.00000  Uiso   1.00
N45    N     0.07056   0.81683   0.94955   0.00000  Uiso   1.00
N46    N     0.89898   0.91137   0.39750   0.00000  Uiso   1.00
C47    C     0.67600   0.97281   0.64142   0.00000  Uiso   1.00
C48    C     0.63964   0.05590   0.58572   0.00000  Uiso   1.00
C49    C     0.63691   0.06762   0.49161   0.00000  Uiso   1.00
C50    C     0.60109   0.14848   0.45357   0.00000  Uiso   1.00
C51    C     0.54952   0.26738   0.35883   0.00000  Uiso   1.00
C52    C     0.74374   0.99700   0.69218   0.00000  Uiso   1.00
C53    C     0.82854   0.95918   0.68759   0.00000  Uiso   1.00
C54    C     0.88035   0.99046   0.73919   0.00000  Uiso   1.00
C55    C     0.99039   0.01786   0.80978   0.00000  Uiso   1.00
C56    C     0.60436   0.94966   0.71477   0.00000  Uiso   1.00
C57    C     0.57198   0.87202   0.72918   0.00000  Uiso   1.00
C58    C     0.50645   0.86342   0.79981   0.00000  Uiso   1.00
C59    C     0.40009   0.81731   0.90547   0.00000  Uiso   1.00
C60    C     0.61724   0.09558   0.74124   0.00000  Uiso   1.00
C61    C     0.60772   0.12259   0.63994   0.00000  Uiso   1.00
C62    C     0.57189   0.20345   0.60204   0.00000  Uiso   1.00
C63    C     0.56911   0.21529   0.50788   0.00000  Uiso   1.00
C64    C     0.71183   0.06368   0.74640   0.00000  Uiso   1.00
C65    C     0.76353   0.09501   0.79802   0.00000  Uiso   1.00
C66    C     0.84838   0.05726   0.79350   0.00000  Uiso   1.00
C67    C     0.57244   0.01634   0.76898   0.00000  Uiso   1.00
C68    C     0.50696   0.00785   0.83961   0.00000  Uiso   1.00
C69    C     0.47448   0.93022   0.85412   0.00000  Uiso   1.00
H70    H     0.70085   0.92089   0.59922   0.00000  Uiso   1.00
H71    H     0.66162   0.01600   0.44967   0.00000  Uiso   1.00
H72    H     0.85322   0.90758   0.64564   0.00000  Uiso   1.00
H73    H     0.59669   0.82043   0.68722   0.00000  Uiso   1.00
H74    H     0.60408   0.15087   0.30778   0.00000  Uiso   1.00
H75    H     0.00806   0.92223   0.72100   0.00000  Uiso   1.00
H76    H     0.46713   0.73846   0.80868   0.00000  Uiso   1.00
H77    H     0.59239   0.14749   0.78345   0.00000  Uiso   1.00
H78    H     0.54720   0.25504   0.64401   0.00000  Uiso   1.00
H79    H     0.73880   0.14661   0.83997   0.00000  Uiso   1.00
H80    H     0.48228   0.05947   0.88155   0.00000  Uiso   1.00
H81    H     0.51122   0.34488   0.46551   0.00000  Uiso   1.00
H82    H     0.91520   0.11623   0.87873   0.00000  Uiso   1.00
H83    H     0.37427   0.93247   0.96641   0.00000  Uiso   1.00
O84    O     0.52991   0.31454   0.29159   0.00000  Uiso   1.00
O85    O     0.05991   0.01456   0.83373   0.00000  Uiso   1.00
O86    O     0.35022   0.77347   0.94876   0.00000  Uiso   1.00
N87    N     0.58841   0.18176   0.36404   0.00000  Uiso   1.00
N88    N     0.96612   0.96801   0.75036   0.00000  Uiso   1.00
N89    N     0.46041   0.79619   0.83235   0.00000  Uiso   1.00
N90    N     0.53844   0.28616   0.44891   0.00000  Uiso   1.00
N91    N     0.91615   0.07240   0.83523   0.00000  Uiso   1.00
N92    N     0.41044   0.90059   0.91723   0.00000  Uiso   1.00
C93    C     0.64534   0.67721   0.97253   0.00000  Uiso   1.00
C94    C     0.59321   0.64114   0.05878   0.00000  Uiso   1.00
C95    C     0.50621   0.63874   0.06882   0.00000  Uiso   1.00
C96    C     0.47041   0.60316   0.15315   0.00000  Uiso   1.00
C97    C     0.38193   0.55206   0.27618   0.00000  Uiso   1.00
C98    C     0.68931   0.74604   0.00157   0.00000  Uiso   1.00
C99    C     0.68311   0.83183   0.96350   0.00000  Uiso   1.00
C100   C     0.72822   0.88454   0.99967   0.00000  Uiso   1.00
C101   C     0.78898   0.99628   0.03384   0.00000  Uiso   1.00
C102   C     0.71596   0.60408   0.94765   0.00000  Uiso   1.00
C103   C     0.73219   0.57052   0.86422   0.00000  Uiso   1.00
C104   C     0.79975   0.50372   0.85498   0.00000  Uiso   1.00
C105   C     0.90189   0.39504   0.80542   0.00000  Uiso   1.00
C106   C     0.73649   0.61828   0.10445   0.00000  Uiso   1.00
C107   C     0.64272   0.60913   0.13043   0.00000  Uiso   1.00
C108   C     0.60705   0.57354   0.21477   0.00000  Uiso   1.00
C109   C     0.52001   0.57108   0.22493   0.00000  Uiso   1.00
C110   C     0.73881   0.71403   0.07322   0.00000  Uiso   1.00
C111   C     0.78395   0.76663   0.10945   0.00000  Uiso   1.00
C112   C     0.77782   0.85248   0.07145   0.00000  Uiso   1.00
C113   C     0.76547   0.57206   0.01930   0.00000  Uiso   1.00
C114   C     0.83302   0.50531   0.01017   0.00000  Uiso   1.00
C115   C     0.84935   0.47165   0.92676   0.00000  Uiso   1.00
H116   H     0.60680   0.70214   0.91675   0.00000  Uiso   1.00
H117   H     0.46792   0.66353   0.01335   0.00000  Uiso   1.00
H118   H     0.64480   0.85658   0.90805   0.00000  Uiso   1.00
H119   H     0.69386   0.59531   0.80879   0.00000  Uiso   1.00
H120   H     0.33576   0.60663   0.15207   0.00000  Uiso   1.00
H121   H     0.70876   0.01369   0.93000   0.00000  Uiso   1.00
H122   H     0.81222   0.46274   0.72069   0.00000  Uiso   1.00
H123   H     0.77503   0.59336   0.16023   0.00000  Uiso   1.00
H124   H     0.64538   0.54877   0.27020   0.00000  Uiso   1.00
H125   H     0.82226   0.74183   0.16489   0.00000  Uiso   1.00
H126   H     0.87132   0.48056   0.06564   0.00000  Uiso   1.00
H127   H     0.47980   0.51350   0.36054   0.00000  Uiso   1.00
H128   H     0.85279   0.92056   0.13847   0.00000  Uiso   1.00
H129   H     0.95625   0.36961   0.92916   0.00000  Uiso   1.00
O130   O     0.31945   0.53273   0.32426   0.00000  Uiso   1.00
O131   O     0.80881   0.06676   0.03290   0.00000  Uiso   1.00
O132   O     0.94455   0.34393   0.75830   0.00000  Uiso   1.00
N133   N     0.38746   0.59082   0.18603   0.00000  Uiso   1.00
N134   N     0.73617   0.97140   0.97842   0.00000  Uiso   1.00
N135   N     0.83292   0.45632   0.78273   0.00000  Uiso   1.00
N136   N     0.46496   0.54070   0.29821   0.00000  Uiso   1.00
N137   N     0.81368   0.92128   0.09060   0.00000  Uiso   1.00
N138   N     0.91042   0.40620   0.89490   0.00000  Uiso   1.00
C139   C     0.02690   0.35574   0.31877   0.00000  Uiso   1.00
C140   C     0.94472   0.40922   0.35656   0.00000  Uiso   1.00
C141   C     0.93248   0.49760   0.36134   0.00000  Uiso   1.00
C142   C     0.85264   0.53448   0.39820   0.00000  Uiso   1.00
C143   C     0.73495   0.62508   0.45213   0.00000  Uiso   1.00
C144   C     0.00322   0.31062   0.24331   0.00000  Uiso   1.00
C145   C     0.04017   0.31610   0.15288   0.00000  Uiso   1.00
C146   C     0.00957   0.26997   0.09441   0.00000  Uiso   1.00
C147   C     0.98274   0.20746   0.97254   0.00000  Uiso   1.00
C148   C     0.05050   0.28458   0.39546   0.00000  Uiso   1.00
C149   C     0.12721   0.26814   0.43295   0.00000  Uiso   1.00
C150   C     0.13643   0.20007   0.50256   0.00000  Uiso   1.00
C151   C     0.18301   0.09712   0.61693   0.00000  Uiso   1.00
C152   C     0.90688   0.26408   0.37573   0.00000  Uiso   1.00
C153   C     0.87954   0.35943   0.38750   0.00000  Uiso   1.00
C154   C     0.79969   0.39618   0.42436   0.00000  Uiso   1.00
C155   C     0.78733   0.48460   0.42920   0.00000  Uiso   1.00
C156   C     0.93803   0.26083   0.27425   0.00000  Uiso   1.00
C157   C     0.90738   0.21468   0.21590   0.00000  Uiso   1.00
C158   C     0.94427   0.22009   0.12540   0.00000  Uiso   1.00
C159   C     0.98531   0.23479   0.42640   0.00000  Uiso   1.00
C160   C     0.99442   0.16673   0.49597   0.00000  Uiso   1.00
C161   C     0.07113   0.15019   0.53356   0.00000  Uiso   1.00
H162   H     0.07765   0.39451   0.29468   0.00000  Uiso   1.00
H163   H     0.98294   0.53611   0.33738   0.00000  Uiso   1.00
H164   H     0.09062   0.35463   0.12896   0.00000  Uiso   1.00
H165   H     0.17764   0.30668   0.40899   0.00000  Uiso   1.00
H166   H     0.84918   0.67114   0.39834   0.00000  Uiso   1.00
H167   H     0.07624   0.28846   0.95888   0.00000  Uiso   1.00
H168   H     0.25976   0.18736   0.54937   0.00000  Uiso   1.00
H169   H     0.85613   0.22531   0.39982   0.00000  Uiso   1.00
H170   H     0.74926   0.35763   0.44830   0.00000  Uiso   1.00
H171   H     0.85694   0.17615   0.23987   0.00000  Uiso   1.00
H172   H     0.94396   0.12821   0.51990   0.00000  Uiso   1.00
H173   H     0.65951   0.52629   0.48836   0.00000  Uiso   1.00
H174   H     0.88658   0.14360   0.04889   0.00000  Uiso   1.00
H175   H     0.07009   0.04250   0.63939   0.00000  Uiso   1.00
O176   O     0.68803   0.68882   0.47332   0.00000  Uiso   1.00
O177   O     0.98594   0.18674   0.89676   0.00000  Uiso   1.00
O178   O     0.22671   0.05410   0.67147   0.00000  Uiso   1.00
N179   N     0.81921   0.61889   0.41289   0.00000  Uiso   1.00
N180   N     0.03149   0.26112   0.00201   0.00000  Uiso   1.00
N181   N     0.20308   0.16658   0.55406   0.00000  Uiso   1.00
N182   N     0.71716   0.54095   0.46133   0.00000  Uiso   1.00
N183   N     0.92944   0.18317   0.05045   0.00000  Uiso   1.00
N184   N     0.10102   0.08863   0.60250   0.00000  Uiso   1.00
C185   C     0.32400   0.02719   0.35858   0.00000  Uiso   1.00
C186   C     0.36036   0.94410   0.41428   0.00000  Uiso   1.00
C187   C     0.36309   0.93238   0.50839   0.00000  Uiso   1.00
C188   C     0.39891   0.85152   0.54643   0.00000  Uiso   1.00
C189   C     0.45048   0.73262   0.64117   0.00000  Uiso   1.00
C190   C     0.25626   0.00300   0.30782   0.00000  Uiso   1.00
C191   C     0.17146   0.04082   0.31241   0.00000  Uiso   1.00
C192   C     0.11965   0.00954   0.26081   0.00000  Uiso   1.00
C193   C     0.00961   0.98214   0.19022   0.00000  Uiso   1.00
C194   C     0.39564   0.05034   0.28523   0.00000  Uiso   1.00
C195   C     0.42802   0.12798   0.27082   0.00000  Uiso   1.00
C196   C     0.49355   0.13658   0.20019   0.00000  Uiso   1.00
C197   C     0.59991   0.18269   0.09453   0.00000  Uiso   1.00
C198   C     0.38276   0.90442   0.25876   0.00000  Uiso   1.00
C199   C     0.39228   0.87741   0.36006   0.00000  Uiso   1.00
C200   C     0.42811   0.79655   0.39796   0.00000  Uiso   1.00
C201   C     0.43089   0.78471   0.49212   0.00000  Uiso   1.00
C202   C     0.28817   0.93632   0.25360   0.00000  Uiso   1.00
C203   C     0.23647   0.90499   0.20198   0.00000  Uiso   1.00
C204   C     0.15162   0.94274   0.20650   0.00000  Uiso   1.00
C205   C     0.42756   0.98366   0.23102   0.00000  Uiso   1.00
C206   C     0.49304   0.99215   0.16039   0.00000  Uiso   1.00
C207   C     0.52552   0.06978   0.14588   0.00000  Uiso   1.00
H208   H     0.29915   0.07911   0.40078   0.00000  Uiso   1.00
H209   H     0.33838   0.98400   0.55032   0.00000  Uiso   1.00
H210   H     0.14678   0.09242   0.35436   0.00000  Uiso   1.00
H211   H     0.40331   0.17957   0.31278   0.00000  Uiso   1.00
H212   H     0.39592   0.84913   0.69222   0.00000  Uiso   1.00
H213   H     0.99194   0.07777   0.27900   0.00000  Uiso   1.00
H214   H     0.53287   0.26154   0.19132   0.00000  Uiso   1.00
H215   H     0.40761   0.85251   0.21655   0.00000  Uiso   1.00
H216   H     0.45280   0.74496   0.35599   0.00000  Uiso   1.00
H217   H     0.26120   0.85339   0.16003   0.00000  Uiso   1.00
H218   H     0.51772   0.94053   0.11845   0.00000  Uiso   1.00
H219   H     0.48878   0.65512   0.53449   0.00000  Uiso   1.00
H220   H     0.08480   0.88377   0.12127   0.00000  Uiso   1.00
H221   H     0.62573   0.06753   0.03359   0.00000  Uiso   1.00
O222   O     0.47009   0.68546   0.70841   0.00000  Uiso   1.00
O223   O     0.94009   0.98544   0.16627   0.00000  Uiso   1.00
O224   O     0.64978   0.22653   0.05124   0.00000  Uiso   1.00
N225   N     0.41159   0.81824   0.63596   0.00000  Uiso   1.00
N226   N     0.03388   0.03199   0.24964   0.00000  Uiso   1.00
N227   N     0.53959   0.20381   0.16765   0.00000  Uiso   1.00
N228   N     0.46156   0.71384   0.55109   0.00000  Uiso   1.00
N229   N     0.08385   0.92760   0.16477   0.00000  Uiso   1.00
N230   N     0.58956   0.09941   0.08277   0.00000  Uiso   1.00
C231   C     0.35466   0.32279   0.02747   0.00000  Uiso   1.00
C232   C     0.40679   0.35886   0.94122   0.00000  Uiso   1.00
C233   C     0.49379   0.36126   0.93118   0.00000  Uiso   1.00
C234   C     0.52959   0.39684   0.84685   0.00000  Uiso   1.00
C235   C     0.61807   0.44794   0.72382   0.00000  Uiso   1.00
C236   C     0.31069   0.25396   0.99843   0.00000  Uiso   1.00
C237   C     0.31689   0.16817   0.03650   0.00000  Uiso   1.00
C238   C     0.27178   0.11546   0.00033   0.00000  Uiso   1.00
C239   C     0.21102   0.00372   0.96616   0.00000  Uiso   1.00
C240   C     0.28404   0.39592   0.05235   0.00000  Uiso   1.00
C241   C     0.26781   0.42948   0.13578   0.00000  Uiso   1.00
C242   C     0.20025   0.49628   0.14502   0.00000  Uiso   1.00
C243   C     0.09811   0.60496   0.19458   0.00000  Uiso   1.00
C244   C     0.26351   0.38172   0.89555   0.00000  Uiso   1.00
C245   C     0.35728   0.39087   0.86957   0.00000  Uiso   1.00
C246   C     0.39295   0.42646   0.78523   0.00000  Uiso   1.00
C247   C     0.47999   0.42892   0.77507   0.00000  Uiso   1.00
C248   C     0.26119   0.28597   0.92678   0.00000  Uiso   1.00
C249   C     0.21605   0.23337   0.89055   0.00000  Uiso   1.00
C250   C     0.22218   0.14752   0.92855   0.00000  Uiso   1.00
C251   C     0.23453   0.42794   0.98070   0.00000  Uiso   1.00
C252   C     0.16698   0.49469   0.98983   0.00000  Uiso   1.00
C253   C     0.15065   0.52835   0.07324   0.00000  Uiso   1.00
H254   H     0.39320   0.29786   0.08325   0.00000  Uiso   1.00
H255   H     0.53208   0.33647   0.98665   0.00000  Uiso   1.00
H256   H     0.35520   0.14342   0.09195   0.00000  Uiso   1.00
H257   H     0.30614   0.40469   0.19121   0.00000  Uiso   1.00
H258   H     0.66423   0.39337   0.84793   0.00000  Uiso   1.00
H259   H     0.29124   0.98631   0.07000   0.00000  Uiso   1.00
H260   H     0.18778   0.53726   0.27931   0.00000  Uiso   1.00
H261   H     0.22497   0.40664   0.83977   0.00000  Uiso   1.00
H262   H     0.35462   0.45123   0.72980   0.00000  Uiso   1.00
H263   H     0.17774   0.25817   0.83511   0.00000  Uiso   1.00
H264   H     0.12868   0.51944   0.93436   0.00000  Uiso   1.00
H265   H     0.52020   0.48650   0.63946   0.00000  Uiso   1.00
H266   H     0.14721   0.07944   0.86153   0.00000  Uiso   1.00
H267   H     0.04375   0.63039   0.07084   0.00000  Uiso   1.00
O268   O     0.68055   0.46727   0.67574   0.00000  Uiso   1.00
O269   O     0.19119   0.93324   0.96710   0.00000  Uiso   1.00
O270   O     0.05545   0.65607   0.24170   0.00000  Uiso   1.00
N271   N     0.61254   0.40918   0.81397   0.00000  Uiso   1.00
N272   N     0.26383   0.02860   0.02158   0.00000  Uiso   1.00
N273   N     0.16708   0.54368   0.21727   0.00000  Uiso   1.00
N274   N     0.53504   0.45930   0.70179   0.00000  Uiso   1.00
N275   N     0.18632   0.07872   0.90940   0.00000  Uiso   1.00
N276   N     0.08958   0.59380   0.10510   0.00000  Uiso   1.00
