data_job_05710
_audit_creation_date              2018-12-19
_audit_creation_method            'Materials Studio'
_symmetry_space_group_name_H-M    'P1'
_symmetry_Int_Tables_number       1
_symmetry_cell_setting            triclinic
loop_
_symmetry_equiv_pos_as_xyz
  x,y,z
_cell_length_a                    14.0121
_cell_length_b                    14.0121
_cell_length_c                    12.4287
_cell_angle_alpha                 90.0000
_cell_angle_beta                  90.0000
_cell_angle_gamma                 120.0000
loop_
_atom_site_label
_atom_site_type_symbol
_atom_site_fract_x
_atom_site_fract_y
_atom_site_fract_z
_atom_site_U_iso_or_equiv
_atom_site_adp_type
_atom_site_occupancy
C1     C     0.48816   0.05286   0.61876   0.00000  Uiso   1.00
C2     C     0.42819   0.01217   0.51161   0.00000  Uiso   1.00
C3     C     0.42644   0.92978   0.44822   0.00000  Uiso   1.00
C4     C     0.36685   0.90457   0.35301   0.00000  Uiso   1.00
C5     C     0.28226   0.83301   0.19127   0.00000  Uiso   1.00
C6     C     0.56492   0.17664   0.60576   0.00000  Uiso   1.00
C7     C     0.67814   0.23252   0.62154   0.00000  Uiso   1.00
C8     C     0.73364   0.34576   0.60558   0.00000  Uiso   1.00
C9     C     0.86133   0.52955   0.59009   0.00000  Uiso   1.00
C10    C     0.40097   0.03951   0.70026   0.00000  Uiso   1.00
C11    C     0.37635   0.98013   0.79552   0.00000  Uiso   1.00
C12    C     0.29383   0.97794   0.85915   0.00000  Uiso   1.00
C13    C     0.16696   0.94882   0.99039   0.00000  Uiso   1.00
C14    C     0.38541   0.15459   0.56239   0.00000  Uiso   1.00
C15    C     0.37238   0.06743   0.48100   0.00000  Uiso   1.00
C16    C     0.31277   0.04233   0.38586   0.00000  Uiso   1.00
C17    C     0.31093   0.95992   0.32234   0.00000  Uiso   1.00
C18    C     0.50912   0.23189   0.57514   0.00000  Uiso   1.00
C19    C     0.56446   0.34507   0.55917   0.00000  Uiso   1.00
C20    C     0.67774   0.40112   0.57491   0.00000  Uiso   1.00
C21    C     0.34516   0.09476   0.66965   0.00000  Uiso   1.00
C22    C     0.26267   0.09267   0.73315   0.00000  Uiso   1.00
C23    C     0.23793   0.03329   0.82848   0.00000  Uiso   1.00
H24    H     0.53161   0.00985   0.64259   0.00000  Uiso   1.00
H25    H     0.46965   0.88705   0.47194   0.00000  Uiso   1.00
H26    H     0.72130   0.18974   0.64524   0.00000  Uiso   1.00
H27    H     0.41955   0.93738   0.81919   0.00000  Uiso   1.00
H28    H     0.37637   0.77529   0.26922   0.00000  Uiso   1.00
H29    H     0.90699   0.41354   0.63466   0.00000  Uiso   1.00
H30    H     0.27070   0.88139   0.00148   0.00000  Uiso   1.00
H31    H     0.34197   0.19762   0.53855   0.00000  Uiso   1.00
H32    H     0.26959   0.08511   0.36218   0.00000  Uiso   1.00
H33    H     0.52125   0.38781   0.53548   0.00000  Uiso   1.00
H34    H     0.21950   0.13544   0.70943   0.00000  Uiso   1.00
H35    H     0.21400   0.93604   0.18013   0.00000  Uiso   1.00
H36    H     0.74463   0.57430   0.54558   0.00000  Uiso   1.00
H37    H     0.10833   0.04215   0.91239   0.00000  Uiso   1.00
O38    O     0.25103   0.77829   0.11052   0.00000  Uiso   1.00
O39    O     0.94718   0.61566   0.58999   0.00000  Uiso   1.00
O40    O     0.11238   0.91748   0.07123   0.00000  Uiso   1.00
N41    N     0.34807   0.82855   0.27247   0.00000  Uiso   1.00
N42    N     0.84418   0.42528   0.61412   0.00000  Uiso   1.00
N43    N     0.24932   0.92778   0.95707   0.00000  Uiso   1.00
N44    N     0.26070   0.91505   0.22453   0.00000  Uiso   1.00
N45    N     0.75680   0.51178   0.56618   0.00000  Uiso   1.00
N46    N     0.16194   0.01428   0.90913   0.00000  Uiso   1.00
C47    C     0.94714   0.43529   0.28542   0.00000  Uiso   1.00
C48    C     0.98783   0.41602   0.17828   0.00000  Uiso   1.00
C49    C     0.07022   0.49666   0.11489   0.00000  Uiso   1.00
C50    C     0.09543   0.46228   0.01967   0.00000  Uiso   1.00
C51    C     0.16699   0.44925   0.85794   0.00000  Uiso   1.00
C52    C     0.82336   0.38829   0.27242   0.00000  Uiso   1.00
C53    C     0.76748   0.44562   0.28820   0.00000  Uiso   1.00
C54    C     0.65424   0.38788   0.27225   0.00000  Uiso   1.00
C55    C     0.47045   0.33178   0.25675   0.00000  Uiso   1.00
C56    C     0.96049   0.36146   0.36693   0.00000  Uiso   1.00
C57    C     0.01987   0.39622   0.46219   0.00000  Uiso   1.00
C58    C     0.02206   0.31589   0.52582   0.00000  Uiso   1.00
C59    C     0.05118   0.21814   0.65706   0.00000  Uiso   1.00
C60    C     0.84541   0.23082   0.22905   0.00000  Uiso   1.00
C61    C     0.93257   0.30495   0.14766   0.00000  Uiso   1.00
C62    C     0.95767   0.27043   0.05252   0.00000  Uiso   1.00
C63    C     0.04008   0.35102   0.98900   0.00000  Uiso   1.00
C64    C     0.76811   0.27723   0.24181   0.00000  Uiso   1.00
C65    C     0.65493   0.21939   0.22584   0.00000  Uiso   1.00
C66    C     0.59888   0.27662   0.24158   0.00000  Uiso   1.00
C67    C     0.90524   0.25039   0.33631   0.00000  Uiso   1.00
C68    C     0.90733   0.17000   0.39981   0.00000  Uiso   1.00
C69    C     0.96671   0.20463   0.49515   0.00000  Uiso   1.00
H70    H     0.99015   0.52176   0.30926   0.00000  Uiso   1.00
H71    H     0.11295   0.58260   0.13861   0.00000  Uiso   1.00
H72    H     0.81026   0.53156   0.31191   0.00000  Uiso   1.00
H73    H     0.06262   0.48217   0.48586   0.00000  Uiso   1.00
H74    H     0.22471   0.60109   0.93589   0.00000  Uiso   1.00
H75    H     0.58646   0.49345   0.30133   0.00000  Uiso   1.00
H76    H     0.11861   0.38931   0.66814   0.00000  Uiso   1.00
H77    H     0.80238   0.14435   0.20522   0.00000  Uiso   1.00
H78    H     0.91489   0.18448   0.02885   0.00000  Uiso   1.00
H79    H     0.61219   0.13344   0.20215   0.00000  Uiso   1.00
H80    H     0.86456   0.08406   0.37610   0.00000  Uiso   1.00
H81    H     0.06396   0.27796   0.84680   0.00000  Uiso   1.00
H82    H     0.42570   0.17032   0.21225   0.00000  Uiso   1.00
H83    H     0.95785   0.06618   0.57905   0.00000  Uiso   1.00
O84    O     0.22171   0.47274   0.77718   0.00000  Uiso   1.00
O85    O     0.38434   0.33152   0.25665   0.00000  Uiso   1.00
O86    O     0.08252   0.19489   0.73789   0.00000  Uiso   1.00
N87    N     0.17145   0.51953   0.93913   0.00000  Uiso   1.00
N88    N     0.57472   0.41890   0.28078   0.00000  Uiso   1.00
N89    N     0.07222   0.32153   0.62374   0.00000  Uiso   1.00
N90    N     0.08495   0.34566   0.89120   0.00000  Uiso   1.00
N91    N     0.48822   0.24503   0.23285   0.00000  Uiso   1.00
N92    N     0.98572   0.14766   0.57580   0.00000  Uiso   1.00
C93    C     0.56471   0.51184   0.95209   0.00000  Uiso   1.00
C94    C     0.58398   0.57181   0.84495   0.00000  Uiso   1.00
C95    C     0.50334   0.57356   0.78156   0.00000  Uiso   1.00
C96    C     0.53772   0.63316   0.68634   0.00000  Uiso   1.00
C97    C     0.55075   0.71774   0.52461   0.00000  Uiso   1.00
C98    C     0.61171   0.43508   0.93909   0.00000  Uiso   1.00
C99    C     0.55438   0.32186   0.95487   0.00000  Uiso   1.00
C100   C     0.61212   0.26636   0.93892   0.00000  Uiso   1.00
C101   C     0.66822   0.13867   0.92342   0.00000  Uiso   1.00
C102   C     0.63854   0.59903   0.03360   0.00000  Uiso   1.00
C103   C     0.60378   0.62365   0.12886   0.00000  Uiso   1.00
C104   C     0.68411   0.70617   0.19249   0.00000  Uiso   1.00
C105   C     0.78186   0.83304   0.32372   0.00000  Uiso   1.00
C106   C     0.76918   0.61459   0.89572   0.00000  Uiso   1.00
C107   C     0.69505   0.62762   0.81433   0.00000  Uiso   1.00
C108   C     0.72957   0.68723   0.71919   0.00000  Uiso   1.00
C109   C     0.64898   0.68907   0.65567   0.00000  Uiso   1.00
C110   C     0.72277   0.49088   0.90847   0.00000  Uiso   1.00
C111   C     0.78061   0.43554   0.89250   0.00000  Uiso   1.00
C112   C     0.72338   0.32226   0.90824   0.00000  Uiso   1.00
C113   C     0.74961   0.65484   0.00298   0.00000  Uiso   1.00
C114   C     0.83000   0.73733   0.06648   0.00000  Uiso   1.00
C115   C     0.79537   0.76207   0.16181   0.00000  Uiso   1.00
H116   H     0.47824   0.46839   0.97593   0.00000  Uiso   1.00
H117   H     0.41740   0.53035   0.80527   0.00000  Uiso   1.00
H118   H     0.46844   0.27870   0.97857   0.00000  Uiso   1.00
H119   H     0.51783   0.58045   0.15252   0.00000  Uiso   1.00
H120   H     0.39891   0.62363   0.60255   0.00000  Uiso   1.00
H121   H     0.50655   0.09301   0.96800   0.00000  Uiso   1.00
H122   H     0.61069   0.72930   0.33481   0.00000  Uiso   1.00
H123   H     0.85565   0.65803   0.87188   0.00000  Uiso   1.00
H124   H     0.81552   0.73041   0.69552   0.00000  Uiso   1.00
H125   H     0.86656   0.47875   0.86881   0.00000  Uiso   1.00
H126   H     0.91594   0.78050   0.04276   0.00000  Uiso   1.00
H127   H     0.72204   0.78600   0.51346   0.00000  Uiso   1.00
H128   H     0.82968   0.25537   0.87891   0.00000  Uiso   1.00
H129   H     0.93382   0.89167   0.24572   0.00000  Uiso   1.00
O130   O     0.52726   0.74897   0.44385   0.00000  Uiso   1.00
O131   O     0.66848   0.05282   0.92332   0.00000  Uiso   1.00
O132   O     0.80511   0.88762   0.40456   0.00000  Uiso   1.00
N133   N     0.48047   0.65193   0.60580   0.00000  Uiso   1.00
N134   N     0.58110   0.15582   0.94745   0.00000  Uiso   1.00
N135   N     0.67847   0.75068   0.29040   0.00000  Uiso   1.00
N136   N     0.65434   0.73930   0.55786   0.00000  Uiso   1.00
N137   N     0.75497   0.24320   0.89952   0.00000  Uiso   1.00
N138   N     0.85234   0.83806   0.24247   0.00000  Uiso   1.00
