data_job_04042
_audit_creation_date              2018-12-19
_audit_creation_method            'Materials Studio'
_symmetry_space_group_name_H-M    'P1'
_symmetry_Int_Tables_number       1
_symmetry_cell_setting            triclinic
loop_
_symmetry_equiv_pos_as_xyz
  x,y,z
_cell_length_a                    9.7937
_cell_length_b                    14.4233
_cell_length_c                    19.2993
_cell_angle_alpha                 88.7426
_cell_angle_beta                  77.6761
_cell_angle_gamma                 94.6045
loop_
_atom_site_label
_atom_site_type_symbol
_atom_site_fract_x
_atom_site_fract_y
_atom_site_fract_z
_atom_site_U_iso_or_equiv
_atom_site_adp_type
_atom_site_occupancy
C1     C     0.31855   0.36138   0.13880   0.00000  Uiso   1.00
C2     C     0.26727   0.25910   0.13631   0.00000  Uiso   1.00
C3     C     0.19757   0.22109   0.08668   0.00000  Uiso   1.00
C4     C     0.15937   0.12599   0.09349   0.00000  Uiso   1.00
C5     C     0.07506   0.97554   0.08135   0.00000  Uiso   1.00
C6     C     0.25137   0.39201   0.21249   0.00000  Uiso   1.00
C7     C     0.16832   0.46577   0.22692   0.00000  Uiso   1.00
C8     C     0.11675   0.48256   0.29787   0.00000  Uiso   1.00
C9     C     0.00784   0.53852   0.40401   0.00000  Uiso   1.00
C10    C     0.47542   0.36360   0.13639   0.00000  Uiso   1.00
C11    C     0.58076   0.41349   0.08684   0.00000  Uiso   1.00
C12    C     0.71783   0.40637   0.09372   0.00000  Uiso   1.00
C13    C     0.95679   0.41821   0.08169   0.00000  Uiso   1.00
C14    C     0.37465   0.26006   0.23916   0.00000  Uiso   1.00
C15    C     0.29774   0.20407   0.19082   0.00000  Uiso   1.00
C16    C     0.25964   0.10899   0.19771   0.00000  Uiso   1.00
C17    C     0.18990   0.07085   0.14810   0.00000  Uiso   1.00
C18    C     0.28184   0.33698   0.26700   0.00000  Uiso   1.00
C19    C     0.23039   0.35367   0.33795   0.00000  Uiso   1.00
C20    C     0.14728   0.42743   0.35248   0.00000  Uiso   1.00
C21    C     0.50590   0.30856   0.19090   0.00000  Uiso   1.00
C22    C     0.64283   0.30138   0.19787   0.00000  Uiso   1.00
C23    C     0.74835   0.35124   0.14833   0.00000  Uiso   1.00
H24    H     0.29482   0.40423   0.09637   0.00000  Uiso   1.00
H25    H     0.17400   0.26371   0.04450   0.00000  Uiso   1.00
H26    H     0.14477   0.50836   0.18473   0.00000  Uiso   1.00
H27    H     0.55714   0.45607   0.04466   0.00000  Uiso   1.00
H28    H     0.05344   0.08365   0.01106   0.00000  Uiso   1.00
H29    H     0.99185   0.59952   0.30672   0.00000  Uiso   1.00
H30    H     0.86141   0.48927   0.01137   0.00000  Uiso   1.00
H31    H     0.39837   0.21721   0.28160   0.00000  Uiso   1.00
H32    H     0.28324   0.06642   0.23990   0.00000  Uiso   1.00
H33    H     0.25400   0.31107   0.38012   0.00000  Uiso   1.00
H34    H     0.66637   0.25879   0.24006   0.00000  Uiso   1.00
H35    H     0.14209   0.92352   0.16965   0.00000  Uiso   1.00
H36    H     0.08051   0.43940   0.46531   0.00000  Uiso   1.00
H37    H     0.95007   0.32915   0.16996   0.00000  Uiso   1.00
O38    O     0.02012   0.90777   0.05959   0.00000  Uiso   1.00
O39    O     0.93934   0.58459   0.44749   0.00000  Uiso   1.00
O40    O     0.08018   0.43994   0.05999   0.00000  Uiso   1.00
N41    N     0.09013   0.06665   0.05410   0.00000  Uiso   1.00
N42    N     0.03253   0.54895   0.33052   0.00000  Uiso   1.00
N43    N     0.84549   0.44590   0.05440   0.00000  Uiso   1.00
N44    N     0.13784   0.98049   0.13943   0.00000  Uiso   1.00
N45    N     0.08023   0.46279   0.41586   0.00000  Uiso   1.00
N46    N     0.89320   0.35974   0.13974   0.00000  Uiso   1.00
C47    C     0.68145   0.63862   0.86120   0.00000  Uiso   1.00
C48    C     0.73273   0.74090   0.86369   0.00000  Uiso   1.00
C49    C     0.80243   0.77891   0.91332   0.00000  Uiso   1.00
C50    C     0.84063   0.87401   0.90651   0.00000  Uiso   1.00
C51    C     0.92494   0.02446   0.91865   0.00000  Uiso   1.00
C52    C     0.74863   0.60799   0.78751   0.00000  Uiso   1.00
C53    C     0.83168   0.53423   0.77308   0.00000  Uiso   1.00
C54    C     0.88325   0.51744   0.70213   0.00000  Uiso   1.00
C55    C     0.99216   0.46148   0.59599   0.00000  Uiso   1.00
C56    C     0.52458   0.63640   0.86361   0.00000  Uiso   1.00
C57    C     0.41924   0.58651   0.91316   0.00000  Uiso   1.00
C58    C     0.28217   0.59363   0.90628   0.00000  Uiso   1.00
C59    C     0.04321   0.58179   0.91831   0.00000  Uiso   1.00
C60    C     0.62535   0.73994   0.76084   0.00000  Uiso   1.00
C61    C     0.70226   0.79593   0.80918   0.00000  Uiso   1.00
C62    C     0.74036   0.89101   0.80229   0.00000  Uiso   1.00
C63    C     0.81010   0.92915   0.85190   0.00000  Uiso   1.00
C64    C     0.71816   0.66302   0.73300   0.00000  Uiso   1.00
C65    C     0.76961   0.64633   0.66205   0.00000  Uiso   1.00
C66    C     0.85272   0.57257   0.64752   0.00000  Uiso   1.00
C67    C     0.49410   0.69144   0.80910   0.00000  Uiso   1.00
C68    C     0.35717   0.69862   0.80213   0.00000  Uiso   1.00
C69    C     0.25165   0.64876   0.85167   0.00000  Uiso   1.00
H70    H     0.70518   0.59577   0.90363   0.00000  Uiso   1.00
H71    H     0.82600   0.73629   0.95550   0.00000  Uiso   1.00
H72    H     0.85523   0.49164   0.81527   0.00000  Uiso   1.00
H73    H     0.44286   0.54393   0.95534   0.00000  Uiso   1.00
H74    H     0.94656   0.91635   0.98894   0.00000  Uiso   1.00
H75    H     0.00815   0.40048   0.69328   0.00000  Uiso   1.00
H76    H     0.13859   0.51073   0.98863   0.00000  Uiso   1.00
H77    H     0.60163   0.78279   0.71840   0.00000  Uiso   1.00
H78    H     0.71676   0.93358   0.76010   0.00000  Uiso   1.00
H79    H     0.74600   0.68893   0.61988   0.00000  Uiso   1.00
H80    H     0.33363   0.74121   0.75994   0.00000  Uiso   1.00
H81    H     0.85791   0.07648   0.83035   0.00000  Uiso   1.00
H82    H     0.91949   0.56060   0.53469   0.00000  Uiso   1.00
H83    H     0.04993   0.67085   0.83004   0.00000  Uiso   1.00
O84    O     0.97988   0.09223   0.94041   0.00000  Uiso   1.00
O85    O     0.06066   0.41541   0.55251   0.00000  Uiso   1.00
O86    O     0.91982   0.56006   0.94001   0.00000  Uiso   1.00
N87    N     0.90987   0.93335   0.94590   0.00000  Uiso   1.00
N88    N     0.96747   0.45105   0.66948   0.00000  Uiso   1.00
N89    N     0.15451   0.55410   0.94560   0.00000  Uiso   1.00
N90    N     0.86216   0.01951   0.86057   0.00000  Uiso   1.00
N91    N     0.91977   0.53721   0.58414   0.00000  Uiso   1.00
N92    N     0.10680   0.64026   0.86026   0.00000  Uiso   1.00
