data_job_03899
_audit_creation_date              2018-12-19
_audit_creation_method            'Materials Studio'
_symmetry_space_group_name_H-M    'P1'
_symmetry_Int_Tables_number       1
_symmetry_cell_setting            triclinic
loop_
_symmetry_equiv_pos_as_xyz
  x,y,z
_cell_length_a                    14.2876
_cell_length_b                    14.0832
_cell_length_c                    26.4749
_cell_angle_alpha                 90.0000
_cell_angle_beta                  90.0000
_cell_angle_gamma                 90.0000
loop_
_atom_site_label
_atom_site_type_symbol
_atom_site_fract_x
_atom_site_fract_y
_atom_site_fract_z
_atom_site_U_iso_or_equiv
_atom_site_adp_type
_atom_site_occupancy
C1     C     0.97031   0.05904   0.57787   0.00000  Uiso   1.00
C2     C     0.03693   0.01104   0.61493   0.00000  Uiso   1.00
C3     C     0.08913   0.92988   0.60544   0.00000  Uiso   1.00
C4     C     0.14592   0.89711   0.64425   0.00000  Uiso   1.00
C5     C     0.24867   0.81545   0.69471   0.00000  Uiso   1.00
C6     C     0.87567   0.06365   0.60439   0.00000  Uiso   1.00
C7     C     0.79228   0.02672   0.58603   0.00000  Uiso   1.00
C8     C     0.71331   0.03825   0.61598   0.00000  Uiso   1.00
C9     C     0.56569   0.03831   0.65005   0.00000  Uiso   1.00
C10    C     0.00382   0.16145   0.57312   0.00000  Uiso   1.00
C11    C     0.02816   0.20677   0.52846   0.00000  Uiso   1.00
C12    C     0.05707   0.30065   0.53208   0.00000  Uiso   1.00
C13    C     0.10842   0.45256   0.51760   0.00000  Uiso   1.00
C14    C     0.97834   0.14518   0.66370   0.00000  Uiso   1.00
C15    C     0.04129   0.05783   0.66155   0.00000  Uiso   1.00
C16    C     0.09802   0.02518   0.70039   0.00000  Uiso   1.00
C17    C     0.15030   0.94399   0.69095   0.00000  Uiso   1.00
C18    C     0.88003   0.11043   0.65101   0.00000  Uiso   1.00
C19    C     0.80117   0.12202   0.68099   0.00000  Uiso   1.00
C20    C     0.71768   0.08512   0.66268   0.00000  Uiso   1.00
C21    C     0.00819   0.20824   0.61973   0.00000  Uiso   1.00
C22    C     0.03706   0.30207   0.62342   0.00000  Uiso   1.00
C23    C     0.06144   0.34752   0.57878   0.00000  Uiso   1.00
H24    H     0.96690   0.02261   0.54158   0.00000  Uiso   1.00
H25    H     0.08573   0.89369   0.56936   0.00000  Uiso   1.00
H26    H     0.78892   0.99053   0.54995   0.00000  Uiso   1.00
H27    H     0.02477   0.17054   0.49240   0.00000  Uiso   1.00
H28    H     0.21937   0.77137   0.62071   0.00000  Uiso   1.00
H29    H     0.59353   0.97558   0.57979   0.00000  Uiso   1.00
H30    H     0.09087   0.35518   0.45842   0.00000  Uiso   1.00
H31    H     0.98174   0.18160   0.69999   0.00000  Uiso   1.00
H32    H     0.10139   0.06140   0.73646   0.00000  Uiso   1.00
H33    H     0.80457   0.15824   0.71706   0.00000  Uiso   1.00
H34    H     0.04043   0.33825   0.65950   0.00000  Uiso   1.00
H35    H     0.23207   0.90748   0.75634   0.00000  Uiso   1.00
H36    H     0.60622   0.11171   0.71542   0.00000  Uiso   1.00
H37    H     0.10357   0.49130   0.59405   0.00000  Uiso   1.00
O38    O     0.30413   0.75747   0.70966   0.00000  Uiso   1.00
O39    O     0.48305   0.02541   0.65597   0.00000  Uiso   1.00
O40    O     0.13556   0.52343   0.49674   0.00000  Uiso   1.00
N41    N     0.20595   0.81991   0.64763   0.00000  Uiso   1.00
N42    N     0.62083   0.01083   0.60937   0.00000  Uiso   1.00
N43    N     0.08578   0.36573   0.49590   0.00000  Uiso   1.00
N44    N     0.21279   0.89315   0.72061   0.00000  Uiso   1.00
N45    N     0.62767   0.08407   0.68235   0.00000  Uiso   1.00
N46    N     0.09261   0.43897   0.56888   0.00000  Uiso   1.00
C47    C     0.52969   0.44096   0.07787   0.00000  Uiso   1.00
C48    C     0.46307   0.48896   0.11493   0.00000  Uiso   1.00
C49    C     0.41087   0.57012   0.10544   0.00000  Uiso   1.00
C50    C     0.35408   0.60289   0.14425   0.00000  Uiso   1.00
C51    C     0.25133   0.68455   0.19471   0.00000  Uiso   1.00
C52    C     0.62433   0.43635   0.10439   0.00000  Uiso   1.00
C53    C     0.70772   0.47328   0.08603   0.00000  Uiso   1.00
C54    C     0.78669   0.46175   0.11598   0.00000  Uiso   1.00
C55    C     0.93431   0.46169   0.15005   0.00000  Uiso   1.00
C56    C     0.49618   0.33855   0.07312   0.00000  Uiso   1.00
C57    C     0.47184   0.29323   0.02846   0.00000  Uiso   1.00
C58    C     0.44293   0.19935   0.03208   0.00000  Uiso   1.00
C59    C     0.39158   0.04744   0.01760   0.00000  Uiso   1.00
C60    C     0.52166   0.35482   0.16370   0.00000  Uiso   1.00
C61    C     0.45871   0.44217   0.16155   0.00000  Uiso   1.00
C62    C     0.40198   0.47482   0.20039   0.00000  Uiso   1.00
C63    C     0.34970   0.55601   0.19095   0.00000  Uiso   1.00
C64    C     0.61997   0.38957   0.15101   0.00000  Uiso   1.00
C65    C     0.69883   0.37798   0.18099   0.00000  Uiso   1.00
C66    C     0.78232   0.41488   0.16268   0.00000  Uiso   1.00
C67    C     0.49181   0.29176   0.11973   0.00000  Uiso   1.00
C68    C     0.46294   0.19793   0.12342   0.00000  Uiso   1.00
C69    C     0.43856   0.15248   0.07878   0.00000  Uiso   1.00
H70    H     0.53310   0.47739   0.04158   0.00000  Uiso   1.00
H71    H     0.41427   0.60631   0.06936   0.00000  Uiso   1.00
H72    H     0.71108   0.50947   0.04995   0.00000  Uiso   1.00
H73    H     0.47523   0.32946   0.99240   0.00000  Uiso   1.00
H74    H     0.28063   0.72863   0.12071   0.00000  Uiso   1.00
H75    H     0.90647   0.52442   0.07979   0.00000  Uiso   1.00
H76    H     0.40913   0.14482   0.95842   0.00000  Uiso   1.00
H77    H     0.51826   0.31840   0.19999   0.00000  Uiso   1.00
H78    H     0.39861   0.43860   0.23646   0.00000  Uiso   1.00
H79    H     0.69543   0.34176   0.21706   0.00000  Uiso   1.00
H80    H     0.45957   0.16175   0.15950   0.00000  Uiso   1.00
H81    H     0.26793   0.59252   0.25634   0.00000  Uiso   1.00
H82    H     0.89378   0.38829   0.21542   0.00000  Uiso   1.00
H83    H     0.39643   0.00870   0.09405   0.00000  Uiso   1.00
O84    O     0.19587   0.74253   0.20966   0.00000  Uiso   1.00
O85    O     0.01695   0.47459   0.15597   0.00000  Uiso   1.00
O86    O     0.36444   0.97657   0.99674   0.00000  Uiso   1.00
N87    N     0.29405   0.68009   0.14763   0.00000  Uiso   1.00
N88    N     0.87917   0.48917   0.10937   0.00000  Uiso   1.00
N89    N     0.41422   0.13427   0.99590   0.00000  Uiso   1.00
N90    N     0.28721   0.60685   0.22061   0.00000  Uiso   1.00
N91    N     0.87233   0.41593   0.18235   0.00000  Uiso   1.00
N92    N     0.40739   0.06103   0.06888   0.00000  Uiso   1.00
C93    C     0.02969   0.05904   0.92213   0.00000  Uiso   1.00
C94    C     0.96307   0.01104   0.88507   0.00000  Uiso   1.00
C95    C     0.91087   0.92988   0.89456   0.00000  Uiso   1.00
C96    C     0.85408   0.89711   0.85575   0.00000  Uiso   1.00
C97    C     0.75133   0.81545   0.80529   0.00000  Uiso   1.00
C98    C     0.12433   0.06365   0.89561   0.00000  Uiso   1.00
C99    C     0.20772   0.02672   0.91397   0.00000  Uiso   1.00
C100   C     0.28669   0.03825   0.88402   0.00000  Uiso   1.00
C101   C     0.43431   0.03831   0.84995   0.00000  Uiso   1.00
C102   C     0.99618   0.16145   0.92688   0.00000  Uiso   1.00
C103   C     0.97184   0.20677   0.97154   0.00000  Uiso   1.00
C104   C     0.94293   0.30065   0.96792   0.00000  Uiso   1.00
C105   C     0.89158   0.45256   0.98240   0.00000  Uiso   1.00
C106   C     0.02166   0.14518   0.83630   0.00000  Uiso   1.00
C107   C     0.95871   0.05783   0.83845   0.00000  Uiso   1.00
C108   C     0.90198   0.02518   0.79961   0.00000  Uiso   1.00
C109   C     0.84970   0.94399   0.80905   0.00000  Uiso   1.00
C110   C     0.11997   0.11043   0.84899   0.00000  Uiso   1.00
C111   C     0.19883   0.12202   0.81901   0.00000  Uiso   1.00
C112   C     0.28232   0.08512   0.83732   0.00000  Uiso   1.00
C113   C     0.99181   0.20824   0.88027   0.00000  Uiso   1.00
C114   C     0.96294   0.30207   0.87658   0.00000  Uiso   1.00
C115   C     0.93856   0.34752   0.92122   0.00000  Uiso   1.00
H116   H     0.03310   0.02261   0.95842   0.00000  Uiso   1.00
H117   H     0.91427   0.89369   0.93064   0.00000  Uiso   1.00
H118   H     0.21108   0.99053   0.95005   0.00000  Uiso   1.00
H119   H     0.97523   0.17054   0.00760   0.00000  Uiso   1.00
H120   H     0.78063   0.77137   0.87929   0.00000  Uiso   1.00
H121   H     0.40647   0.97558   0.92021   0.00000  Uiso   1.00
H122   H     0.90913   0.35518   0.04158   0.00000  Uiso   1.00
H123   H     0.01826   0.18160   0.80001   0.00000  Uiso   1.00
H124   H     0.89861   0.06140   0.76354   0.00000  Uiso   1.00
H125   H     0.19543   0.15824   0.78294   0.00000  Uiso   1.00
H126   H     0.95957   0.33825   0.84050   0.00000  Uiso   1.00
H127   H     0.76793   0.90748   0.74366   0.00000  Uiso   1.00
H128   H     0.39378   0.11171   0.78458   0.00000  Uiso   1.00
H129   H     0.89643   0.49130   0.90595   0.00000  Uiso   1.00
O130   O     0.69587   0.75747   0.79034   0.00000  Uiso   1.00
O131   O     0.51695   0.02541   0.84403   0.00000  Uiso   1.00
O132   O     0.86444   0.52343   0.00326   0.00000  Uiso   1.00
N133   N     0.79405   0.81991   0.85237   0.00000  Uiso   1.00
N134   N     0.37917   0.01083   0.89063   0.00000  Uiso   1.00
N135   N     0.91422   0.36573   0.00410   0.00000  Uiso   1.00
N136   N     0.78721   0.89315   0.77939   0.00000  Uiso   1.00
N137   N     0.37233   0.08407   0.81765   0.00000  Uiso   1.00
N138   N     0.90739   0.43897   0.93112   0.00000  Uiso   1.00
C139   C     0.47031   0.44096   0.42213   0.00000  Uiso   1.00
C140   C     0.53693   0.48896   0.38507   0.00000  Uiso   1.00
C141   C     0.58913   0.57012   0.39456   0.00000  Uiso   1.00
C142   C     0.64592   0.60289   0.35575   0.00000  Uiso   1.00
C143   C     0.74867   0.68455   0.30529   0.00000  Uiso   1.00
C144   C     0.37567   0.43635   0.39561   0.00000  Uiso   1.00
C145   C     0.29228   0.47328   0.41397   0.00000  Uiso   1.00
C146   C     0.21331   0.46175   0.38402   0.00000  Uiso   1.00
C147   C     0.06569   0.46169   0.34995   0.00000  Uiso   1.00
C148   C     0.50382   0.33855   0.42688   0.00000  Uiso   1.00
C149   C     0.52816   0.29323   0.47154   0.00000  Uiso   1.00
C150   C     0.55707   0.19935   0.46792   0.00000  Uiso   1.00
C151   C     0.60842   0.04744   0.48240   0.00000  Uiso   1.00
C152   C     0.47834   0.35482   0.33630   0.00000  Uiso   1.00
C153   C     0.54129   0.44217   0.33845   0.00000  Uiso   1.00
C154   C     0.59802   0.47482   0.29961   0.00000  Uiso   1.00
C155   C     0.65030   0.55601   0.30905   0.00000  Uiso   1.00
C156   C     0.38003   0.38957   0.34899   0.00000  Uiso   1.00
C157   C     0.30117   0.37798   0.31901   0.00000  Uiso   1.00
C158   C     0.21768   0.41488   0.33732   0.00000  Uiso   1.00
C159   C     0.50819   0.29176   0.38027   0.00000  Uiso   1.00
C160   C     0.53706   0.19793   0.37658   0.00000  Uiso   1.00
C161   C     0.56144   0.15248   0.42122   0.00000  Uiso   1.00
H162   H     0.46690   0.47739   0.45842   0.00000  Uiso   1.00
H163   H     0.58573   0.60631   0.43064   0.00000  Uiso   1.00
H164   H     0.28892   0.50947   0.45005   0.00000  Uiso   1.00
H165   H     0.52477   0.32946   0.50760   0.00000  Uiso   1.00
H166   H     0.71937   0.72863   0.37929   0.00000  Uiso   1.00
H167   H     0.09353   0.52442   0.42021   0.00000  Uiso   1.00
H168   H     0.59087   0.14482   0.54158   0.00000  Uiso   1.00
H169   H     0.48174   0.31840   0.30001   0.00000  Uiso   1.00
H170   H     0.60139   0.43860   0.26354   0.00000  Uiso   1.00
H171   H     0.30457   0.34176   0.28294   0.00000  Uiso   1.00
H172   H     0.54043   0.16175   0.34050   0.00000  Uiso   1.00
H173   H     0.73207   0.59252   0.24366   0.00000  Uiso   1.00
H174   H     0.10622   0.38829   0.28458   0.00000  Uiso   1.00
H175   H     0.60357   0.00870   0.40595   0.00000  Uiso   1.00
O176   O     0.80413   0.74253   0.29034   0.00000  Uiso   1.00
O177   O     0.98305   0.47459   0.34403   0.00000  Uiso   1.00
O178   O     0.63556   0.97657   0.50326   0.00000  Uiso   1.00
N179   N     0.70595   0.68009   0.35237   0.00000  Uiso   1.00
N180   N     0.12083   0.48917   0.39063   0.00000  Uiso   1.00
N181   N     0.58578   0.13427   0.50410   0.00000  Uiso   1.00
N182   N     0.71279   0.60685   0.27939   0.00000  Uiso   1.00
N183   N     0.12767   0.41593   0.31765   0.00000  Uiso   1.00
N184   N     0.59261   0.06103   0.43112   0.00000  Uiso   1.00
C185   C     0.02969   0.94096   0.42213   0.00000  Uiso   1.00
C186   C     0.96307   0.98896   0.38507   0.00000  Uiso   1.00
C187   C     0.91087   0.07012   0.39456   0.00000  Uiso   1.00
C188   C     0.85408   0.10289   0.35575   0.00000  Uiso   1.00
C189   C     0.75133   0.18455   0.30529   0.00000  Uiso   1.00
C190   C     0.12433   0.93635   0.39561   0.00000  Uiso   1.00
C191   C     0.20772   0.97328   0.41397   0.00000  Uiso   1.00
C192   C     0.28669   0.96175   0.38402   0.00000  Uiso   1.00
C193   C     0.43431   0.96169   0.34995   0.00000  Uiso   1.00
C194   C     0.99618   0.83855   0.42688   0.00000  Uiso   1.00
C195   C     0.97184   0.79323   0.47154   0.00000  Uiso   1.00
C196   C     0.94293   0.69935   0.46792   0.00000  Uiso   1.00
C197   C     0.89158   0.54744   0.48240   0.00000  Uiso   1.00
C198   C     0.02166   0.85482   0.33630   0.00000  Uiso   1.00
C199   C     0.95871   0.94217   0.33845   0.00000  Uiso   1.00
C200   C     0.90198   0.97482   0.29961   0.00000  Uiso   1.00
C201   C     0.84970   0.05601   0.30905   0.00000  Uiso   1.00
C202   C     0.11997   0.88957   0.34899   0.00000  Uiso   1.00
C203   C     0.19883   0.87798   0.31901   0.00000  Uiso   1.00
C204   C     0.28232   0.91488   0.33732   0.00000  Uiso   1.00
C205   C     0.99181   0.79176   0.38027   0.00000  Uiso   1.00
C206   C     0.96294   0.69793   0.37658   0.00000  Uiso   1.00
C207   C     0.93856   0.65248   0.42122   0.00000  Uiso   1.00
H208   H     0.03310   0.97739   0.45842   0.00000  Uiso   1.00
H209   H     0.91427   0.10631   0.43064   0.00000  Uiso   1.00
H210   H     0.21108   0.00947   0.45005   0.00000  Uiso   1.00
H211   H     0.97523   0.82946   0.50760   0.00000  Uiso   1.00
H212   H     0.78063   0.22863   0.37929   0.00000  Uiso   1.00
H213   H     0.40647   0.02442   0.42021   0.00000  Uiso   1.00
H214   H     0.90913   0.64482   0.54158   0.00000  Uiso   1.00
H215   H     0.01826   0.81840   0.30001   0.00000  Uiso   1.00
H216   H     0.89861   0.93860   0.26354   0.00000  Uiso   1.00
H217   H     0.19543   0.84176   0.28294   0.00000  Uiso   1.00
H218   H     0.95957   0.66175   0.34050   0.00000  Uiso   1.00
H219   H     0.76793   0.09252   0.24366   0.00000  Uiso   1.00
H220   H     0.39378   0.88829   0.28458   0.00000  Uiso   1.00
H221   H     0.89643   0.50870   0.40595   0.00000  Uiso   1.00
O222   O     0.69587   0.24253   0.29034   0.00000  Uiso   1.00
O223   O     0.51695   0.97459   0.34403   0.00000  Uiso   1.00
O224   O     0.86444   0.47657   0.50326   0.00000  Uiso   1.00
N225   N     0.79405   0.18009   0.35237   0.00000  Uiso   1.00
N226   N     0.37917   0.98917   0.39063   0.00000  Uiso   1.00
N227   N     0.91422   0.63427   0.50410   0.00000  Uiso   1.00
N228   N     0.78721   0.10685   0.27939   0.00000  Uiso   1.00
N229   N     0.37233   0.91593   0.31765   0.00000  Uiso   1.00
N230   N     0.90739   0.56103   0.43112   0.00000  Uiso   1.00
C231   C     0.47031   0.55904   0.92213   0.00000  Uiso   1.00
C232   C     0.53693   0.51104   0.88507   0.00000  Uiso   1.00
C233   C     0.58913   0.42988   0.89456   0.00000  Uiso   1.00
C234   C     0.64592   0.39711   0.85575   0.00000  Uiso   1.00
C235   C     0.74867   0.31545   0.80529   0.00000  Uiso   1.00
C236   C     0.37567   0.56365   0.89561   0.00000  Uiso   1.00
C237   C     0.29228   0.52672   0.91397   0.00000  Uiso   1.00
C238   C     0.21331   0.53825   0.88402   0.00000  Uiso   1.00
C239   C     0.06569   0.53831   0.84995   0.00000  Uiso   1.00
C240   C     0.50382   0.66145   0.92688   0.00000  Uiso   1.00
C241   C     0.52816   0.70677   0.97154   0.00000  Uiso   1.00
C242   C     0.55707   0.80065   0.96792   0.00000  Uiso   1.00
C243   C     0.60842   0.95256   0.98240   0.00000  Uiso   1.00
C244   C     0.47834   0.64518   0.83630   0.00000  Uiso   1.00
C245   C     0.54129   0.55783   0.83845   0.00000  Uiso   1.00
C246   C     0.59802   0.52518   0.79961   0.00000  Uiso   1.00
C247   C     0.65030   0.44399   0.80905   0.00000  Uiso   1.00
C248   C     0.38003   0.61043   0.84899   0.00000  Uiso   1.00
C249   C     0.30117   0.62202   0.81901   0.00000  Uiso   1.00
C250   C     0.21768   0.58512   0.83732   0.00000  Uiso   1.00
C251   C     0.50819   0.70824   0.88027   0.00000  Uiso   1.00
C252   C     0.53706   0.80207   0.87658   0.00000  Uiso   1.00
C253   C     0.56144   0.84752   0.92122   0.00000  Uiso   1.00
H254   H     0.46690   0.52261   0.95842   0.00000  Uiso   1.00
H255   H     0.58573   0.39369   0.93064   0.00000  Uiso   1.00
H256   H     0.28892   0.49053   0.95005   0.00000  Uiso   1.00
H257   H     0.52477   0.67054   0.00760   0.00000  Uiso   1.00
H258   H     0.71937   0.27137   0.87929   0.00000  Uiso   1.00
H259   H     0.09353   0.47558   0.92021   0.00000  Uiso   1.00
H260   H     0.59087   0.85518   0.04158   0.00000  Uiso   1.00
H261   H     0.48174   0.68160   0.80001   0.00000  Uiso   1.00
H262   H     0.60139   0.56140   0.76354   0.00000  Uiso   1.00
H263   H     0.30457   0.65824   0.78294   0.00000  Uiso   1.00
H264   H     0.54043   0.83825   0.84050   0.00000  Uiso   1.00
H265   H     0.73207   0.40748   0.74366   0.00000  Uiso   1.00
H266   H     0.10622   0.61171   0.78458   0.00000  Uiso   1.00
H267   H     0.60357   0.99130   0.90595   0.00000  Uiso   1.00
O268   O     0.80413   0.25747   0.79034   0.00000  Uiso   1.00
O269   O     0.98305   0.52541   0.84403   0.00000  Uiso   1.00
O270   O     0.63556   0.02343   0.00326   0.00000  Uiso   1.00
N271   N     0.70595   0.31991   0.85237   0.00000  Uiso   1.00
N272   N     0.12083   0.51083   0.89063   0.00000  Uiso   1.00
N273   N     0.58578   0.86573   0.00410   0.00000  Uiso   1.00
N274   N     0.71279   0.39315   0.77939   0.00000  Uiso   1.00
N275   N     0.12767   0.58407   0.81765   0.00000  Uiso   1.00
N276   N     0.59261   0.93897   0.93112   0.00000  Uiso   1.00
C277   C     0.97031   0.94096   0.07787   0.00000  Uiso   1.00
C278   C     0.03693   0.98896   0.11493   0.00000  Uiso   1.00
C279   C     0.08913   0.07012   0.10544   0.00000  Uiso   1.00
C280   C     0.14592   0.10289   0.14425   0.00000  Uiso   1.00
C281   C     0.24867   0.18455   0.19471   0.00000  Uiso   1.00
C282   C     0.87567   0.93635   0.10439   0.00000  Uiso   1.00
C283   C     0.79228   0.97328   0.08603   0.00000  Uiso   1.00
C284   C     0.71331   0.96175   0.11598   0.00000  Uiso   1.00
C285   C     0.56569   0.96169   0.15005   0.00000  Uiso   1.00
C286   C     0.00382   0.83855   0.07312   0.00000  Uiso   1.00
C287   C     0.02816   0.79323   0.02846   0.00000  Uiso   1.00
C288   C     0.05707   0.69935   0.03208   0.00000  Uiso   1.00
C289   C     0.10842   0.54744   0.01760   0.00000  Uiso   1.00
C290   C     0.97834   0.85482   0.16370   0.00000  Uiso   1.00
C291   C     0.04129   0.94217   0.16155   0.00000  Uiso   1.00
C292   C     0.09802   0.97482   0.20039   0.00000  Uiso   1.00
C293   C     0.15030   0.05601   0.19095   0.00000  Uiso   1.00
C294   C     0.88003   0.88957   0.15101   0.00000  Uiso   1.00
C295   C     0.80117   0.87798   0.18099   0.00000  Uiso   1.00
C296   C     0.71768   0.91488   0.16268   0.00000  Uiso   1.00
C297   C     0.00819   0.79176   0.11973   0.00000  Uiso   1.00
C298   C     0.03706   0.69793   0.12342   0.00000  Uiso   1.00
C299   C     0.06144   0.65248   0.07878   0.00000  Uiso   1.00
H300   H     0.96690   0.97739   0.04158   0.00000  Uiso   1.00
H301   H     0.08573   0.10631   0.06936   0.00000  Uiso   1.00
H302   H     0.78892   0.00947   0.04995   0.00000  Uiso   1.00
H303   H     0.02477   0.82946   0.99240   0.00000  Uiso   1.00
H304   H     0.21937   0.22863   0.12071   0.00000  Uiso   1.00
H305   H     0.59353   0.02442   0.07979   0.00000  Uiso   1.00
H306   H     0.09087   0.64482   0.95842   0.00000  Uiso   1.00
H307   H     0.98174   0.81840   0.19999   0.00000  Uiso   1.00
H308   H     0.10139   0.93860   0.23646   0.00000  Uiso   1.00
H309   H     0.80457   0.84176   0.21706   0.00000  Uiso   1.00
H310   H     0.04043   0.66175   0.15950   0.00000  Uiso   1.00
H311   H     0.23207   0.09252   0.25634   0.00000  Uiso   1.00
H312   H     0.60622   0.88829   0.21542   0.00000  Uiso   1.00
H313   H     0.10357   0.50870   0.09405   0.00000  Uiso   1.00
O314   O     0.30413   0.24253   0.20966   0.00000  Uiso   1.00
O315   O     0.48305   0.97459   0.15597   0.00000  Uiso   1.00
O316   O     0.13556   0.47657   0.99674   0.00000  Uiso   1.00
N317   N     0.20595   0.18009   0.14763   0.00000  Uiso   1.00
N318   N     0.62083   0.98917   0.10937   0.00000  Uiso   1.00
N319   N     0.08578   0.63427   0.99590   0.00000  Uiso   1.00
N320   N     0.21279   0.10685   0.22061   0.00000  Uiso   1.00
N321   N     0.62767   0.91593   0.18235   0.00000  Uiso   1.00
N322   N     0.09261   0.56103   0.06888   0.00000  Uiso   1.00
C323   C     0.52969   0.55904   0.57787   0.00000  Uiso   1.00
C324   C     0.46307   0.51104   0.61493   0.00000  Uiso   1.00
C325   C     0.41087   0.42988   0.60544   0.00000  Uiso   1.00
C326   C     0.35408   0.39711   0.64425   0.00000  Uiso   1.00
C327   C     0.25133   0.31545   0.69471   0.00000  Uiso   1.00
C328   C     0.62433   0.56365   0.60439   0.00000  Uiso   1.00
C329   C     0.70772   0.52672   0.58603   0.00000  Uiso   1.00
C330   C     0.78669   0.53825   0.61598   0.00000  Uiso   1.00
C331   C     0.93431   0.53831   0.65005   0.00000  Uiso   1.00
C332   C     0.49618   0.66145   0.57312   0.00000  Uiso   1.00
C333   C     0.47184   0.70677   0.52846   0.00000  Uiso   1.00
C334   C     0.44293   0.80065   0.53208   0.00000  Uiso   1.00
C335   C     0.39158   0.95256   0.51760   0.00000  Uiso   1.00
C336   C     0.52166   0.64518   0.66370   0.00000  Uiso   1.00
C337   C     0.45871   0.55783   0.66155   0.00000  Uiso   1.00
C338   C     0.40198   0.52518   0.70039   0.00000  Uiso   1.00
C339   C     0.34970   0.44399   0.69095   0.00000  Uiso   1.00
C340   C     0.61997   0.61043   0.65101   0.00000  Uiso   1.00
C341   C     0.69883   0.62202   0.68099   0.00000  Uiso   1.00
C342   C     0.78232   0.58512   0.66268   0.00000  Uiso   1.00
C343   C     0.49181   0.70824   0.61973   0.00000  Uiso   1.00
C344   C     0.46294   0.80207   0.62342   0.00000  Uiso   1.00
C345   C     0.43856   0.84752   0.57878   0.00000  Uiso   1.00
H346   H     0.53310   0.52261   0.54158   0.00000  Uiso   1.00
H347   H     0.41427   0.39369   0.56936   0.00000  Uiso   1.00
H348   H     0.71108   0.49053   0.54995   0.00000  Uiso   1.00
H349   H     0.47523   0.67054   0.49240   0.00000  Uiso   1.00
H350   H     0.28063   0.27137   0.62071   0.00000  Uiso   1.00
H351   H     0.90647   0.47558   0.57979   0.00000  Uiso   1.00
H352   H     0.40913   0.85518   0.45842   0.00000  Uiso   1.00
H353   H     0.51826   0.68160   0.69999   0.00000  Uiso   1.00
H354   H     0.39861   0.56140   0.73646   0.00000  Uiso   1.00
H355   H     0.69543   0.65824   0.71706   0.00000  Uiso   1.00
H356   H     0.45957   0.83825   0.65950   0.00000  Uiso   1.00
H357   H     0.26793   0.40748   0.75634   0.00000  Uiso   1.00
H358   H     0.89378   0.61171   0.71542   0.00000  Uiso   1.00
H359   H     0.39643   0.99130   0.59405   0.00000  Uiso   1.00
O360   O     0.19587   0.25747   0.70966   0.00000  Uiso   1.00
O361   O     0.01695   0.52541   0.65597   0.00000  Uiso   1.00
O362   O     0.36444   0.02343   0.49674   0.00000  Uiso   1.00
N363   N     0.29405   0.31991   0.64763   0.00000  Uiso   1.00
N364   N     0.87917   0.51083   0.60937   0.00000  Uiso   1.00
N365   N     0.41422   0.86573   0.49590   0.00000  Uiso   1.00
N366   N     0.28721   0.39315   0.72061   0.00000  Uiso   1.00
N367   N     0.87233   0.58407   0.68235   0.00000  Uiso   1.00
N368   N     0.40739   0.93897   0.56888   0.00000  Uiso   1.00
