data_job_04157
_audit_creation_date              2018-12-19
_audit_creation_method            'Materials Studio'
_symmetry_space_group_name_H-M    'P1'
_symmetry_Int_Tables_number       1
_symmetry_cell_setting            triclinic
loop_
_symmetry_equiv_pos_as_xyz
  x,y,z
_cell_length_a                    12.1987
_cell_length_b                    26.7541
_cell_length_c                    19.4631
_cell_angle_alpha                 90.0000
_cell_angle_beta                  90.0000
_cell_angle_gamma                 90.0000
loop_
_atom_site_label
_atom_site_type_symbol
_atom_site_fract_x
_atom_site_fract_y
_atom_site_fract_z
_atom_site_U_iso_or_equiv
_atom_site_adp_type
_atom_site_occupancy
C1     C     0.95106   0.32429   0.04711   0.00000  Uiso   1.00
C2     C     0.06985   0.33930   0.03407   0.00000  Uiso   1.00
C3     C     0.13985   0.31736   0.98663   0.00000  Uiso   1.00
C4     C     0.24545   0.33649   0.98248   0.00000  Uiso   1.00
C5     C     0.42467   0.35378   0.95585   0.00000  Uiso   1.00
C6     C     0.88307   0.37149   0.03652   0.00000  Uiso   1.00
C7     C     0.79602   0.37662   0.99115   0.00000  Uiso   1.00
C8     C     0.74439   0.42285   0.98907   0.00000  Uiso   1.00
C9     C     0.63358   0.49012   0.96628   0.00000  Uiso   1.00
C10    C     0.94348   0.31207   0.12348   0.00000  Uiso   1.00
C11    C     0.90719   0.26725   0.15124   0.00000  Uiso   1.00
C12    C     0.90638   0.26345   0.22239   0.00000  Uiso   1.00
C13    C     0.88936   0.23846   0.33463   0.00000  Uiso   1.00
C14    C     0.01413   0.39725   0.12409   0.00000  Uiso   1.00
C15    C     0.10410   0.37893   0.07588   0.00000  Uiso   1.00
C16    C     0.20962   0.39809   0.07181   0.00000  Uiso   1.00
C17    C     0.27977   0.37619   0.02437   0.00000  Uiso   1.00
C18    C     0.91732   0.41112   0.07833   0.00000  Uiso   1.00
C19    C     0.86580   0.45735   0.07633   0.00000  Uiso   1.00
C20    C     0.77870   0.46255   0.03096   0.00000  Uiso   1.00
C21    C     0.97773   0.35170   0.16530   0.00000  Uiso   1.00
C22    C     0.97697   0.34798   0.23642   0.00000  Uiso   1.00
C23    C     0.94069   0.30315   0.26428   0.00000  Uiso   1.00
H24    H     0.92439   0.29344   0.01455   0.00000  Uiso   1.00
H25    H     0.11331   0.28670   0.95427   0.00000  Uiso   1.00
H26    H     0.76953   0.34595   0.95880   0.00000  Uiso   1.00
H27    H     0.88069   0.23659   0.11887   0.00000  Uiso   1.00
H28    H     0.33785   0.29672   0.90587   0.00000  Uiso   1.00
H29    H     0.61296   0.42164   0.91543   0.00000  Uiso   1.00
H30    H     0.84734   0.19104   0.25297   0.00000  Uiso   1.00
H31    H     0.04079   0.42811   0.15665   0.00000  Uiso   1.00
H32    H     0.23611   0.42876   0.10417   0.00000  Uiso   1.00
H33    H     0.89232   0.48801   0.10870   0.00000  Uiso   1.00
H34    H     0.00348   0.37865   0.26876   0.00000  Uiso   1.00
H35    H     0.43751   0.41202   0.02753   0.00000  Uiso   1.00
H36    H     0.71261   0.53695   0.03709   0.00000  Uiso   1.00
H37    H     0.94701   0.30635   0.37463   0.00000  Uiso   1.00
O38    O     0.51405   0.35238   0.92960   0.00000  Uiso   1.00
O39    O     0.56300   0.51627   0.94215   0.00000  Uiso   1.00
O40    O     0.87053   0.21373   0.38499   0.00000  Uiso   1.00
N41    N     0.33451   0.32376   0.94172   0.00000  Uiso   1.00
N42    N     0.65679   0.44056   0.95065   0.00000  Uiso   1.00
N43    N     0.87589   0.22497   0.26621   0.00000  Uiso   1.00
N44    N     0.38814   0.38580   0.00718   0.00000  Uiso   1.00
N45    N     0.71042   0.50260   0.01611   0.00000  Uiso   1.00
N46    N     0.92952   0.28701   0.33168   0.00000  Uiso   1.00
C47    C     0.54894   0.17571   0.04711   0.00000  Uiso   1.00
C48    C     0.43015   0.16070   0.03407   0.00000  Uiso   1.00
C49    C     0.36015   0.18264   0.98663   0.00000  Uiso   1.00
C50    C     0.25455   0.16351   0.98248   0.00000  Uiso   1.00
C51    C     0.07533   0.14622   0.95585   0.00000  Uiso   1.00
C52    C     0.61693   0.12851   0.03652   0.00000  Uiso   1.00
C53    C     0.70398   0.12338   0.99115   0.00000  Uiso   1.00
C54    C     0.75561   0.07715   0.98907   0.00000  Uiso   1.00
C55    C     0.86642   0.00988   0.96628   0.00000  Uiso   1.00
C56    C     0.55652   0.18793   0.12348   0.00000  Uiso   1.00
C57    C     0.59281   0.23275   0.15124   0.00000  Uiso   1.00
C58    C     0.59362   0.23655   0.22239   0.00000  Uiso   1.00
C59    C     0.61064   0.26154   0.33463   0.00000  Uiso   1.00
C60    C     0.48587   0.10275   0.12409   0.00000  Uiso   1.00
C61    C     0.39590   0.12107   0.07588   0.00000  Uiso   1.00
C62    C     0.29038   0.10191   0.07181   0.00000  Uiso   1.00
C63    C     0.22023   0.12381   0.02437   0.00000  Uiso   1.00
C64    C     0.58268   0.08888   0.07833   0.00000  Uiso   1.00
C65    C     0.63420   0.04265   0.07633   0.00000  Uiso   1.00
C66    C     0.72130   0.03745   0.03096   0.00000  Uiso   1.00
C67    C     0.52227   0.14830   0.16530   0.00000  Uiso   1.00
C68    C     0.52303   0.15202   0.23642   0.00000  Uiso   1.00
C69    C     0.55931   0.19685   0.26428   0.00000  Uiso   1.00
H70    H     0.57561   0.20656   0.01455   0.00000  Uiso   1.00
H71    H     0.38669   0.21330   0.95427   0.00000  Uiso   1.00
H72    H     0.73047   0.15405   0.95880   0.00000  Uiso   1.00
H73    H     0.61931   0.26341   0.11887   0.00000  Uiso   1.00
H74    H     0.16215   0.20328   0.90587   0.00000  Uiso   1.00
H75    H     0.88704   0.07836   0.91543   0.00000  Uiso   1.00
H76    H     0.65266   0.30896   0.25297   0.00000  Uiso   1.00
H77    H     0.45921   0.07189   0.15665   0.00000  Uiso   1.00
H78    H     0.26389   0.07124   0.10417   0.00000  Uiso   1.00
H79    H     0.60768   0.01199   0.10870   0.00000  Uiso   1.00
H80    H     0.49652   0.12135   0.26876   0.00000  Uiso   1.00
H81    H     0.06249   0.08798   0.02753   0.00000  Uiso   1.00
H82    H     0.78739   0.96305   0.03709   0.00000  Uiso   1.00
H83    H     0.55299   0.19365   0.37463   0.00000  Uiso   1.00
O84    O     0.98595   0.14762   0.92960   0.00000  Uiso   1.00
O85    O     0.93700   0.98373   0.94215   0.00000  Uiso   1.00
O86    O     0.62947   0.28627   0.38499   0.00000  Uiso   1.00
N87    N     0.16549   0.17624   0.94172   0.00000  Uiso   1.00
N88    N     0.84321   0.05944   0.95065   0.00000  Uiso   1.00
N89    N     0.62411   0.27503   0.26621   0.00000  Uiso   1.00
N90    N     0.11186   0.11420   0.00718   0.00000  Uiso   1.00
N91    N     0.78958   0.99740   0.01611   0.00000  Uiso   1.00
N92    N     0.57048   0.21299   0.33168   0.00000  Uiso   1.00
C93    C     0.04894   0.82429   0.45289   0.00000  Uiso   1.00
C94    C     0.93015   0.83930   0.46593   0.00000  Uiso   1.00
C95    C     0.86015   0.81736   0.51337   0.00000  Uiso   1.00
C96    C     0.75455   0.83649   0.51752   0.00000  Uiso   1.00
C97    C     0.57533   0.85378   0.54415   0.00000  Uiso   1.00
C98    C     0.11693   0.87149   0.46348   0.00000  Uiso   1.00
C99    C     0.20398   0.87662   0.50885   0.00000  Uiso   1.00
C100   C     0.25561   0.92285   0.51093   0.00000  Uiso   1.00
C101   C     0.36642   0.99012   0.53372   0.00000  Uiso   1.00
C102   C     0.05652   0.81207   0.37652   0.00000  Uiso   1.00
C103   C     0.09281   0.76725   0.34876   0.00000  Uiso   1.00
C104   C     0.09362   0.76345   0.27761   0.00000  Uiso   1.00
C105   C     0.11064   0.73846   0.16537   0.00000  Uiso   1.00
C106   C     0.98587   0.89725   0.37591   0.00000  Uiso   1.00
C107   C     0.89590   0.87893   0.42412   0.00000  Uiso   1.00
C108   C     0.79038   0.89809   0.42819   0.00000  Uiso   1.00
C109   C     0.72023   0.87619   0.47563   0.00000  Uiso   1.00
C110   C     0.08268   0.91112   0.42167   0.00000  Uiso   1.00
C111   C     0.13420   0.95735   0.42367   0.00000  Uiso   1.00
C112   C     0.22130   0.96255   0.46904   0.00000  Uiso   1.00
C113   C     0.02227   0.85170   0.33470   0.00000  Uiso   1.00
C114   C     0.02303   0.84798   0.26358   0.00000  Uiso   1.00
C115   C     0.05931   0.80315   0.23572   0.00000  Uiso   1.00
H116   H     0.07561   0.79344   0.48545   0.00000  Uiso   1.00
H117   H     0.88669   0.78670   0.54573   0.00000  Uiso   1.00
H118   H     0.23047   0.84595   0.54120   0.00000  Uiso   1.00
H119   H     0.11931   0.73659   0.38113   0.00000  Uiso   1.00
H120   H     0.66215   0.79672   0.59413   0.00000  Uiso   1.00
H121   H     0.38704   0.92164   0.58457   0.00000  Uiso   1.00
H122   H     0.15266   0.69104   0.24703   0.00000  Uiso   1.00
H123   H     0.95921   0.92811   0.34335   0.00000  Uiso   1.00
H124   H     0.76389   0.92876   0.39583   0.00000  Uiso   1.00
H125   H     0.10768   0.98801   0.39130   0.00000  Uiso   1.00
H126   H     0.99652   0.87865   0.23124   0.00000  Uiso   1.00
H127   H     0.56249   0.91202   0.47247   0.00000  Uiso   1.00
H128   H     0.28739   0.03695   0.46291   0.00000  Uiso   1.00
H129   H     0.05299   0.80635   0.12537   0.00000  Uiso   1.00
O130   O     0.48595   0.85238   0.57040   0.00000  Uiso   1.00
O131   O     0.43700   0.01627   0.55785   0.00000  Uiso   1.00
O132   O     0.12947   0.71373   0.11501   0.00000  Uiso   1.00
N133   N     0.66549   0.82376   0.55828   0.00000  Uiso   1.00
N134   N     0.34321   0.94056   0.54935   0.00000  Uiso   1.00
N135   N     0.12411   0.72497   0.23379   0.00000  Uiso   1.00
N136   N     0.61186   0.88580   0.49282   0.00000  Uiso   1.00
N137   N     0.28958   0.00260   0.48389   0.00000  Uiso   1.00
N138   N     0.07048   0.78701   0.16832   0.00000  Uiso   1.00
C139   C     0.45106   0.67571   0.45289   0.00000  Uiso   1.00
C140   C     0.56985   0.66070   0.46593   0.00000  Uiso   1.00
C141   C     0.63985   0.68264   0.51337   0.00000  Uiso   1.00
C142   C     0.74545   0.66351   0.51752   0.00000  Uiso   1.00
C143   C     0.92467   0.64622   0.54415   0.00000  Uiso   1.00
C144   C     0.38307   0.62851   0.46348   0.00000  Uiso   1.00
C145   C     0.29602   0.62338   0.50885   0.00000  Uiso   1.00
C146   C     0.24439   0.57715   0.51093   0.00000  Uiso   1.00
C147   C     0.13358   0.50988   0.53372   0.00000  Uiso   1.00
C148   C     0.44348   0.68793   0.37652   0.00000  Uiso   1.00
C149   C     0.40719   0.73275   0.34876   0.00000  Uiso   1.00
C150   C     0.40638   0.73655   0.27761   0.00000  Uiso   1.00
C151   C     0.38936   0.76154   0.16537   0.00000  Uiso   1.00
C152   C     0.51413   0.60275   0.37591   0.00000  Uiso   1.00
C153   C     0.60410   0.62107   0.42412   0.00000  Uiso   1.00
C154   C     0.70962   0.60191   0.42819   0.00000  Uiso   1.00
C155   C     0.77977   0.62381   0.47563   0.00000  Uiso   1.00
C156   C     0.41732   0.58888   0.42167   0.00000  Uiso   1.00
C157   C     0.36580   0.54265   0.42367   0.00000  Uiso   1.00
C158   C     0.27870   0.53745   0.46904   0.00000  Uiso   1.00
C159   C     0.47773   0.64830   0.33470   0.00000  Uiso   1.00
C160   C     0.47697   0.65202   0.26358   0.00000  Uiso   1.00
C161   C     0.44069   0.69685   0.23572   0.00000  Uiso   1.00
H162   H     0.42439   0.70656   0.48545   0.00000  Uiso   1.00
H163   H     0.61331   0.71330   0.54573   0.00000  Uiso   1.00
H164   H     0.26953   0.65405   0.54120   0.00000  Uiso   1.00
H165   H     0.38069   0.76341   0.38113   0.00000  Uiso   1.00
H166   H     0.83785   0.70328   0.59413   0.00000  Uiso   1.00
H167   H     0.11296   0.57836   0.58457   0.00000  Uiso   1.00
H168   H     0.34734   0.80896   0.24703   0.00000  Uiso   1.00
H169   H     0.54079   0.57189   0.34335   0.00000  Uiso   1.00
H170   H     0.73611   0.57124   0.39583   0.00000  Uiso   1.00
H171   H     0.39232   0.51199   0.39130   0.00000  Uiso   1.00
H172   H     0.50348   0.62135   0.23124   0.00000  Uiso   1.00
H173   H     0.93751   0.58798   0.47247   0.00000  Uiso   1.00
H174   H     0.21261   0.46305   0.46291   0.00000  Uiso   1.00
H175   H     0.44701   0.69365   0.12537   0.00000  Uiso   1.00
O176   O     0.01405   0.64762   0.57040   0.00000  Uiso   1.00
O177   O     0.06300   0.48373   0.55785   0.00000  Uiso   1.00
O178   O     0.37053   0.78627   0.11501   0.00000  Uiso   1.00
N179   N     0.83451   0.67624   0.55828   0.00000  Uiso   1.00
N180   N     0.15679   0.55944   0.54935   0.00000  Uiso   1.00
N181   N     0.37589   0.77503   0.23379   0.00000  Uiso   1.00
N182   N     0.88814   0.61420   0.49282   0.00000  Uiso   1.00
N183   N     0.21042   0.49740   0.48389   0.00000  Uiso   1.00
N184   N     0.42952   0.71299   0.16832   0.00000  Uiso   1.00
C185   C     0.04894   0.67571   0.95289   0.00000  Uiso   1.00
C186   C     0.93015   0.66070   0.96593   0.00000  Uiso   1.00
C187   C     0.86015   0.68264   0.01337   0.00000  Uiso   1.00
C188   C     0.75455   0.66351   0.01752   0.00000  Uiso   1.00
C189   C     0.57533   0.64622   0.04415   0.00000  Uiso   1.00
C190   C     0.11693   0.62851   0.96348   0.00000  Uiso   1.00
C191   C     0.20398   0.62338   0.00885   0.00000  Uiso   1.00
C192   C     0.25561   0.57715   0.01093   0.00000  Uiso   1.00
C193   C     0.36642   0.50988   0.03372   0.00000  Uiso   1.00
C194   C     0.05652   0.68793   0.87652   0.00000  Uiso   1.00
C195   C     0.09281   0.73275   0.84876   0.00000  Uiso   1.00
C196   C     0.09362   0.73655   0.77761   0.00000  Uiso   1.00
C197   C     0.11064   0.76154   0.66537   0.00000  Uiso   1.00
C198   C     0.98587   0.60275   0.87591   0.00000  Uiso   1.00
C199   C     0.89590   0.62107   0.92412   0.00000  Uiso   1.00
C200   C     0.79038   0.60191   0.92819   0.00000  Uiso   1.00
C201   C     0.72023   0.62381   0.97563   0.00000  Uiso   1.00
C202   C     0.08268   0.58888   0.92167   0.00000  Uiso   1.00
C203   C     0.13420   0.54265   0.92367   0.00000  Uiso   1.00
C204   C     0.22130   0.53745   0.96904   0.00000  Uiso   1.00
C205   C     0.02227   0.64830   0.83470   0.00000  Uiso   1.00
C206   C     0.02303   0.65202   0.76358   0.00000  Uiso   1.00
C207   C     0.05931   0.69685   0.73572   0.00000  Uiso   1.00
H208   H     0.07561   0.70656   0.98545   0.00000  Uiso   1.00
H209   H     0.88669   0.71330   0.04573   0.00000  Uiso   1.00
H210   H     0.23047   0.65405   0.04120   0.00000  Uiso   1.00
H211   H     0.11931   0.76341   0.88113   0.00000  Uiso   1.00
H212   H     0.66215   0.70328   0.09413   0.00000  Uiso   1.00
H213   H     0.38704   0.57836   0.08457   0.00000  Uiso   1.00
H214   H     0.15266   0.80896   0.74703   0.00000  Uiso   1.00
H215   H     0.95921   0.57189   0.84335   0.00000  Uiso   1.00
H216   H     0.76389   0.57124   0.89583   0.00000  Uiso   1.00
H217   H     0.10768   0.51199   0.89130   0.00000  Uiso   1.00
H218   H     0.99652   0.62135   0.73124   0.00000  Uiso   1.00
H219   H     0.56249   0.58798   0.97247   0.00000  Uiso   1.00
H220   H     0.28739   0.46305   0.96291   0.00000  Uiso   1.00
H221   H     0.05299   0.69365   0.62537   0.00000  Uiso   1.00
O222   O     0.48595   0.64762   0.07040   0.00000  Uiso   1.00
O223   O     0.43700   0.48373   0.05785   0.00000  Uiso   1.00
O224   O     0.12947   0.78627   0.61501   0.00000  Uiso   1.00
N225   N     0.66549   0.67624   0.05828   0.00000  Uiso   1.00
N226   N     0.34321   0.55944   0.04935   0.00000  Uiso   1.00
N227   N     0.12411   0.77503   0.73379   0.00000  Uiso   1.00
N228   N     0.61186   0.61420   0.99282   0.00000  Uiso   1.00
N229   N     0.28958   0.49740   0.98389   0.00000  Uiso   1.00
N230   N     0.07048   0.71299   0.66832   0.00000  Uiso   1.00
C231   C     0.45106   0.82429   0.95289   0.00000  Uiso   1.00
C232   C     0.56985   0.83930   0.96593   0.00000  Uiso   1.00
C233   C     0.63985   0.81736   0.01337   0.00000  Uiso   1.00
C234   C     0.74545   0.83649   0.01752   0.00000  Uiso   1.00
C235   C     0.92467   0.85378   0.04415   0.00000  Uiso   1.00
C236   C     0.38307   0.87149   0.96348   0.00000  Uiso   1.00
C237   C     0.29602   0.87662   0.00885   0.00000  Uiso   1.00
C238   C     0.24439   0.92285   0.01093   0.00000  Uiso   1.00
C239   C     0.13358   0.99012   0.03372   0.00000  Uiso   1.00
C240   C     0.44348   0.81207   0.87652   0.00000  Uiso   1.00
C241   C     0.40719   0.76725   0.84876   0.00000  Uiso   1.00
C242   C     0.40638   0.76345   0.77761   0.00000  Uiso   1.00
C243   C     0.38936   0.73846   0.66537   0.00000  Uiso   1.00
C244   C     0.51413   0.89725   0.87591   0.00000  Uiso   1.00
C245   C     0.60410   0.87893   0.92412   0.00000  Uiso   1.00
C246   C     0.70962   0.89809   0.92819   0.00000  Uiso   1.00
C247   C     0.77977   0.87619   0.97563   0.00000  Uiso   1.00
C248   C     0.41732   0.91112   0.92167   0.00000  Uiso   1.00
C249   C     0.36580   0.95735   0.92367   0.00000  Uiso   1.00
C250   C     0.27870   0.96255   0.96904   0.00000  Uiso   1.00
C251   C     0.47773   0.85170   0.83470   0.00000  Uiso   1.00
C252   C     0.47697   0.84798   0.76358   0.00000  Uiso   1.00
C253   C     0.44069   0.80315   0.73572   0.00000  Uiso   1.00
H254   H     0.42439   0.79344   0.98545   0.00000  Uiso   1.00
H255   H     0.61331   0.78670   0.04573   0.00000  Uiso   1.00
H256   H     0.26953   0.84595   0.04120   0.00000  Uiso   1.00
H257   H     0.38069   0.73659   0.88113   0.00000  Uiso   1.00
H258   H     0.83785   0.79672   0.09413   0.00000  Uiso   1.00
H259   H     0.11296   0.92164   0.08457   0.00000  Uiso   1.00
H260   H     0.34734   0.69104   0.74703   0.00000  Uiso   1.00
H261   H     0.54079   0.92811   0.84335   0.00000  Uiso   1.00
H262   H     0.73611   0.92876   0.89583   0.00000  Uiso   1.00
H263   H     0.39232   0.98801   0.89130   0.00000  Uiso   1.00
H264   H     0.50348   0.87865   0.73124   0.00000  Uiso   1.00
H265   H     0.93751   0.91202   0.97247   0.00000  Uiso   1.00
H266   H     0.21261   0.03695   0.96291   0.00000  Uiso   1.00
H267   H     0.44701   0.80635   0.62537   0.00000  Uiso   1.00
O268   O     0.01405   0.85238   0.07040   0.00000  Uiso   1.00
O269   O     0.06300   0.01627   0.05785   0.00000  Uiso   1.00
O270   O     0.37053   0.71373   0.61501   0.00000  Uiso   1.00
N271   N     0.83451   0.82376   0.05828   0.00000  Uiso   1.00
N272   N     0.15679   0.94056   0.04935   0.00000  Uiso   1.00
N273   N     0.37589   0.72497   0.73379   0.00000  Uiso   1.00
N274   N     0.88814   0.88580   0.99282   0.00000  Uiso   1.00
N275   N     0.21042   0.00260   0.98389   0.00000  Uiso   1.00
N276   N     0.42952   0.78701   0.66832   0.00000  Uiso   1.00
C277   C     0.95106   0.17571   0.54711   0.00000  Uiso   1.00
C278   C     0.06985   0.16070   0.53407   0.00000  Uiso   1.00
C279   C     0.13985   0.18264   0.48663   0.00000  Uiso   1.00
C280   C     0.24545   0.16351   0.48248   0.00000  Uiso   1.00
C281   C     0.42467   0.14622   0.45585   0.00000  Uiso   1.00
C282   C     0.88307   0.12851   0.53652   0.00000  Uiso   1.00
C283   C     0.79602   0.12338   0.49115   0.00000  Uiso   1.00
C284   C     0.74439   0.07715   0.48907   0.00000  Uiso   1.00
C285   C     0.63358   0.00988   0.46628   0.00000  Uiso   1.00
C286   C     0.94348   0.18793   0.62348   0.00000  Uiso   1.00
C287   C     0.90719   0.23275   0.65124   0.00000  Uiso   1.00
C288   C     0.90638   0.23655   0.72239   0.00000  Uiso   1.00
C289   C     0.88936   0.26154   0.83463   0.00000  Uiso   1.00
C290   C     0.01413   0.10275   0.62409   0.00000  Uiso   1.00
C291   C     0.10410   0.12107   0.57588   0.00000  Uiso   1.00
C292   C     0.20962   0.10191   0.57181   0.00000  Uiso   1.00
C293   C     0.27977   0.12381   0.52437   0.00000  Uiso   1.00
C294   C     0.91732   0.08888   0.57833   0.00000  Uiso   1.00
C295   C     0.86580   0.04265   0.57633   0.00000  Uiso   1.00
C296   C     0.77870   0.03745   0.53096   0.00000  Uiso   1.00
C297   C     0.97773   0.14830   0.66530   0.00000  Uiso   1.00
C298   C     0.97697   0.15202   0.73642   0.00000  Uiso   1.00
C299   C     0.94069   0.19685   0.76428   0.00000  Uiso   1.00
H300   H     0.92439   0.20656   0.51455   0.00000  Uiso   1.00
H301   H     0.11331   0.21330   0.45427   0.00000  Uiso   1.00
H302   H     0.76953   0.15405   0.45880   0.00000  Uiso   1.00
H303   H     0.88069   0.26341   0.61887   0.00000  Uiso   1.00
H304   H     0.33785   0.20328   0.40587   0.00000  Uiso   1.00
H305   H     0.61296   0.07836   0.41543   0.00000  Uiso   1.00
H306   H     0.84734   0.30896   0.75297   0.00000  Uiso   1.00
H307   H     0.04079   0.07189   0.65665   0.00000  Uiso   1.00
H308   H     0.23611   0.07124   0.60417   0.00000  Uiso   1.00
H309   H     0.89232   0.01199   0.60870   0.00000  Uiso   1.00
H310   H     0.00348   0.12135   0.76876   0.00000  Uiso   1.00
H311   H     0.43751   0.08798   0.52753   0.00000  Uiso   1.00
H312   H     0.71261   0.96305   0.53709   0.00000  Uiso   1.00
H313   H     0.94701   0.19365   0.87463   0.00000  Uiso   1.00
O314   O     0.51405   0.14762   0.42960   0.00000  Uiso   1.00
O315   O     0.56300   0.98373   0.44215   0.00000  Uiso   1.00
O316   O     0.87053   0.28627   0.88499   0.00000  Uiso   1.00
N317   N     0.33451   0.17624   0.44172   0.00000  Uiso   1.00
N318   N     0.65679   0.05944   0.45065   0.00000  Uiso   1.00
N319   N     0.87589   0.27503   0.76621   0.00000  Uiso   1.00
N320   N     0.38814   0.11420   0.50718   0.00000  Uiso   1.00
N321   N     0.71042   0.99740   0.51611   0.00000  Uiso   1.00
N322   N     0.92952   0.21299   0.83168   0.00000  Uiso   1.00
C323   C     0.54894   0.32429   0.54711   0.00000  Uiso   1.00
C324   C     0.43015   0.33930   0.53407   0.00000  Uiso   1.00
C325   C     0.36015   0.31736   0.48663   0.00000  Uiso   1.00
C326   C     0.25455   0.33649   0.48248   0.00000  Uiso   1.00
C327   C     0.07533   0.35378   0.45585   0.00000  Uiso   1.00
C328   C     0.61693   0.37149   0.53652   0.00000  Uiso   1.00
C329   C     0.70398   0.37662   0.49115   0.00000  Uiso   1.00
C330   C     0.75561   0.42285   0.48907   0.00000  Uiso   1.00
C331   C     0.86642   0.49012   0.46628   0.00000  Uiso   1.00
C332   C     0.55652   0.31207   0.62348   0.00000  Uiso   1.00
C333   C     0.59281   0.26725   0.65124   0.00000  Uiso   1.00
C334   C     0.59362   0.26345   0.72239   0.00000  Uiso   1.00
C335   C     0.61064   0.23846   0.83463   0.00000  Uiso   1.00
C336   C     0.48587   0.39725   0.62409   0.00000  Uiso   1.00
C337   C     0.39590   0.37893   0.57588   0.00000  Uiso   1.00
C338   C     0.29038   0.39809   0.57181   0.00000  Uiso   1.00
C339   C     0.22023   0.37619   0.52437   0.00000  Uiso   1.00
C340   C     0.58268   0.41112   0.57833   0.00000  Uiso   1.00
C341   C     0.63420   0.45735   0.57633   0.00000  Uiso   1.00
C342   C     0.72130   0.46255   0.53096   0.00000  Uiso   1.00
C343   C     0.52227   0.35170   0.66530   0.00000  Uiso   1.00
C344   C     0.52303   0.34798   0.73642   0.00000  Uiso   1.00
C345   C     0.55931   0.30315   0.76428   0.00000  Uiso   1.00
H346   H     0.57561   0.29344   0.51455   0.00000  Uiso   1.00
H347   H     0.38669   0.28670   0.45427   0.00000  Uiso   1.00
H348   H     0.73047   0.34595   0.45880   0.00000  Uiso   1.00
H349   H     0.61931   0.23659   0.61887   0.00000  Uiso   1.00
H350   H     0.16215   0.29672   0.40587   0.00000  Uiso   1.00
H351   H     0.88704   0.42164   0.41543   0.00000  Uiso   1.00
H352   H     0.65266   0.19104   0.75297   0.00000  Uiso   1.00
H353   H     0.45921   0.42811   0.65665   0.00000  Uiso   1.00
H354   H     0.26389   0.42876   0.60417   0.00000  Uiso   1.00
H355   H     0.60768   0.48801   0.60870   0.00000  Uiso   1.00
H356   H     0.49652   0.37865   0.76876   0.00000  Uiso   1.00
H357   H     0.06249   0.41202   0.52753   0.00000  Uiso   1.00
H358   H     0.78739   0.53695   0.53709   0.00000  Uiso   1.00
H359   H     0.55299   0.30635   0.87463   0.00000  Uiso   1.00
O360   O     0.98595   0.35238   0.42960   0.00000  Uiso   1.00
O361   O     0.93700   0.51627   0.44215   0.00000  Uiso   1.00
O362   O     0.62947   0.21373   0.88499   0.00000  Uiso   1.00
N363   N     0.16549   0.32376   0.44172   0.00000  Uiso   1.00
N364   N     0.84321   0.44056   0.45065   0.00000  Uiso   1.00
N365   N     0.62411   0.22497   0.76621   0.00000  Uiso   1.00
N366   N     0.11186   0.38580   0.50718   0.00000  Uiso   1.00
N367   N     0.78958   0.50260   0.51611   0.00000  Uiso   1.00
N368   N     0.57048   0.28701   0.83168   0.00000  Uiso   1.00
