data_job_04082
_audit_creation_date              2018-12-19
_audit_creation_method            'Materials Studio'
_symmetry_space_group_name_H-M    'P1'
_symmetry_Int_Tables_number       1
_symmetry_cell_setting            triclinic
loop_
_symmetry_equiv_pos_as_xyz
  x,y,z
_cell_length_a                    22.7303
_cell_length_b                    22.7303
_cell_length_c                    12.3886
_cell_angle_alpha                 90.0000
_cell_angle_beta                  90.0000
_cell_angle_gamma                 90.0000
loop_
_atom_site_label
_atom_site_type_symbol
_atom_site_fract_x
_atom_site_fract_y
_atom_site_fract_z
_atom_site_U_iso_or_equiv
_atom_site_adp_type
_atom_site_occupancy
C1     C     0.12130   0.39951   0.60793   0.00000  Uiso   1.00
C2     C     0.18417   0.42044   0.58869   0.00000  Uiso   1.00
C3     C     0.20421   0.47775   0.60052   0.00000  Uiso   1.00
C4     C     0.26329   0.48793   0.57906   0.00000  Uiso   1.00
C5     C     0.35518   0.52737   0.55403   0.00000  Uiso   1.00
C6     C     0.10174   0.37025   0.50313   0.00000  Uiso   1.00
C7     C     0.05248   0.38535   0.44303   0.00000  Uiso   1.00
C8     C     0.04217   0.35327   0.34955   0.00000  Uiso   1.00
C9     C     0.00607   0.31476   0.19173   0.00000  Uiso   1.00
C10    C     0.12546   0.35039   0.69141   0.00000  Uiso   1.00
C11    C     0.09612   0.34879   0.78961   0.00000  Uiso   1.00
C12    C     0.10576   0.29998   0.85464   0.00000  Uiso   1.00
C13    C     0.10648   0.23063   0.98915   0.00000  Uiso   1.00
C14    C     0.19058   0.31568   0.54878   0.00000  Uiso   1.00
C15    C     0.22180   0.37491   0.55657   0.00000  Uiso   1.00
C16    C     0.28086   0.38501   0.53509   0.00000  Uiso   1.00
C17    C     0.30099   0.44232   0.54688   0.00000  Uiso   1.00
C18    C     0.13937   0.32472   0.47100   0.00000  Uiso   1.00
C19    C     0.12913   0.29261   0.37760   0.00000  Uiso   1.00
C20    C     0.07987   0.30766   0.31737   0.00000  Uiso   1.00
C21    C     0.16309   0.30486   0.65929   0.00000  Uiso   1.00
C22    C     0.17278   0.25604   0.72418   0.00000  Uiso   1.00
C23    C     0.14346   0.25437   0.82246   0.00000  Uiso   1.00
H24    H     0.09200   0.43496   0.63293   0.00000  Uiso   1.00
H25    H     0.17507   0.51298   0.62537   0.00000  Uiso   1.00
H26    H     0.02336   0.42059   0.46792   0.00000  Uiso   1.00
H27    H     0.06700   0.38403   0.81444   0.00000  Uiso   1.00
H28    H     0.28377   0.57940   0.60279   0.00000  Uiso   1.00
H29    H     0.96387   0.38458   0.27080   0.00000  Uiso   1.00
H30    H     0.05588   0.30749   0.00152   0.00000  Uiso   1.00
H31    H     0.21988   0.28023   0.52377   0.00000  Uiso   1.00
H32    H     0.30997   0.34976   0.51023   0.00000  Uiso   1.00
H33    H     0.15826   0.25737   0.35277   0.00000  Uiso   1.00
H34    H     0.20190   0.22082   0.69929   0.00000  Uiso   1.00
H35    H     0.39326   0.44693   0.50933   0.00000  Uiso   1.00
H36    H     0.07336   0.25211   0.17734   0.00000  Uiso   1.00
H37    H     0.16538   0.17502   0.90806   0.00000  Uiso   1.00
O38    O     0.39547   0.56170   0.54908   0.00000  Uiso   1.00
O39    O     0.97577   0.30609   0.11354   0.00000  Uiso   1.00
O40    O     0.09649   0.20496   0.07223   0.00000  Uiso   1.00
N41    N     0.29717   0.53868   0.58267   0.00000  Uiso   1.00
N42    N     0.99809   0.35654   0.27227   0.00000  Uiso   1.00
N43    N     0.08411   0.28446   0.95542   0.00000  Uiso   1.00
N44    N     0.35609   0.46740   0.53238   0.00000  Uiso   1.00
N45    N     0.05701   0.28526   0.22198   0.00000  Uiso   1.00
N46    N     0.14302   0.21318   0.90513   0.00000  Uiso   1.00
C47    C     0.87870   0.60049   0.60793   0.00000  Uiso   1.00
C48    C     0.81583   0.57956   0.58869   0.00000  Uiso   1.00
C49    C     0.79579   0.52225   0.60052   0.00000  Uiso   1.00
C50    C     0.73671   0.51207   0.57906   0.00000  Uiso   1.00
C51    C     0.64482   0.47263   0.55403   0.00000  Uiso   1.00
C52    C     0.89826   0.62975   0.50313   0.00000  Uiso   1.00
C53    C     0.94752   0.61465   0.44303   0.00000  Uiso   1.00
C54    C     0.95783   0.64673   0.34955   0.00000  Uiso   1.00
C55    C     0.99393   0.68524   0.19173   0.00000  Uiso   1.00
C56    C     0.87454   0.64961   0.69141   0.00000  Uiso   1.00
C57    C     0.90388   0.65121   0.78961   0.00000  Uiso   1.00
C58    C     0.89424   0.70002   0.85464   0.00000  Uiso   1.00
C59    C     0.89352   0.76937   0.98915   0.00000  Uiso   1.00
C60    C     0.80942   0.68432   0.54878   0.00000  Uiso   1.00
C61    C     0.77820   0.62509   0.55657   0.00000  Uiso   1.00
C62    C     0.71914   0.61499   0.53509   0.00000  Uiso   1.00
C63    C     0.69901   0.55768   0.54688   0.00000  Uiso   1.00
C64    C     0.86063   0.67528   0.47100   0.00000  Uiso   1.00
C65    C     0.87087   0.70739   0.37760   0.00000  Uiso   1.00
C66    C     0.92013   0.69234   0.31737   0.00000  Uiso   1.00
C67    C     0.83691   0.69514   0.65929   0.00000  Uiso   1.00
C68    C     0.82722   0.74396   0.72418   0.00000  Uiso   1.00
C69    C     0.85654   0.74563   0.82246   0.00000  Uiso   1.00
H70    H     0.90800   0.56504   0.63293   0.00000  Uiso   1.00
H71    H     0.82493   0.48702   0.62537   0.00000  Uiso   1.00
H72    H     0.97664   0.57941   0.46792   0.00000  Uiso   1.00
H73    H     0.93300   0.61597   0.81444   0.00000  Uiso   1.00
H74    H     0.71623   0.42060   0.60279   0.00000  Uiso   1.00
H75    H     0.03613   0.61542   0.27080   0.00000  Uiso   1.00
H76    H     0.94412   0.69251   0.00152   0.00000  Uiso   1.00
H77    H     0.78012   0.71977   0.52377   0.00000  Uiso   1.00
H78    H     0.69003   0.65024   0.51023   0.00000  Uiso   1.00
H79    H     0.84174   0.74263   0.35277   0.00000  Uiso   1.00
H80    H     0.79810   0.77918   0.69929   0.00000  Uiso   1.00
H81    H     0.60674   0.55307   0.50933   0.00000  Uiso   1.00
H82    H     0.92664   0.74789   0.17734   0.00000  Uiso   1.00
H83    H     0.83462   0.82498   0.90806   0.00000  Uiso   1.00
O84    O     0.60453   0.43830   0.54908   0.00000  Uiso   1.00
O85    O     0.02423   0.69391   0.11354   0.00000  Uiso   1.00
O86    O     0.90351   0.79504   0.07223   0.00000  Uiso   1.00
N87    N     0.70283   0.46132   0.58267   0.00000  Uiso   1.00
N88    N     0.00191   0.64346   0.27227   0.00000  Uiso   1.00
N89    N     0.91589   0.71554   0.95542   0.00000  Uiso   1.00
N90    N     0.64391   0.53260   0.53238   0.00000  Uiso   1.00
N91    N     0.94299   0.71474   0.22198   0.00000  Uiso   1.00
N92    N     0.85698   0.78682   0.90513   0.00000  Uiso   1.00
C93    C     0.10049   0.62130   0.60793   0.00000  Uiso   1.00
C94    C     0.07956   0.68417   0.58869   0.00000  Uiso   1.00
C95    C     0.02225   0.70421   0.60052   0.00000  Uiso   1.00
C96    C     0.01207   0.76329   0.57906   0.00000  Uiso   1.00
C97    C     0.97263   0.85518   0.55403   0.00000  Uiso   1.00
C98    C     0.12975   0.60174   0.50313   0.00000  Uiso   1.00
C99    C     0.11465   0.55248   0.44303   0.00000  Uiso   1.00
C100   C     0.14673   0.54217   0.34955   0.00000  Uiso   1.00
C101   C     0.18524   0.50607   0.19173   0.00000  Uiso   1.00
C102   C     0.14961   0.62546   0.69141   0.00000  Uiso   1.00
C103   C     0.15121   0.59612   0.78961   0.00000  Uiso   1.00
C104   C     0.20002   0.60576   0.85464   0.00000  Uiso   1.00
C105   C     0.26937   0.60648   0.98915   0.00000  Uiso   1.00
C106   C     0.18432   0.69058   0.54878   0.00000  Uiso   1.00
C107   C     0.12509   0.72180   0.55657   0.00000  Uiso   1.00
C108   C     0.11499   0.78086   0.53509   0.00000  Uiso   1.00
C109   C     0.05768   0.80099   0.54688   0.00000  Uiso   1.00
C110   C     0.17528   0.63937   0.47100   0.00000  Uiso   1.00
C111   C     0.20739   0.62913   0.37760   0.00000  Uiso   1.00
C112   C     0.19234   0.57987   0.31737   0.00000  Uiso   1.00
C113   C     0.19514   0.66309   0.65929   0.00000  Uiso   1.00
C114   C     0.24396   0.67278   0.72418   0.00000  Uiso   1.00
C115   C     0.24563   0.64346   0.82246   0.00000  Uiso   1.00
H116   H     0.06504   0.59200   0.63293   0.00000  Uiso   1.00
H117   H     0.98702   0.67507   0.62537   0.00000  Uiso   1.00
H118   H     0.07941   0.52336   0.46792   0.00000  Uiso   1.00
H119   H     0.11597   0.56700   0.81444   0.00000  Uiso   1.00
H120   H     0.92060   0.78377   0.60279   0.00000  Uiso   1.00
H121   H     0.11542   0.46387   0.27080   0.00000  Uiso   1.00
H122   H     0.19251   0.55588   0.00152   0.00000  Uiso   1.00
H123   H     0.21977   0.71988   0.52377   0.00000  Uiso   1.00
H124   H     0.15024   0.80997   0.51023   0.00000  Uiso   1.00
H125   H     0.24263   0.65826   0.35277   0.00000  Uiso   1.00
H126   H     0.27918   0.70190   0.69929   0.00000  Uiso   1.00
H127   H     0.05307   0.89326   0.50933   0.00000  Uiso   1.00
H128   H     0.24789   0.57336   0.17734   0.00000  Uiso   1.00
H129   H     0.32498   0.66538   0.90806   0.00000  Uiso   1.00
O130   O     0.93830   0.89547   0.54908   0.00000  Uiso   1.00
O131   O     0.19391   0.47577   0.11354   0.00000  Uiso   1.00
O132   O     0.29504   0.59649   0.07223   0.00000  Uiso   1.00
N133   N     0.96132   0.79717   0.58267   0.00000  Uiso   1.00
N134   N     0.14346   0.49809   0.27227   0.00000  Uiso   1.00
N135   N     0.21554   0.58411   0.95542   0.00000  Uiso   1.00
N136   N     0.03260   0.85609   0.53238   0.00000  Uiso   1.00
N137   N     0.21474   0.55701   0.22198   0.00000  Uiso   1.00
N138   N     0.28682   0.64302   0.90513   0.00000  Uiso   1.00
C139   C     0.89951   0.37870   0.60793   0.00000  Uiso   1.00
C140   C     0.92044   0.31583   0.58869   0.00000  Uiso   1.00
C141   C     0.97775   0.29579   0.60052   0.00000  Uiso   1.00
C142   C     0.98793   0.23671   0.57906   0.00000  Uiso   1.00
C143   C     0.02737   0.14482   0.55403   0.00000  Uiso   1.00
C144   C     0.87025   0.39826   0.50313   0.00000  Uiso   1.00
C145   C     0.88535   0.44752   0.44303   0.00000  Uiso   1.00
C146   C     0.85327   0.45783   0.34955   0.00000  Uiso   1.00
C147   C     0.81476   0.49393   0.19173   0.00000  Uiso   1.00
C148   C     0.85039   0.37454   0.69141   0.00000  Uiso   1.00
C149   C     0.84879   0.40388   0.78961   0.00000  Uiso   1.00
C150   C     0.79998   0.39424   0.85464   0.00000  Uiso   1.00
C151   C     0.73063   0.39352   0.98915   0.00000  Uiso   1.00
C152   C     0.81568   0.30942   0.54878   0.00000  Uiso   1.00
C153   C     0.87491   0.27820   0.55657   0.00000  Uiso   1.00
C154   C     0.88501   0.21914   0.53509   0.00000  Uiso   1.00
C155   C     0.94232   0.19901   0.54688   0.00000  Uiso   1.00
C156   C     0.82472   0.36063   0.47100   0.00000  Uiso   1.00
C157   C     0.79261   0.37087   0.37760   0.00000  Uiso   1.00
C158   C     0.80766   0.42013   0.31737   0.00000  Uiso   1.00
C159   C     0.80486   0.33691   0.65929   0.00000  Uiso   1.00
C160   C     0.75604   0.32722   0.72418   0.00000  Uiso   1.00
C161   C     0.75437   0.35654   0.82246   0.00000  Uiso   1.00
H162   H     0.93496   0.40800   0.63293   0.00000  Uiso   1.00
H163   H     0.01298   0.32493   0.62537   0.00000  Uiso   1.00
H164   H     0.92059   0.47664   0.46792   0.00000  Uiso   1.00
H165   H     0.88403   0.43300   0.81444   0.00000  Uiso   1.00
H166   H     0.07940   0.21623   0.60279   0.00000  Uiso   1.00
H167   H     0.88458   0.53613   0.27080   0.00000  Uiso   1.00
H168   H     0.80749   0.44412   0.00152   0.00000  Uiso   1.00
H169   H     0.78023   0.28012   0.52377   0.00000  Uiso   1.00
H170   H     0.84976   0.19003   0.51023   0.00000  Uiso   1.00
H171   H     0.75737   0.34174   0.35277   0.00000  Uiso   1.00
H172   H     0.72082   0.29810   0.69929   0.00000  Uiso   1.00
H173   H     0.94693   0.10674   0.50933   0.00000  Uiso   1.00
H174   H     0.75211   0.42664   0.17734   0.00000  Uiso   1.00
H175   H     0.67502   0.33462   0.90806   0.00000  Uiso   1.00
O176   O     0.06170   0.10453   0.54908   0.00000  Uiso   1.00
O177   O     0.80609   0.52423   0.11354   0.00000  Uiso   1.00
O178   O     0.70496   0.40351   0.07223   0.00000  Uiso   1.00
N179   N     0.03868   0.20283   0.58267   0.00000  Uiso   1.00
N180   N     0.85654   0.50191   0.27227   0.00000  Uiso   1.00
N181   N     0.78446   0.41589   0.95542   0.00000  Uiso   1.00
N182   N     0.96740   0.14391   0.53238   0.00000  Uiso   1.00
N183   N     0.78526   0.44299   0.22198   0.00000  Uiso   1.00
N184   N     0.71318   0.35698   0.90513   0.00000  Uiso   1.00
C185   C     0.37870   0.10049   0.39207   0.00000  Uiso   1.00
C186   C     0.31583   0.07956   0.41131   0.00000  Uiso   1.00
C187   C     0.29579   0.02225   0.39948   0.00000  Uiso   1.00
C188   C     0.23671   0.01207   0.42094   0.00000  Uiso   1.00
C189   C     0.14482   0.97263   0.44597   0.00000  Uiso   1.00
C190   C     0.39826   0.12975   0.49687   0.00000  Uiso   1.00
C191   C     0.44752   0.11465   0.55697   0.00000  Uiso   1.00
C192   C     0.45783   0.14673   0.65045   0.00000  Uiso   1.00
C193   C     0.49393   0.18524   0.80827   0.00000  Uiso   1.00
C194   C     0.37454   0.14961   0.30859   0.00000  Uiso   1.00
C195   C     0.40388   0.15121   0.21039   0.00000  Uiso   1.00
C196   C     0.39424   0.20002   0.14536   0.00000  Uiso   1.00
C197   C     0.39352   0.26937   0.01085   0.00000  Uiso   1.00
C198   C     0.30942   0.18432   0.45122   0.00000  Uiso   1.00
C199   C     0.27820   0.12509   0.44343   0.00000  Uiso   1.00
C200   C     0.21914   0.11499   0.46491   0.00000  Uiso   1.00
C201   C     0.19901   0.05768   0.45312   0.00000  Uiso   1.00
C202   C     0.36063   0.17528   0.52900   0.00000  Uiso   1.00
C203   C     0.37087   0.20739   0.62240   0.00000  Uiso   1.00
C204   C     0.42013   0.19234   0.68263   0.00000  Uiso   1.00
C205   C     0.33691   0.19514   0.34071   0.00000  Uiso   1.00
C206   C     0.32722   0.24396   0.27582   0.00000  Uiso   1.00
C207   C     0.35654   0.24563   0.17754   0.00000  Uiso   1.00
H208   H     0.40800   0.06504   0.36707   0.00000  Uiso   1.00
H209   H     0.32493   0.98702   0.37463   0.00000  Uiso   1.00
H210   H     0.47664   0.07941   0.53208   0.00000  Uiso   1.00
H211   H     0.43300   0.11597   0.18556   0.00000  Uiso   1.00
H212   H     0.21623   0.92060   0.39721   0.00000  Uiso   1.00
H213   H     0.53613   0.11542   0.72920   0.00000  Uiso   1.00
H214   H     0.44412   0.19251   0.99848   0.00000  Uiso   1.00
H215   H     0.28012   0.21977   0.47623   0.00000  Uiso   1.00
H216   H     0.19003   0.15024   0.48977   0.00000  Uiso   1.00
H217   H     0.34174   0.24263   0.64723   0.00000  Uiso   1.00
H218   H     0.29810   0.27918   0.30071   0.00000  Uiso   1.00
H219   H     0.10674   0.05307   0.49067   0.00000  Uiso   1.00
H220   H     0.42664   0.24789   0.82266   0.00000  Uiso   1.00
H221   H     0.33462   0.32498   0.09194   0.00000  Uiso   1.00
O222   O     0.10453   0.93830   0.45092   0.00000  Uiso   1.00
O223   O     0.52423   0.19391   0.88646   0.00000  Uiso   1.00
O224   O     0.40351   0.29504   0.92777   0.00000  Uiso   1.00
N225   N     0.20283   0.96132   0.41733   0.00000  Uiso   1.00
N226   N     0.50191   0.14346   0.72773   0.00000  Uiso   1.00
N227   N     0.41589   0.21554   0.04458   0.00000  Uiso   1.00
N228   N     0.14391   0.03260   0.46762   0.00000  Uiso   1.00
N229   N     0.44299   0.21474   0.77802   0.00000  Uiso   1.00
N230   N     0.35698   0.28682   0.09487   0.00000  Uiso   1.00
C231   C     0.62130   0.89951   0.39207   0.00000  Uiso   1.00
C232   C     0.68417   0.92044   0.41131   0.00000  Uiso   1.00
C233   C     0.70421   0.97775   0.39948   0.00000  Uiso   1.00
C234   C     0.76329   0.98793   0.42094   0.00000  Uiso   1.00
C235   C     0.85518   0.02737   0.44597   0.00000  Uiso   1.00
C236   C     0.60174   0.87025   0.49687   0.00000  Uiso   1.00
C237   C     0.55248   0.88535   0.55697   0.00000  Uiso   1.00
C238   C     0.54217   0.85327   0.65045   0.00000  Uiso   1.00
C239   C     0.50607   0.81476   0.80827   0.00000  Uiso   1.00
C240   C     0.62546   0.85039   0.30859   0.00000  Uiso   1.00
C241   C     0.59612   0.84879   0.21039   0.00000  Uiso   1.00
C242   C     0.60576   0.79998   0.14536   0.00000  Uiso   1.00
C243   C     0.60648   0.73063   0.01085   0.00000  Uiso   1.00
C244   C     0.69058   0.81568   0.45122   0.00000  Uiso   1.00
C245   C     0.72180   0.87491   0.44343   0.00000  Uiso   1.00
C246   C     0.78086   0.88501   0.46491   0.00000  Uiso   1.00
C247   C     0.80099   0.94232   0.45312   0.00000  Uiso   1.00
C248   C     0.63937   0.82472   0.52900   0.00000  Uiso   1.00
C249   C     0.62913   0.79261   0.62240   0.00000  Uiso   1.00
C250   C     0.57987   0.80766   0.68263   0.00000  Uiso   1.00
C251   C     0.66309   0.80486   0.34071   0.00000  Uiso   1.00
C252   C     0.67278   0.75604   0.27582   0.00000  Uiso   1.00
C253   C     0.64346   0.75437   0.17754   0.00000  Uiso   1.00
H254   H     0.59200   0.93496   0.36707   0.00000  Uiso   1.00
H255   H     0.67507   0.01298   0.37463   0.00000  Uiso   1.00
H256   H     0.52336   0.92059   0.53208   0.00000  Uiso   1.00
H257   H     0.56700   0.88403   0.18556   0.00000  Uiso   1.00
H258   H     0.78377   0.07940   0.39721   0.00000  Uiso   1.00
H259   H     0.46387   0.88458   0.72920   0.00000  Uiso   1.00
H260   H     0.55588   0.80749   0.99848   0.00000  Uiso   1.00
H261   H     0.71988   0.78023   0.47623   0.00000  Uiso   1.00
H262   H     0.80997   0.84976   0.48977   0.00000  Uiso   1.00
H263   H     0.65826   0.75737   0.64723   0.00000  Uiso   1.00
H264   H     0.70190   0.72082   0.30071   0.00000  Uiso   1.00
H265   H     0.89326   0.94693   0.49067   0.00000  Uiso   1.00
H266   H     0.57336   0.75211   0.82266   0.00000  Uiso   1.00
H267   H     0.66538   0.67502   0.09194   0.00000  Uiso   1.00
O268   O     0.89547   0.06170   0.45092   0.00000  Uiso   1.00
O269   O     0.47577   0.80609   0.88646   0.00000  Uiso   1.00
O270   O     0.59649   0.70496   0.92777   0.00000  Uiso   1.00
N271   N     0.79717   0.03868   0.41733   0.00000  Uiso   1.00
N272   N     0.49809   0.85654   0.72773   0.00000  Uiso   1.00
N273   N     0.58411   0.78446   0.04458   0.00000  Uiso   1.00
N274   N     0.85609   0.96740   0.46762   0.00000  Uiso   1.00
N275   N     0.55701   0.78526   0.77802   0.00000  Uiso   1.00
N276   N     0.64302   0.71318   0.09487   0.00000  Uiso   1.00
C277   C     0.39951   0.87870   0.39207   0.00000  Uiso   1.00
C278   C     0.42044   0.81583   0.41131   0.00000  Uiso   1.00
C279   C     0.47775   0.79579   0.39948   0.00000  Uiso   1.00
C280   C     0.48793   0.73671   0.42094   0.00000  Uiso   1.00
C281   C     0.52737   0.64482   0.44597   0.00000  Uiso   1.00
C282   C     0.37025   0.89826   0.49687   0.00000  Uiso   1.00
C283   C     0.38535   0.94752   0.55697   0.00000  Uiso   1.00
C284   C     0.35327   0.95783   0.65045   0.00000  Uiso   1.00
C285   C     0.31476   0.99393   0.80827   0.00000  Uiso   1.00
C286   C     0.35039   0.87454   0.30859   0.00000  Uiso   1.00
C287   C     0.34879   0.90388   0.21039   0.00000  Uiso   1.00
C288   C     0.29998   0.89424   0.14536   0.00000  Uiso   1.00
C289   C     0.23063   0.89352   0.01085   0.00000  Uiso   1.00
C290   C     0.31568   0.80942   0.45122   0.00000  Uiso   1.00
C291   C     0.37491   0.77820   0.44343   0.00000  Uiso   1.00
C292   C     0.38501   0.71914   0.46491   0.00000  Uiso   1.00
C293   C     0.44232   0.69901   0.45312   0.00000  Uiso   1.00
C294   C     0.32472   0.86063   0.52900   0.00000  Uiso   1.00
C295   C     0.29261   0.87087   0.62240   0.00000  Uiso   1.00
C296   C     0.30766   0.92013   0.68263   0.00000  Uiso   1.00
C297   C     0.30486   0.83691   0.34071   0.00000  Uiso   1.00
C298   C     0.25604   0.82722   0.27582   0.00000  Uiso   1.00
C299   C     0.25437   0.85654   0.17754   0.00000  Uiso   1.00
H300   H     0.43496   0.90800   0.36707   0.00000  Uiso   1.00
H301   H     0.51298   0.82493   0.37463   0.00000  Uiso   1.00
H302   H     0.42059   0.97664   0.53208   0.00000  Uiso   1.00
H303   H     0.38403   0.93300   0.18556   0.00000  Uiso   1.00
H304   H     0.57940   0.71623   0.39721   0.00000  Uiso   1.00
H305   H     0.38458   0.03613   0.72920   0.00000  Uiso   1.00
H306   H     0.30749   0.94412   0.99848   0.00000  Uiso   1.00
H307   H     0.28023   0.78012   0.47623   0.00000  Uiso   1.00
H308   H     0.34976   0.69003   0.48977   0.00000  Uiso   1.00
H309   H     0.25737   0.84174   0.64723   0.00000  Uiso   1.00
H310   H     0.22082   0.79810   0.30071   0.00000  Uiso   1.00
H311   H     0.44693   0.60674   0.49067   0.00000  Uiso   1.00
H312   H     0.25211   0.92664   0.82266   0.00000  Uiso   1.00
H313   H     0.17502   0.83462   0.09194   0.00000  Uiso   1.00
O314   O     0.56170   0.60453   0.45092   0.00000  Uiso   1.00
O315   O     0.30609   0.02423   0.88646   0.00000  Uiso   1.00
O316   O     0.20496   0.90351   0.92777   0.00000  Uiso   1.00
N317   N     0.53868   0.70283   0.41733   0.00000  Uiso   1.00
N318   N     0.35654   0.00191   0.72773   0.00000  Uiso   1.00
N319   N     0.28446   0.91589   0.04458   0.00000  Uiso   1.00
N320   N     0.46740   0.64391   0.46762   0.00000  Uiso   1.00
N321   N     0.28526   0.94299   0.77802   0.00000  Uiso   1.00
N322   N     0.21318   0.85698   0.09487   0.00000  Uiso   1.00
C323   C     0.60049   0.12130   0.39207   0.00000  Uiso   1.00
C324   C     0.57956   0.18417   0.41131   0.00000  Uiso   1.00
C325   C     0.52225   0.20421   0.39948   0.00000  Uiso   1.00
C326   C     0.51207   0.26329   0.42094   0.00000  Uiso   1.00
C327   C     0.47263   0.35518   0.44597   0.00000  Uiso   1.00
C328   C     0.62975   0.10174   0.49687   0.00000  Uiso   1.00
C329   C     0.61465   0.05248   0.55697   0.00000  Uiso   1.00
C330   C     0.64673   0.04217   0.65045   0.00000  Uiso   1.00
C331   C     0.68524   0.00607   0.80827   0.00000  Uiso   1.00
C332   C     0.64961   0.12546   0.30859   0.00000  Uiso   1.00
C333   C     0.65121   0.09612   0.21039   0.00000  Uiso   1.00
C334   C     0.70002   0.10576   0.14536   0.00000  Uiso   1.00
C335   C     0.76937   0.10648   0.01085   0.00000  Uiso   1.00
C336   C     0.68432   0.19058   0.45122   0.00000  Uiso   1.00
C337   C     0.62509   0.22180   0.44343   0.00000  Uiso   1.00
C338   C     0.61499   0.28086   0.46491   0.00000  Uiso   1.00
C339   C     0.55768   0.30099   0.45312   0.00000  Uiso   1.00
C340   C     0.67528   0.13937   0.52900   0.00000  Uiso   1.00
C341   C     0.70739   0.12913   0.62240   0.00000  Uiso   1.00
C342   C     0.69234   0.07987   0.68263   0.00000  Uiso   1.00
C343   C     0.69514   0.16309   0.34071   0.00000  Uiso   1.00
C344   C     0.74396   0.17278   0.27582   0.00000  Uiso   1.00
C345   C     0.74563   0.14346   0.17754   0.00000  Uiso   1.00
H346   H     0.56504   0.09200   0.36707   0.00000  Uiso   1.00
H347   H     0.48702   0.17507   0.37463   0.00000  Uiso   1.00
H348   H     0.57941   0.02336   0.53208   0.00000  Uiso   1.00
H349   H     0.61597   0.06700   0.18556   0.00000  Uiso   1.00
H350   H     0.42060   0.28377   0.39721   0.00000  Uiso   1.00
H351   H     0.61542   0.96387   0.72920   0.00000  Uiso   1.00
H352   H     0.69251   0.05588   0.99848   0.00000  Uiso   1.00
H353   H     0.71977   0.21988   0.47623   0.00000  Uiso   1.00
H354   H     0.65024   0.30997   0.48977   0.00000  Uiso   1.00
H355   H     0.74263   0.15826   0.64723   0.00000  Uiso   1.00
H356   H     0.77918   0.20190   0.30071   0.00000  Uiso   1.00
H357   H     0.55307   0.39326   0.49067   0.00000  Uiso   1.00
H358   H     0.74789   0.07336   0.82266   0.00000  Uiso   1.00
H359   H     0.82498   0.16538   0.09194   0.00000  Uiso   1.00
O360   O     0.43830   0.39547   0.45092   0.00000  Uiso   1.00
O361   O     0.69391   0.97577   0.88646   0.00000  Uiso   1.00
O362   O     0.79504   0.09649   0.92777   0.00000  Uiso   1.00
N363   N     0.46132   0.29717   0.41733   0.00000  Uiso   1.00
N364   N     0.64346   0.99809   0.72773   0.00000  Uiso   1.00
N365   N     0.71554   0.08411   0.04458   0.00000  Uiso   1.00
N366   N     0.53260   0.35609   0.46762   0.00000  Uiso   1.00
N367   N     0.71474   0.05701   0.77802   0.00000  Uiso   1.00
N368   N     0.78682   0.14302   0.09487   0.00000  Uiso   1.00
