data_job_06656
_audit_creation_date              2018-12-19
_audit_creation_method            'Materials Studio'
_symmetry_space_group_name_H-M    'P1'
_symmetry_Int_Tables_number       1
_symmetry_cell_setting            triclinic
loop_
_symmetry_equiv_pos_as_xyz
  x,y,z
_cell_length_a                    21.0362
_cell_length_b                    21.3704
_cell_length_c                    22.3999
_cell_angle_alpha                 106.9660
_cell_angle_beta                  107.2420
_cell_angle_gamma                 103.8620
loop_
_atom_site_label
_atom_site_type_symbol
_atom_site_fract_x
_atom_site_fract_y
_atom_site_fract_z
_atom_site_U_iso_or_equiv
_atom_site_adp_type
_atom_site_occupancy
C1     C     0.45477   0.88863   0.79492   0.00000  Uiso   1.00
C2     C     0.50161   0.90594   0.86840   0.00000  Uiso   1.00
C3     C     0.57446   0.94310   0.90010   0.00000  Uiso   1.00
C4     C     0.60762   0.95343   0.96760   0.00000  Uiso   1.00
C5     C     0.68619   0.98423   0.07644   0.00000  Uiso   1.00
C6     C     0.41830   0.80917   0.76207   0.00000  Uiso   1.00
C7     C     0.42109   0.76496   0.70436   0.00000  Uiso   1.00
C8     C     0.38410   0.69382   0.68235   0.00000  Uiso   1.00
C9     C     0.33328   0.57438   0.62608   0.00000  Uiso   1.00
C10    C     0.39600   0.91806   0.79781   0.00000  Uiso   1.00
C11    C     0.38002   0.96540   0.77013   0.00000  Uiso   1.00
C12    C     0.32425   0.98594   0.77819   0.00000  Uiso   1.00
C13    C     0.23880   0.03557   0.77741   0.00000  Uiso   1.00
C14    C     0.38412   0.84091   0.85844   0.00000  Uiso   1.00
C15    C     0.46323   0.88002   0.90290   0.00000  Uiso   1.00
C16    C     0.49629   0.89031   0.97037   0.00000  Uiso   1.00
C17    C     0.56917   0.92747   0.00216   0.00000  Uiso   1.00
C18    C     0.37992   0.78325   0.79657   0.00000  Uiso   1.00
C19    C     0.34292   0.71216   0.77464   0.00000  Uiso   1.00
C20    C     0.34566   0.66786   0.71691   0.00000  Uiso   1.00
C21    C     0.35762   0.89215   0.83231   0.00000  Uiso   1.00
C22    C     0.30185   0.91261   0.84041   0.00000  Uiso   1.00
C23    C     0.28580   0.95997   0.81275   0.00000  Uiso   1.00
H24    H     0.48465   0.90880   0.76806   0.00000  Uiso   1.00
H25    H     0.60414   0.96314   0.87338   0.00000  Uiso   1.00
H26    H     0.45079   0.78503   0.67767   0.00000  Uiso   1.00
H27    H     0.40973   0.98544   0.74343   0.00000  Uiso   1.00
H28    H     0.71970   0.01193   0.00535   0.00000  Uiso   1.00
H29    H     0.39633   0.63638   0.59268   0.00000  Uiso   1.00
H30    H     0.30975   0.05899   0.73135   0.00000  Uiso   1.00
H31    H     0.35423   0.82073   0.88530   0.00000  Uiso   1.00
H32    H     0.46657   0.87024   0.99706   0.00000  Uiso   1.00
H33    H     0.31322   0.69213   0.80135   0.00000  Uiso   1.00
H34    H     0.27216   0.89254   0.86711   0.00000  Uiso   1.00
H35    H     0.60804   0.93653   0.10574   0.00000  Uiso   1.00
H36    H     0.28467   0.56097   0.69306   0.00000  Uiso   1.00
H37    H     0.19809   0.98359   0.83173   0.00000  Uiso   1.00
O38    O     0.74013   0.00837   0.12694   0.00000  Uiso   1.00
O39    O     0.31586   0.51566   0.58552   0.00000  Uiso   1.00
O40    O     0.20228   0.07012   0.76746   0.00000  Uiso   1.00
N41    N     0.67800   0.98740   0.01364   0.00000  Uiso   1.00
N42    N     0.37568   0.63628   0.62783   0.00000  Uiso   1.00
N43    N     0.29472   0.03138   0.75745   0.00000  Uiso   1.00
N44    N     0.61792   0.94683   0.06766   0.00000  Uiso   1.00
N45    N     0.31560   0.59571   0.68184   0.00000  Uiso   1.00
N46    N     0.23464   0.99080   0.81147   0.00000  Uiso   1.00
C47    C     0.73704   0.48716   0.88881   0.00000  Uiso   1.00
C48    C     0.81327   0.53486   0.90949   0.00000  Uiso   1.00
C49    C     0.84272   0.60595   0.94995   0.00000  Uiso   1.00
C50    C     0.91337   0.64029   0.96302   0.00000  Uiso   1.00
C51    C     0.02568   0.71976   0.99912   0.00000  Uiso   1.00
C52    C     0.70494   0.45403   0.81138   0.00000  Uiso   1.00
C53    C     0.64331   0.45715   0.76936   0.00000  Uiso   1.00
C54    C     0.62278   0.42344   0.69985   0.00000  Uiso   1.00
C55    C     0.56687   0.37737   0.58364   0.00000  Uiso   1.00
C56    C     0.74303   0.42777   0.91217   0.00000  Uiso   1.00
C57    C     0.71340   0.40881   0.95487   0.00000  Uiso   1.00
C58    C     0.72492   0.35299   0.97019   0.00000  Uiso   1.00
C59    C     0.72815   0.26616   0.01046   0.00000  Uiso   1.00
C60    C     0.81016   0.42173   0.84008   0.00000  Uiso   1.00
C61    C     0.85298   0.49931   0.88301   0.00000  Uiso   1.00
C62    C     0.92361   0.53356   0.89603   0.00000  Uiso   1.00
C63    C     0.95316   0.60469   0.93650   0.00000  Uiso   1.00
C64    C     0.74465   0.41849   0.78491   0.00000  Uiso   1.00
C65    C     0.72420   0.38476   0.71544   0.00000  Uiso   1.00
C66    C     0.66256   0.38784   0.67333   0.00000  Uiso   1.00
C67    C     0.78274   0.39223   0.88570   0.00000  Uiso   1.00
C68    C     0.79430   0.33642   0.90095   0.00000  Uiso   1.00
C69    C     0.76470   0.31738   0.94367   0.00000  Uiso   1.00
H70    H     0.70612   0.51483   0.90942   0.00000  Uiso   1.00
H71    H     0.81196   0.63343   0.97042   0.00000  Uiso   1.00
H72    H     0.61258   0.48465   0.78986   0.00000  Uiso   1.00
H73    H     0.68267   0.43632   0.97534   0.00000  Uiso   1.00
H74    H     0.94681   0.74926   0.02635   0.00000  Uiso   1.00
H75    H     0.52640   0.43553   0.64564   0.00000  Uiso   1.00
H76    H     0.67419   0.33361   0.03676   0.00000  Uiso   1.00
H77    H     0.84108   0.39406   0.81947   0.00000  Uiso   1.00
H78    H     0.95433   0.50604   0.87553   0.00000  Uiso   1.00
H79    H     0.75495   0.35726   0.69498   0.00000  Uiso   1.00
H80    H     0.82503   0.30893   0.88045   0.00000  Uiso   1.00
H81    H     0.06236   0.64586   0.94934   0.00000  Uiso   1.00
H82    H     0.64194   0.33213   0.56863   0.00000  Uiso   1.00
H83    H     0.78974   0.23022   0.95974   0.00000  Uiso   1.00
O84    O     0.07665   0.77341   0.02633   0.00000  Uiso   1.00
O85    O     0.52507   0.36179   0.52686   0.00000  Uiso   1.00
O86    O     0.71897   0.22809   0.03999   0.00000  Uiso   1.00
N87    N     0.95847   0.70955   0.00055   0.00000  Uiso   1.00
N88    N     0.56541   0.41624   0.64460   0.00000  Uiso   1.00
N89    N     0.70357   0.32095   0.01025   0.00000  Uiso   1.00
N90    N     0.02065   0.65392   0.95911   0.00000  Uiso   1.00
N91    N     0.62759   0.36061   0.60316   0.00000  Uiso   1.00
N92    N     0.76574   0.26532   0.96881   0.00000  Uiso   1.00
C93    C     0.86082   0.79662   0.51470   0.00000  Uiso   1.00
C94    C     0.87632   0.87297   0.55698   0.00000  Uiso   1.00
C95    C     0.91290   0.90651   0.62692   0.00000  Uiso   1.00
C96    C     0.92153   0.97653   0.65606   0.00000  Uiso   1.00
C97    C     0.94968   0.08972   0.72771   0.00000  Uiso   1.00
C98    C     0.78017   0.76350   0.47598   0.00000  Uiso   1.00
C99    C     0.73591   0.70501   0.47781   0.00000  Uiso   1.00
C100   C     0.66360   0.68287   0.43876   0.00000  Uiso   1.00
C101   C     0.54248   0.62609   0.38462   0.00000  Uiso   1.00
C102   C     0.89188   0.79772   0.46139   0.00000  Uiso   1.00
C103   C     0.94154   0.76797   0.45094   0.00000  Uiso   1.00
C104   C     0.96327   0.77463   0.39960   0.00000  Uiso   1.00
C105   C     0.01560   0.77097   0.32281   0.00000  Uiso   1.00
C106   C     0.81110   0.86131   0.44209   0.00000  Uiso   1.00
C107   C     0.84932   0.90810   0.51754   0.00000  Uiso   1.00
C108   C     0.85789   0.97809   0.54658   0.00000  Uiso   1.00
C109   C     0.89448   0.01174   0.61655   0.00000  Uiso   1.00
C110   C     0.75317   0.79864   0.43654   0.00000  Uiso   1.00
C111   C     0.68090   0.77658   0.39747   0.00000  Uiso   1.00
C112   C     0.63654   0.71808   0.39925   0.00000  Uiso   1.00
C113   C     0.86488   0.83286   0.42195   0.00000  Uiso   1.00
C114   C     0.88653   0.83955   0.37061   0.00000  Uiso   1.00
C115   C     0.93621   0.80983   0.36009   0.00000  Uiso   1.00
H116   H     0.88184   0.76925   0.54541   0.00000  Uiso   1.00
H117   H     0.93378   0.87930   0.65742   0.00000  Uiso   1.00
H118   H     0.75682   0.67782   0.50833   0.00000  Uiso   1.00
H119   H     0.96242   0.74078   0.48147   0.00000  Uiso   1.00
H120   H     0.97944   0.01679   0.76422   0.00000  Uiso   1.00
H121   H     0.60632   0.59195   0.44984   0.00000  Uiso   1.00
H122   H     0.03986   0.72471   0.39320   0.00000  Uiso   1.00
H123   H     0.79008   0.88867   0.41138   0.00000  Uiso   1.00
H124   H     0.83699   0.00527   0.51605   0.00000  Uiso   1.00
H125   H     0.66003   0.80379   0.36696   0.00000  Uiso   1.00
H126   H     0.86563   0.86675   0.34010   0.00000  Uiso   1.00
H127   H     0.90088   0.11903   0.64948   0.00000  Uiso   1.00
H128   H     0.52775   0.69419   0.33509   0.00000  Uiso   1.00
H129   H     0.96129   0.82695   0.27846   0.00000  Uiso   1.00
O130   O     0.97266   0.14245   0.77812   0.00000  Uiso   1.00
O131   O     0.48313   0.58507   0.36565   0.00000  Uiso   1.00
O132   O     0.05193   0.75925   0.29135   0.00000  Uiso   1.00
N133   N     0.95453   0.02485   0.72285   0.00000  Uiso   1.00
N134   N     0.60567   0.62766   0.42893   0.00000  Uiso   1.00
N135   N     0.01099   0.75177   0.37597   0.00000  Uiso   1.00
N136   N     0.91225   0.07987   0.66111   0.00000  Uiso   1.00
N137   N     0.56340   0.68268   0.36719   0.00000  Uiso   1.00
N138   N     0.96871   0.80678   0.31422   0.00000  Uiso   1.00
C139   C     0.94692   0.28528   0.38751   0.00000  Uiso   1.00
C140   C     0.99477   0.36025   0.40722   0.00000  Uiso   1.00
C141   C     0.06737   0.38958   0.44679   0.00000  Uiso   1.00
C142   C     0.10158   0.45900   0.45906   0.00000  Uiso   1.00
C143   C     0.18153   0.56951   0.49366   0.00000  Uiso   1.00
C144   C     0.91182   0.25333   0.31012   0.00000  Uiso   1.00
C145   C     0.91468   0.19276   0.26805   0.00000  Uiso   1.00
C146   C     0.87906   0.17218   0.19858   0.00000  Uiso   1.00
C147   C     0.83019   0.11667   0.08242   0.00000  Uiso   1.00
C148   C     0.88733   0.29102   0.41190   0.00000  Uiso   1.00
C149   C     0.86959   0.26212   0.45539   0.00000  Uiso   1.00
C150   C     0.81334   0.27326   0.47160   0.00000  Uiso   1.00
C151   C     0.72645   0.27627   0.51347   0.00000  Uiso   1.00
C152   C     0.87856   0.35642   0.33894   0.00000  Uiso   1.00
C153   C     0.95763   0.39888   0.38084   0.00000  Uiso   1.00
C154   C     0.99174   0.46828   0.39306   0.00000  Uiso   1.00
C155   C     0.06439   0.49771   0.43264   0.00000  Uiso   1.00
C156   C     0.87469   0.29196   0.28374   0.00000  Uiso   1.00
C157   C     0.83905   0.27146   0.21431   0.00000  Uiso   1.00
C158   C     0.84186   0.21088   0.17215   0.00000  Uiso   1.00
C159   C     0.85020   0.32966   0.38552   0.00000  Uiso   1.00
C160   C     0.79396   0.34083   0.40166   0.00000  Uiso   1.00
C161   C     0.77614   0.31196   0.44517   0.00000  Uiso   1.00
H162   H     0.97583   0.25520   0.40804   0.00000  Uiso   1.00
H163   H     0.09609   0.35966   0.46719   0.00000  Uiso   1.00
H164   H     0.94342   0.16287   0.28848   0.00000  Uiso   1.00
H165   H     0.89834   0.23223   0.47580   0.00000  Uiso   1.00
H166   H     0.21305   0.49250   0.52112   0.00000  Uiso   1.00
H167   H     0.89111   0.07755   0.14429   0.00000  Uiso   1.00
H168   H     0.79605   0.22380   0.53928   0.00000  Uiso   1.00
H169   H     0.84965   0.38650   0.31840   0.00000  Uiso   1.00
H170   H     0.96299   0.49817   0.37263   0.00000  Uiso   1.00
H171   H     0.81032   0.30137   0.19392   0.00000  Uiso   1.00
H172   H     0.76524   0.37073   0.38123   0.00000  Uiso   1.00
H173   H     0.10503   0.60492   0.44436   0.00000  Uiso   1.00
H174   H     0.78309   0.18996   0.06754   0.00000  Uiso   1.00
H175   H     0.68803   0.33621   0.46253   0.00000  Uiso   1.00
O176   O     0.23588   0.61979   0.52002   0.00000  Uiso   1.00
O177   O     0.81350   0.07538   0.02564   0.00000  Uiso   1.00
O178   O     0.68878   0.26726   0.54386   0.00000  Uiso   1.00
N179   N     0.17207   0.50364   0.49562   0.00000  Uiso   1.00
N180   N     0.87109   0.11569   0.14331   0.00000  Uiso   1.00
N181   N     0.78220   0.25240   0.51258   0.00000  Uiso   1.00
N182   N     0.11395   0.56413   0.45432   0.00000  Uiso   1.00
N183   N     0.81296   0.17618   0.10201   0.00000  Uiso   1.00
N184   N     0.72407   0.31289   0.47128   0.00000  Uiso   1.00
C185   C     0.24895   0.40451   0.02252   0.00000  Uiso   1.00
C186   C     0.32751   0.42212   0.06413   0.00000  Uiso   1.00
C187   C     0.36100   0.45321   0.13445   0.00000  Uiso   1.00
C188   C     0.43323   0.46497   0.16286   0.00000  Uiso   1.00
C189   C     0.54952   0.49513   0.23363   0.00000  Uiso   1.00
C190   C     0.21925   0.32630   0.97873   0.00000  Uiso   1.00
C191   C     0.16171   0.27683   0.97724   0.00000  Uiso   1.00
C192   C     0.14282   0.20793   0.93375   0.00000  Uiso   1.00
C193   C     0.09101   0.08934   0.87190   0.00000  Uiso   1.00
C194   C     0.24719   0.44153   0.97358   0.00000  Uiso   1.00
C195   C     0.21313   0.48893   0.96775   0.00000  Uiso   1.00
C196   C     0.21775   0.51704   0.91991   0.00000  Uiso   1.00
C197   C     0.20932   0.57736   0.85007   0.00000  Uiso   1.00
C198   C     0.31768   0.37012   0.94792   0.00000  Uiso   1.00
C199   C     0.36484   0.40344   0.02361   0.00000  Uiso   1.00
C200   C     0.43705   0.41517   0.05192   0.00000  Uiso   1.00
C201   C     0.47064   0.44627   0.12227   0.00000  Uiso   1.00
C202   C     0.25658   0.30762   0.93821   0.00000  Uiso   1.00
C203   C     0.23776   0.23879   0.89471   0.00000  Uiso   1.00
C204   C     0.18022   0.18922   0.89316   0.00000  Uiso   1.00
C205   C     0.28453   0.42286   0.93306   0.00000  Uiso   1.00
C206   C     0.28919   0.45089   0.88522   0.00000  Uiso   1.00
C207   C     0.25515   0.49833   0.87932   0.00000  Uiso   1.00
H208   H     0.21988   0.41905   0.05406   0.00000  Uiso   1.00
H209   H     0.33208   0.46765   0.16579   0.00000  Uiso   1.00
H210   H     0.13283   0.29130   0.00860   0.00000  Uiso   1.00
H211   H     0.18425   0.50337   0.99911   0.00000  Uiso   1.00
H212   H     0.47294   0.51328   0.27179   0.00000  Uiso   1.00
H213   H     0.05279   0.14144   0.94033   0.00000  Uiso   1.00
H214   H     0.16121   0.58863   0.92032   0.00000  Uiso   1.00
H215   H     0.34675   0.35558   0.91638   0.00000  Uiso   1.00
H216   H     0.46592   0.40071   0.02055   0.00000  Uiso   1.00
H217   H     0.26667   0.22435   0.86336   0.00000  Uiso   1.00
H218   H     0.31808   0.43643   0.85387   0.00000  Uiso   1.00
H219   H     0.58157   0.45894   0.15391   0.00000  Uiso   1.00
H220   H     0.16141   0.08709   0.82244   0.00000  Uiso   1.00
H221   H     0.26983   0.53430   0.80244   0.00000  Uiso   1.00
O222   O     0.60335   0.51692   0.28386   0.00000  Uiso   1.00
O223   O     0.05212   0.02908   0.84899   0.00000  Uiso   1.00
O224   O     0.19437   0.61579   0.82274   0.00000  Uiso   1.00
N225   N     0.48215   0.49431   0.22975   0.00000  Uiso   1.00
N226   N     0.08934   0.14666   0.91986   0.00000  Uiso   1.00
N227   N     0.19069   0.56474   0.90114   0.00000  Uiso   1.00
N228   N     0.54061   0.46507   0.16632   0.00000  Uiso   1.00
N229   N     0.14779   0.11742   0.85643   0.00000  Uiso   1.00
N230   N     0.24914   0.53550   0.83771   0.00000  Uiso   1.00
C231   C     0.35281   0.01485   0.30453   0.00000  Uiso   1.00
C232   C     0.37010   0.05932   0.37826   0.00000  Uiso   1.00
C233   C     0.39655   0.13196   0.40790   0.00000  Uiso   1.00
C234   C     0.40886   0.16280   0.47603   0.00000  Uiso   1.00
C235   C     0.43777   0.23801   0.58487   0.00000  Uiso   1.00
C236   C     0.27493   0.96714   0.27519   0.00000  Uiso   1.00
C237   C     0.22136   0.96227   0.21814   0.00000  Uiso   1.00
C238   C     0.15356   0.91550   0.19950   0.00000  Uiso   1.00
C239   C     0.03471   0.84756   0.14827   0.00000  Uiso   1.00
C240   C     0.39615   0.96708   0.30696   0.00000  Uiso   1.00
C241   C     0.44448   0.96214   0.27662   0.00000  Uiso   1.00
C242   C     0.47873   0.91530   0.28473   0.00000  Uiso   1.00
C243   C     0.54809   0.84726   0.28284   0.00000  Uiso   1.00
C244   C     0.32766   0.94043   0.37285   0.00000  Uiso   1.00
C245   C     0.35644   0.01890   0.41537   0.00000  Uiso   1.00
C246   C     0.36873   0.04963   0.48348   0.00000  Uiso   1.00
C247   C     0.39519   0.12231   0.51321   0.00000  Uiso   1.00
C248   C     0.26127   0.92672   0.31229   0.00000  Uiso   1.00
C249   C     0.19354   0.87994   0.29373   0.00000  Uiso   1.00
C250   C     0.13988   0.87501   0.23668   0.00000  Uiso   1.00
C251   C     0.38249   0.92666   0.34407   0.00000  Uiso   1.00
C252   C     0.41666   0.87981   0.35221   0.00000  Uiso   1.00
C253   C     0.46505   0.87481   0.32190   0.00000  Uiso   1.00
H254   H     0.36344   0.04631   0.27564   0.00000  Uiso   1.00
H255   H     0.40710   0.16323   0.37916   0.00000  Uiso   1.00
H256   H     0.23195   0.99355   0.18943   0.00000  Uiso   1.00
H257   H     0.45504   0.99343   0.24791   0.00000  Uiso   1.00
H258   H     0.44947   0.27502   0.51029   0.00000  Uiso   1.00
H259   H     0.08014   0.91725   0.11023   0.00000  Uiso   1.00
H260   H     0.55058   0.91697   0.23354   0.00000  Uiso   1.00
H261   H     0.31702   0.90896   0.40174   0.00000  Uiso   1.00
H262   H     0.35815   0.01834   0.51218   0.00000  Uiso   1.00
H263   H     0.18299   0.84867   0.32245   0.00000  Uiso   1.00
H264   H     0.40608   0.84854   0.38093   0.00000  Uiso   1.00
H265   H     0.40973   0.15743   0.61825   0.00000  Uiso   1.00
H266   H     0.04041   0.79965   0.21819   0.00000  Uiso   1.00
H267   H     0.51084   0.79938   0.34150   0.00000  Uiso   1.00
O268   O     0.45747   0.29066   0.63464   0.00000  Uiso   1.00
O269   O     0.97293   0.82126   0.10977   0.00000  Uiso   1.00
O270   O     0.59013   0.82091   0.27155   0.00000  Uiso   1.00
N271   N     0.43449   0.23234   0.52054   0.00000  Uiso   1.00
N272   N     0.08919   0.89785   0.14652   0.00000  Uiso   1.00
N273   N     0.52899   0.89758   0.26179   0.00000  Uiso   1.00
N274   N     0.41311   0.16906   0.57864   0.00000  Uiso   1.00
N275   N     0.06781   0.83457   0.20461   0.00000  Uiso   1.00
N276   N     0.50761   0.83430   0.31988   0.00000  Uiso   1.00
C277   C     0.51816   0.16897   0.27708   0.00000  Uiso   1.00
C278   C     0.47100   0.15027   0.20335   0.00000  Uiso   1.00
C279   C     0.39940   0.10823   0.17059   0.00000  Uiso   1.00
C280   C     0.36568   0.09742   0.10303   0.00000  Uiso   1.00
C281   C     0.28687   0.06381   0.99364   0.00000  Uiso   1.00
C282   C     0.54867   0.24876   0.31042   0.00000  Uiso   1.00
C283   C     0.54238   0.28954   0.36769   0.00000  Uiso   1.00
C284   C     0.57406   0.36165   0.39028   0.00000  Uiso   1.00
C285   C     0.61588   0.48096   0.44716   0.00000  Uiso   1.00
C286   C     0.58104   0.14597   0.27519   0.00000  Uiso   1.00
C287   C     0.60197   0.10033   0.30286   0.00000  Uiso   1.00
C288   C     0.66090   0.08591   0.29580   0.00000  Uiso   1.00
C289   C     0.75297   0.04562   0.29797   0.00000  Uiso   1.00
C290   C     0.58561   0.22453   0.21536   0.00000  Uiso   1.00
C291   C     0.50764   0.18045   0.16982   0.00000  Uiso   1.00
C292   C     0.47402   0.16970   0.10230   0.00000  Uiso   1.00
C293   C     0.40238   0.12765   0.06944   0.00000  Uiso   1.00
C294   C     0.58531   0.27894   0.27690   0.00000  Uiso   1.00
C295   C     0.61700   0.35101   0.29941   0.00000  Uiso   1.00
C296   C     0.61076   0.39188   0.35669   0.00000  Uiso   1.00
C297   C     0.61767   0.17615   0.24167   0.00000  Uiso   1.00
C298   C     0.67659   0.16180   0.23457   0.00000  Uiso   1.00
C299   C     0.69760   0.11614   0.26221   0.00000  Uiso   1.00
H300   H     0.48965   0.14549   0.30319   0.00000  Uiso   1.00
H301   H     0.37107   0.08489   0.19655   0.00000  Uiso   1.00
H302   H     0.51404   0.26617   0.39363   0.00000  Uiso   1.00
H303   H     0.57361   0.07699   0.32880   0.00000  Uiso   1.00
H304   H     0.25575   0.03104   0.06355   0.00000  Uiso   1.00
H305   H     0.55723   0.41328   0.47911   0.00000  Uiso   1.00
H306   H     0.68285   0.01436   0.34241   0.00000  Uiso   1.00
H307   H     0.61413   0.24803   0.18926   0.00000  Uiso   1.00
H308   H     0.50238   0.19306   0.07637   0.00000  Uiso   1.00
H309   H     0.64535   0.37434   0.27345   0.00000  Uiso   1.00
H310   H     0.70492   0.18516   0.20862   0.00000  Uiso   1.00
H311   H     0.36233   0.11883   0.96600   0.00000  Uiso   1.00
H312   H     0.66381   0.50108   0.38158   0.00000  Uiso   1.00
H313   H     0.78943   0.10215   0.24486   0.00000  Uiso   1.00
O314   O     0.23327   0.03695   0.94257   0.00000  Uiso   1.00
O315   O     0.62881   0.53843   0.48779   0.00000  Uiso   1.00
O316   O     0.79362   0.01505   0.30843   0.00000  Uiso   1.00
N317   N     0.29617   0.05923   0.05608   0.00000  Uiso   1.00
N318   N     0.57803   0.41661   0.44460   0.00000  Uiso   1.00
N319   N     0.69549   0.04366   0.31681   0.00000  Uiso   1.00
N320   N     0.35352   0.10648   0.00359   0.00000  Uiso   1.00
N321   N     0.63538   0.46385   0.39212   0.00000  Uiso   1.00
N322   N     0.75283   0.09090   0.26432   0.00000  Uiso   1.00
C323   C     0.23534   0.56285   0.18536   0.00000  Uiso   1.00
C324   C     0.15933   0.51398   0.16360   0.00000  Uiso   1.00
C325   C     0.13368   0.44163   0.13045   0.00000  Uiso   1.00
C326   C     0.06252   0.40635   0.11492   0.00000  Uiso   1.00
C327   C     0.95118   0.32501   0.07857   0.00000  Uiso   1.00
C328   C     0.26216   0.60431   0.26159   0.00000  Uiso   1.00
C329   C     0.32299   0.60792   0.31083   0.00000  Uiso   1.00
C330   C     0.33840   0.64869   0.37779   0.00000  Uiso   1.00
C331   C     0.38675   0.70764   0.49357   0.00000  Uiso   1.00
C332   C     0.22917   0.61548   0.15239   0.00000  Uiso   1.00
C333   C     0.26226   0.62850   0.10984   0.00000  Uiso   1.00
C334   C     0.24991   0.67868   0.08488   0.00000  Uiso   1.00
C335   C     0.24703   0.75498   0.03111   0.00000  Uiso   1.00
C336   C     0.15457   0.62886   0.21672   0.00000  Uiso   1.00
C337   C     0.11546   0.54984   0.18064   0.00000  Uiso   1.00
C338   C     0.04432   0.51466   0.16515   0.00000  Uiso   1.00
C339   C     0.01857   0.44226   0.13199   0.00000  Uiso   1.00
C340   C     0.21830   0.64017   0.27863   0.00000  Uiso   1.00
C341   C     0.23363   0.68095   0.34553   0.00000  Uiso   1.00
C342   C     0.29445   0.68461   0.39486   0.00000  Uiso   1.00
C343   C     0.18530   0.65134   0.16943   0.00000  Uiso   1.00
C344   C     0.17290   0.70152   0.14454   0.00000  Uiso   1.00
C345   C     0.20597   0.71460   0.10195   0.00000  Uiso   1.00
H346   H     0.26949   0.53494   0.17210   0.00000  Uiso   1.00
H347   H     0.16765   0.41390   0.11728   0.00000  Uiso   1.00
H348   H     0.35693   0.58017   0.29763   0.00000  Uiso   1.00
H349   H     0.29621   0.60074   0.09666   0.00000  Uiso   1.00
H350   H     0.03540   0.29552   0.06404   0.00000  Uiso   1.00
H351   H     0.43451   0.64612   0.44431   0.00000  Uiso   1.00
H352   H     0.30648   0.68950   0.02054   0.00000  Uiso   1.00
H353   H     0.12042   0.65677   0.22999   0.00000  Uiso   1.00
H354   H     0.01039   0.54242   0.17834   0.00000  Uiso   1.00
H355   H     0.19967   0.70869   0.35870   0.00000  Uiso   1.00
H356   H     0.13895   0.72926   0.15773   0.00000  Uiso   1.00
H357   H     0.90776   0.39983   0.11360   0.00000  Uiso   1.00
H358   H     0.30688   0.75044   0.49388   0.00000  Uiso   1.00
H359   H     0.17884   0.79381   0.07010   0.00000  Uiso   1.00
O360   O     0.90189   0.27025   0.05382   0.00000  Uiso   1.00
O361   O     0.42553   0.73024   0.55272   0.00000  Uiso   1.00
O362   O     0.25755   0.78715   0.99674   0.00000  Uiso   1.00
N363   N     0.02045   0.33576   0.08278   0.00000  Uiso   1.00
N364   N     0.39360   0.66355   0.43831   0.00000  Uiso   1.00
N365   N     0.27391   0.70412   0.04214   0.00000  Uiso   1.00
N366   N     0.95177   0.39189   0.10945   0.00000  Uiso   1.00
N367   N     0.32492   0.71968   0.46498   0.00000  Uiso   1.00
N368   N     0.20523   0.76025   0.06881   0.00000  Uiso   1.00
C369   C     0.09932   0.26617   0.55209   0.00000  Uiso   1.00
C370   C     0.08364   0.18990   0.50941   0.00000  Uiso   1.00
C371   C     0.05164   0.15810   0.43905   0.00000  Uiso   1.00
C372   C     0.04197   0.08783   0.40958   0.00000  Uiso   1.00
C373   C     0.01436   0.97505   0.33729   0.00000  Uiso   1.00
C374   C     0.17910   0.29733   0.59558   0.00000  Uiso   1.00
C375   C     0.22736   0.35585   0.59767   0.00000  Uiso   1.00
C376   C     0.29805   0.37602   0.64074   0.00000  Uiso   1.00
C377   C     0.41864   0.43004   0.70226   0.00000  Uiso   1.00
C378   C     0.06248   0.26453   0.60117   0.00000  Uiso   1.00
C379   C     0.01269   0.29549   0.60798   0.00000  Uiso   1.00
C380   C     0.98521   0.28806   0.65578   0.00000  Uiso   1.00
C381   C     0.92472   0.29117   0.72598   0.00000  Uiso   1.00
C382   C     0.13907   0.19794   0.62488   0.00000  Uiso   1.00
C383   C     0.10523   0.15284   0.54895   0.00000  Uiso   1.00
C384   C     0.09561   0.08260   0.51958   0.00000  Uiso   1.00
C385   C     0.06359   0.05070   0.44919   0.00000  Uiso   1.00
C386   C     0.20069   0.26027   0.63511   0.00000  Uiso   1.00
C387   C     0.27133   0.28035   0.67820   0.00000  Uiso   1.00
C388   C     0.31968   0.33889   0.68035   0.00000  Uiso   1.00
C389   C     0.08406   0.22747   0.64071   0.00000  Uiso   1.00
C390   C     0.05666   0.21999   0.68851   0.00000  Uiso   1.00
C391   C     0.00683   0.25094   0.69538   0.00000  Uiso   1.00
H392   H     0.08252   0.29503   0.52132   0.00000  Uiso   1.00
H393   H     0.03494   0.18680   0.40847   0.00000  Uiso   1.00
H394   H     0.21063   0.38452   0.56707   0.00000  Uiso   1.00
H395   H     0.99600   0.32417   0.57738   0.00000  Uiso   1.00
H396   H     0.99173   0.05047   0.30080   0.00000  Uiso   1.00
H397   H     0.36218   0.46739   0.63522   0.00000  Uiso   1.00
H398   H     0.90958   0.34013   0.65696   0.00000  Uiso   1.00
H399   H     0.15588   0.16908   0.65567   0.00000  Uiso   1.00
H400   H     0.11232   0.05393   0.55019   0.00000  Uiso   1.00
H401   H     0.28801   0.25166   0.70879   0.00000  Uiso   1.00
H402   H     0.07338   0.19131   0.71910   0.00000  Uiso   1.00
H403   H     0.05454   0.94263   0.41582   0.00000  Uiso   1.00
H404   H     0.42499   0.35956   0.75025   0.00000  Uiso   1.00
H405   H     0.97239   0.23230   0.77199   0.00000  Uiso   1.00
O406   O     0.99318   0.92308   0.28650   0.00000  Uiso   1.00
O407   O     0.47919   0.47008   0.72526   0.00000  Uiso   1.00
O408   O     0.88539   0.30311   0.75378   0.00000  Uiso   1.00
N409   N     0.01248   0.04089   0.34234   0.00000  Uiso   1.00
N410   N     0.35883   0.43068   0.65501   0.00000  Uiso   1.00
N411   N     0.93570   0.31172   0.67534   0.00000  Uiso   1.00
N412   N     0.04627   0.98286   0.40424   0.00000  Uiso   1.00
N413   N     0.39262   0.37266   0.71690   0.00000  Uiso   1.00
N414   N     0.96949   0.25369   0.73724   0.00000  Uiso   1.00
C415   C     0.01455   0.77188   0.68162   0.00000  Uiso   1.00
C416   C     0.96525   0.69675   0.65895   0.00000  Uiso   1.00
C417   C     0.89171   0.67104   0.62486   0.00000  Uiso   1.00
C418   C     0.85622   0.60077   0.60861   0.00000  Uiso   1.00
C419   C     0.77407   0.49065   0.57082   0.00000  Uiso   1.00
C420   C     0.05595   0.79758   0.75798   0.00000  Uiso   1.00
C421   C     0.05868   0.85665   0.80714   0.00000  Uiso   1.00
C422   C     0.09955   0.87127   0.87425   0.00000  Uiso   1.00
C423   C     0.15826   0.91772   0.99020   0.00000  Uiso   1.00
C424   C     0.06888   0.76713   0.64970   0.00000  Uiso   1.00
C425   C     0.08248   0.80061   0.60783   0.00000  Uiso   1.00
C426   C     0.13425   0.78960   0.58378   0.00000  Uiso   1.00
C427   C     0.21302   0.78877   0.53161   0.00000  Uiso   1.00
C428   C     0.08230   0.69281   0.71339   0.00000  Uiso   1.00
C429   C     0.00205   0.65381   0.67621   0.00000  Uiso   1.00
C430   C     0.96667   0.58356   0.66001   0.00000  Uiso   1.00
C431   C     0.89308   0.55774   0.62589   0.00000  Uiso   1.00
C432   C     0.09275   0.75464   0.77524   0.00000  Uiso   1.00
C433   C     0.13363   0.76917   0.84229   0.00000  Uiso   1.00
C434   C     0.13642   0.82824   0.89154   0.00000  Uiso   1.00
C435   C     0.10568   0.72418   0.66695   0.00000  Uiso   1.00
C436   C     0.15744   0.71312   0.64297   0.00000  Uiso   1.00
C437   C     0.17112   0.74657   0.60107   0.00000  Uiso   1.00
H438   H     0.98590   0.80532   0.66819   0.00000  Uiso   1.00
H439   H     0.86325   0.70429   0.61152   0.00000  Uiso   1.00
H440   H     0.03020   0.88988   0.79377   0.00000  Uiso   1.00
H441   H     0.05400   0.83384   0.59448   0.00000  Uiso   1.00
H442   H     0.74349   0.57335   0.55632   0.00000  Uiso   1.00
H443   H     0.09553   0.96469   0.94061   0.00000  Uiso   1.00
H444   H     0.14572   0.84652   0.52038   0.00000  Uiso   1.00
H445   H     0.11095   0.65938   0.72683   0.00000  Uiso   1.00
H446   H     0.99516   0.55033   0.67337   0.00000  Uiso   1.00
H447   H     0.16211   0.73593   0.85563   0.00000  Uiso   1.00
H448   H     0.18591   0.67988   0.65634   0.00000  Uiso   1.00
H449   H     0.85055   0.44839   0.60653   0.00000  Uiso   1.00
H450   H     0.20260   0.83973   0.99082   0.00000  Uiso   1.00
H451   H     0.25278   0.72156   0.57058   0.00000  Uiso   1.00
O452   O     0.71859   0.44178   0.54522   0.00000  Uiso   1.00
O453   O     0.18046   0.95521   0.04939   0.00000  Uiso   1.00
O454   O     0.24630   0.80016   0.49805   0.00000  Uiso   1.00
N455   N     0.78458   0.55890   0.57546   0.00000  Uiso   1.00
N456   N     0.11371   0.92478   0.93475   0.00000  Uiso   1.00
N457   N     0.16064   0.81431   0.54188   0.00000  Uiso   1.00
N458   N     0.84219   0.49166   0.60248   0.00000  Uiso   1.00
N459   N     0.17132   0.85754   0.96177   0.00000  Uiso   1.00
N460   N     0.21825   0.74707   0.56890   0.00000  Uiso   1.00
C461   C     0.71424   0.65205   0.04810   0.00000  Uiso   1.00
C462   C     0.63586   0.63699   0.00818   0.00000  Uiso   1.00
C463   C     0.60033   0.60476   0.93806   0.00000  Uiso   1.00
C464   C     0.52865   0.59575   0.91130   0.00000  Uiso   1.00
C465   C     0.41225   0.56897   0.84293   0.00000  Uiso   1.00
C466   C     0.74723   0.73066   0.09055   0.00000  Uiso   1.00
C467   C     0.80536   0.77718   0.08970   0.00000  Uiso   1.00
C468   C     0.82744   0.84702   0.13230   0.00000  Uiso   1.00
C469   C     0.88399   0.96566   0.19185   0.00000  Uiso   1.00
C470   C     0.71568   0.61684   0.09845   0.00000  Uiso   1.00
C471   C     0.74729   0.56768   0.10426   0.00000  Uiso   1.00
C472   C     0.74283   0.54171   0.15351   0.00000  Uiso   1.00
C473   C     0.75039   0.48362   0.22533   0.00000  Uiso   1.00
C474   C     0.65012   0.69337   0.12526   0.00000  Uiso   1.00
C475   C     0.60104   0.65943   0.05009   0.00000  Uiso   1.00
C476   C     0.52939   0.65046   0.02343   0.00000  Uiso   1.00
C477   C     0.49376   0.61823   0.95328   0.00000  Uiso   1.00
C478   C     0.71241   0.75310   0.13246   0.00000  Uiso   1.00
C479   C     0.73442   0.82289   0.17507   0.00000  Uiso   1.00
C480   C     0.79256   0.86950   0.17428   0.00000  Uiso   1.00
C481   C     0.68086   0.63927   0.14036   0.00000  Uiso   1.00
C482   C     0.67635   0.61338   0.18962   0.00000  Uiso   1.00
C483   C     0.70795   0.56419   0.19550   0.00000  Uiso   1.00
H484   H     0.74135   0.63459   0.01548   0.00000  Uiso   1.00
H485   H     0.62730   0.58741   0.90564   0.00000  Uiso   1.00
H486   H     0.83230   0.75980   0.05727   0.00000  Uiso   1.00
H487   H     0.77424   0.55033   0.07181   0.00000  Uiso   1.00
H488   H     0.48550   0.54501   0.80236   0.00000  Uiso   1.00
H489   H     0.91777   0.90851   0.12208   0.00000  Uiso   1.00
H490   H     0.79534   0.46680   0.15276   0.00000  Uiso   1.00
H491   H     0.62301   0.71084   0.15789   0.00000  Uiso   1.00
H492   H     0.50246   0.66783   0.05587   0.00000  Uiso   1.00
H493   H     0.70746   0.84023   0.20750   0.00000  Uiso   1.00
H494   H     0.64940   0.63076   0.22204   0.00000  Uiso   1.00
H495   H     0.38417   0.61029   0.92429   0.00000  Uiso   1.00
H496   H     0.81645   0.97379   0.24402   0.00000  Uiso   1.00
H497   H     0.69402   0.53208   0.27469   0.00000  Uiso   1.00
O498   O     0.35767   0.54801   0.79364   0.00000  Uiso   1.00
O499   O     0.92480   0.02490   0.21312   0.00000  Uiso   1.00
O500   O     0.76418   0.44538   0.25336   0.00000  Uiso   1.00
N501   N     0.47819   0.56627   0.84505   0.00000  Uiso   1.00
N502   N     0.88233   0.90612   0.14397   0.00000  Uiso   1.00
N503   N     0.76789   0.49316   0.17266   0.00000  Uiso   1.00
N504   N     0.42367   0.60139   0.91067   0.00000  Uiso   1.00
N505   N     0.82781   0.94124   0.20958   0.00000  Uiso   1.00
N506   N     0.71337   0.52829   0.23827   0.00000  Uiso   1.00
C507   C     0.62739   0.06169   0.77244   0.00000  Uiso   1.00
C508   C     0.61167   0.01890   0.69867   0.00000  Uiso   1.00
C509   C     0.57202   0.94788   0.66346   0.00000  Uiso   1.00
C510   C     0.56376   0.91842   0.59633   0.00000  Uiso   1.00
C511   C     0.53477   0.84586   0.48647   0.00000  Uiso   1.00
C512   C     0.70832   0.09512   0.80829   0.00000  Uiso   1.00
C513   C     0.74992   0.08819   0.86525   0.00000  Uiso   1.00
C514   C     0.82301   0.12290   0.89041   0.00000  Uiso   1.00
C515   C     0.94407   0.16871   0.95077   0.00000  Uiso   1.00
C516   C     0.60045   0.12174   0.77157   0.00000  Uiso   1.00
C517   C     0.55136   0.13722   0.79768   0.00000  Uiso   1.00
C518   C     0.53365   0.19436   0.79194   0.00000  Uiso   1.00
C519   C     0.48721   0.28151   0.79529   0.00000  Uiso   1.00
C520   C     0.68322   0.13566   0.71584   0.00000  Uiso   1.00
C521   C     0.64200   0.05908   0.66793   0.00000  Uiso   1.00
C522   C     0.63379   0.02972   0.60084   0.00000  Uiso   1.00
C523   C     0.59413   0.95867   0.56553   0.00000  Uiso   1.00
C524   C     0.73864   0.13529   0.77755   0.00000  Uiso   1.00
C525   C     0.81169   0.17002   0.80263   0.00000  Uiso   1.00
C526   C     0.85339   0.16315   0.85961   0.00000  Uiso   1.00
C527   C     0.63077   0.16192   0.74083   0.00000  Uiso   1.00
C528   C     0.61313   0.21905   0.73506   0.00000  Uiso   1.00
C529   C     0.56403   0.23461   0.76114   0.00000  Uiso   1.00
H530   H     0.60379   0.03041   0.79637   0.00000  Uiso   1.00
H531   H     0.54857   0.91681   0.68727   0.00000  Uiso   1.00
H532   H     0.72644   0.05710   0.88903   0.00000  Uiso   1.00
H533   H     0.52791   0.10612   0.82146   0.00000  Uiso   1.00
H534   H     0.50075   0.80857   0.55275   0.00000  Uiso   1.00
H535   H     0.87579   0.10440   0.97820   0.00000  Uiso   1.00
H536   H     0.45716   0.20777   0.83572   0.00000  Uiso   1.00
H537   H     0.70683   0.16694   0.69191   0.00000  Uiso   1.00
H538   H     0.65726   0.06082   0.57706   0.00000  Uiso   1.00
H539   H     0.83514   0.20111   0.77883   0.00000  Uiso   1.00
H540   H     0.63661   0.25013   0.71126   0.00000  Uiso   1.00
H541   H     0.58897   0.92545   0.46330   0.00000  Uiso   1.00
H542   H     0.96402   0.22129   0.88876   0.00000  Uiso   1.00
H543   H     0.54538   0.32465   0.74628   0.00000  Uiso   1.00
O544   O     0.51041   0.79473   0.43437   0.00000  Uiso   1.00
O545   O     0.00246   0.18286   0.99255   0.00000  Uiso   1.00
O546   O     0.45321   0.31848   0.80562   0.00000  Uiso   1.00
N547   N     0.52830   0.85064   0.54745   0.00000  Uiso   1.00
N548   N     0.87895   0.12722   0.94522   0.00000  Uiso   1.00
N549   N     0.48757   0.22387   0.81203   0.00000  Uiso   1.00
N550   N     0.57577   0.91354   0.49932   0.00000  Uiso   1.00
N551   N     0.92642   0.19011   0.89709   0.00000  Uiso   1.00
N552   N     0.53504   0.28676   0.76390   0.00000  Uiso   1.00
