data_job_04668
_audit_creation_date              2018-12-19
_audit_creation_method            'Materials Studio'
_symmetry_space_group_name_H-M    'P1'
_symmetry_Int_Tables_number       1
_symmetry_cell_setting            triclinic
loop_
_symmetry_equiv_pos_as_xyz
  x,y,z
_cell_length_a                    19.9876
_cell_length_b                    11.6986
_cell_length_c                    12.5143
_cell_angle_alpha                 90.0000
_cell_angle_beta                  101.3685
_cell_angle_gamma                 90.0000
loop_
_atom_site_label
_atom_site_type_symbol
_atom_site_fract_x
_atom_site_fract_y
_atom_site_fract_z
_atom_site_U_iso_or_equiv
_atom_site_adp_type
_atom_site_occupancy
C1     C     0.31288   0.33882   0.51190   0.00000  Uiso   1.00
C2     C     0.32421   0.40363   0.61969   0.00000  Uiso   1.00
C3     C     0.38334   0.40169   0.69933   0.00000  Uiso   1.00
C4     C     0.38357   0.46682   0.79215   0.00000  Uiso   1.00
C5     C     0.40981   0.55757   0.95763   0.00000  Uiso   1.00
C6     C     0.24932   0.26591   0.50911   0.00000  Uiso   1.00
C7     C     0.24547   0.14816   0.49574   0.00000  Uiso   1.00
C8     C     0.18266   0.09736   0.49545   0.00000  Uiso   1.00
C9     C     0.09261   0.97429   0.48916   0.00000  Uiso   1.00
C10    C     0.29335   0.42855   0.42283   0.00000  Uiso   1.00
C11    C     0.32652   0.44754   0.33690   0.00000  Uiso   1.00
C12    C     0.30076   0.53366   0.26396   0.00000  Uiso   1.00
C13    C     0.27908   0.66312   0.12371   0.00000  Uiso   1.00
C14    C     0.20816   0.45795   0.53513   0.00000  Uiso   1.00
C15    C     0.26733   0.46834   0.63231   0.00000  Uiso   1.00
C16    C     0.26748   0.53349   0.72503   0.00000  Uiso   1.00
C17    C     0.32659   0.53165   0.80479   0.00000  Uiso   1.00
C18    C     0.19244   0.33061   0.52172   0.00000  Uiso   1.00
C19    C     0.12962   0.27997   0.52144   0.00000  Uiso   1.00
C20    C     0.12568   0.16218   0.50809   0.00000  Uiso   1.00
C21    C     0.23647   0.49326   0.43545   0.00000  Uiso   1.00
C22    C     0.21066   0.57935   0.36261   0.00000  Uiso   1.00
C23    C     0.24378   0.59848   0.27660   0.00000  Uiso   1.00
H24    H     0.35716   0.28844   0.50208   0.00000  Uiso   1.00
H25    H     0.42734   0.35159   0.68954   0.00000  Uiso   1.00
H26    H     0.28950   0.09811   0.48597   0.00000  Uiso   1.00
H27    H     0.37053   0.39745   0.32717   0.00000  Uiso   1.00
H28    H     0.48006   0.45011   0.90295   0.00000  Uiso   1.00
H29    H     0.18940   0.91564   0.47369   0.00000  Uiso   1.00
H30    H     0.36027   0.54685   0.13881   0.00000  Uiso   1.00
H31    H     0.16388   0.50833   0.54495   0.00000  Uiso   1.00
H32    H     0.22345   0.58356   0.73477   0.00000  Uiso   1.00
H33    H     0.08561   0.33007   0.53121   0.00000  Uiso   1.00
H34    H     0.16664   0.62941   0.37240   0.00000  Uiso   1.00
H35    H     0.31457   0.63838   0.93967   0.00000  Uiso   1.00
H36    H     0.02391   0.10390   0.51040   0.00000  Uiso   1.00
H37    H     0.19479   0.73512   0.17553   0.00000  Uiso   1.00
O38    O     0.43998   0.58973   0.04542   0.00000  Uiso   1.00
O39    O     0.05865   0.88853   0.48222   0.00000  Uiso   1.00
O40    O     0.28283   0.71667   0.04288   0.00000  Uiso   1.00
N41    N     0.43294   0.48412   0.88554   0.00000  Uiso   1.00
N42    N     0.16119   0.98441   0.48421   0.00000  Uiso   1.00
N43    N     0.32094   0.57452   0.17112   0.00000  Uiso   1.00
N44    N     0.34389   0.58542   0.90529   0.00000  Uiso   1.00
N45    N     0.07215   0.08572   0.50397   0.00000  Uiso   1.00
N46    N     0.23189   0.67583   0.19087   0.00000  Uiso   1.00
C47    C     0.68712   0.83882   0.98810   0.00000  Uiso   1.00
C48    C     0.67579   0.90363   0.88031   0.00000  Uiso   1.00
C49    C     0.61666   0.90169   0.80067   0.00000  Uiso   1.00
C50    C     0.61643   0.96682   0.70785   0.00000  Uiso   1.00
C51    C     0.59019   0.05757   0.54237   0.00000  Uiso   1.00
C52    C     0.75068   0.76591   0.99089   0.00000  Uiso   1.00
C53    C     0.75453   0.64816   0.00426   0.00000  Uiso   1.00
C54    C     0.81734   0.59736   0.00455   0.00000  Uiso   1.00
C55    C     0.90739   0.47429   0.01084   0.00000  Uiso   1.00
C56    C     0.70665   0.92855   0.07717   0.00000  Uiso   1.00
C57    C     0.67348   0.94754   0.16310   0.00000  Uiso   1.00
C58    C     0.69924   0.03366   0.23604   0.00000  Uiso   1.00
C59    C     0.72092   0.16312   0.37629   0.00000  Uiso   1.00
C60    C     0.79184   0.95795   0.96487   0.00000  Uiso   1.00
C61    C     0.73267   0.96834   0.86769   0.00000  Uiso   1.00
C62    C     0.73252   0.03349   0.77497   0.00000  Uiso   1.00
C63    C     0.67341   0.03165   0.69521   0.00000  Uiso   1.00
C64    C     0.80756   0.83061   0.97828   0.00000  Uiso   1.00
C65    C     0.87038   0.77997   0.97856   0.00000  Uiso   1.00
C66    C     0.87432   0.66218   0.99191   0.00000  Uiso   1.00
C67    C     0.76353   0.99326   0.06455   0.00000  Uiso   1.00
C68    C     0.78934   0.07935   0.13739   0.00000  Uiso   1.00
C69    C     0.75622   0.09848   0.22340   0.00000  Uiso   1.00
H70    H     0.64284   0.78844   0.99792   0.00000  Uiso   1.00
H71    H     0.57266   0.85159   0.81046   0.00000  Uiso   1.00
H72    H     0.71050   0.59811   0.01403   0.00000  Uiso   1.00
H73    H     0.62947   0.89745   0.17283   0.00000  Uiso   1.00
H74    H     0.51994   0.95011   0.59705   0.00000  Uiso   1.00
H75    H     0.81060   0.41564   0.02631   0.00000  Uiso   1.00
H76    H     0.63973   0.04685   0.36119   0.00000  Uiso   1.00
H77    H     0.83612   0.00833   0.95505   0.00000  Uiso   1.00
H78    H     0.77655   0.08356   0.76523   0.00000  Uiso   1.00
H79    H     0.91439   0.83007   0.96879   0.00000  Uiso   1.00
H80    H     0.83336   0.12941   0.12760   0.00000  Uiso   1.00
H81    H     0.68543   0.13838   0.56033   0.00000  Uiso   1.00
H82    H     0.97609   0.60390   0.98960   0.00000  Uiso   1.00
H83    H     0.80521   0.23512   0.32447   0.00000  Uiso   1.00
O84    O     0.56002   0.08973   0.45458   0.00000  Uiso   1.00
O85    O     0.94135   0.38853   0.01778   0.00000  Uiso   1.00
O86    O     0.71717   0.21667   0.45712   0.00000  Uiso   1.00
N87    N     0.56706   0.98412   0.61446   0.00000  Uiso   1.00
N88    N     0.83881   0.48441   0.01579   0.00000  Uiso   1.00
N89    N     0.67906   0.07452   0.32888   0.00000  Uiso   1.00
N90    N     0.65611   0.08542   0.59471   0.00000  Uiso   1.00
N91    N     0.92785   0.58572   0.99603   0.00000  Uiso   1.00
N92    N     0.76811   0.17583   0.30913   0.00000  Uiso   1.00
C93    C     0.68712   0.66118   0.48810   0.00000  Uiso   1.00
C94    C     0.67579   0.59637   0.38031   0.00000  Uiso   1.00
C95    C     0.61666   0.59831   0.30067   0.00000  Uiso   1.00
C96    C     0.61643   0.53318   0.20785   0.00000  Uiso   1.00
C97    C     0.59019   0.44243   0.04237   0.00000  Uiso   1.00
C98    C     0.75068   0.73409   0.49089   0.00000  Uiso   1.00
C99    C     0.75453   0.85184   0.50426   0.00000  Uiso   1.00
C100   C     0.81734   0.90264   0.50455   0.00000  Uiso   1.00
C101   C     0.90739   0.02571   0.51084   0.00000  Uiso   1.00
C102   C     0.70665   0.57145   0.57717   0.00000  Uiso   1.00
C103   C     0.67348   0.55246   0.66310   0.00000  Uiso   1.00
C104   C     0.69924   0.46634   0.73604   0.00000  Uiso   1.00
C105   C     0.72092   0.33688   0.87629   0.00000  Uiso   1.00
C106   C     0.79184   0.54205   0.46487   0.00000  Uiso   1.00
C107   C     0.73267   0.53166   0.36769   0.00000  Uiso   1.00
C108   C     0.73252   0.46651   0.27497   0.00000  Uiso   1.00
C109   C     0.67341   0.46835   0.19521   0.00000  Uiso   1.00
C110   C     0.80756   0.66939   0.47828   0.00000  Uiso   1.00
C111   C     0.87038   0.72003   0.47856   0.00000  Uiso   1.00
C112   C     0.87432   0.83782   0.49191   0.00000  Uiso   1.00
C113   C     0.76353   0.50674   0.56455   0.00000  Uiso   1.00
C114   C     0.78934   0.42065   0.63739   0.00000  Uiso   1.00
C115   C     0.75622   0.40152   0.72340   0.00000  Uiso   1.00
H116   H     0.64284   0.71156   0.49792   0.00000  Uiso   1.00
H117   H     0.57266   0.64841   0.31046   0.00000  Uiso   1.00
H118   H     0.71050   0.90189   0.51403   0.00000  Uiso   1.00
H119   H     0.62947   0.60255   0.67283   0.00000  Uiso   1.00
H120   H     0.51994   0.54989   0.09705   0.00000  Uiso   1.00
H121   H     0.81060   0.08436   0.52631   0.00000  Uiso   1.00
H122   H     0.63973   0.45315   0.86119   0.00000  Uiso   1.00
H123   H     0.83612   0.49167   0.45505   0.00000  Uiso   1.00
H124   H     0.77655   0.41644   0.26523   0.00000  Uiso   1.00
H125   H     0.91439   0.66993   0.46879   0.00000  Uiso   1.00
H126   H     0.83336   0.37059   0.62760   0.00000  Uiso   1.00
H127   H     0.68543   0.36162   0.06033   0.00000  Uiso   1.00
H128   H     0.97609   0.89610   0.48960   0.00000  Uiso   1.00
H129   H     0.80521   0.26488   0.82447   0.00000  Uiso   1.00
O130   O     0.56002   0.41027   0.95458   0.00000  Uiso   1.00
O131   O     0.94135   0.11147   0.51778   0.00000  Uiso   1.00
O132   O     0.71717   0.28333   0.95712   0.00000  Uiso   1.00
N133   N     0.56706   0.51588   0.11446   0.00000  Uiso   1.00
N134   N     0.83881   0.01559   0.51579   0.00000  Uiso   1.00
N135   N     0.67906   0.42548   0.82888   0.00000  Uiso   1.00
N136   N     0.65611   0.41458   0.09471   0.00000  Uiso   1.00
N137   N     0.92785   0.91428   0.49603   0.00000  Uiso   1.00
N138   N     0.76811   0.32417   0.80913   0.00000  Uiso   1.00
C139   C     0.31288   0.16118   0.01190   0.00000  Uiso   1.00
C140   C     0.32421   0.09637   0.11969   0.00000  Uiso   1.00
C141   C     0.38334   0.09831   0.19933   0.00000  Uiso   1.00
C142   C     0.38357   0.03318   0.29215   0.00000  Uiso   1.00
C143   C     0.40981   0.94243   0.45763   0.00000  Uiso   1.00
C144   C     0.24932   0.23409   0.00911   0.00000  Uiso   1.00
C145   C     0.24547   0.35184   0.99574   0.00000  Uiso   1.00
C146   C     0.18266   0.40264   0.99545   0.00000  Uiso   1.00
C147   C     0.09261   0.52571   0.98916   0.00000  Uiso   1.00
C148   C     0.29335   0.07145   0.92283   0.00000  Uiso   1.00
C149   C     0.32652   0.05246   0.83690   0.00000  Uiso   1.00
C150   C     0.30076   0.96634   0.76396   0.00000  Uiso   1.00
C151   C     0.27908   0.83688   0.62371   0.00000  Uiso   1.00
C152   C     0.20816   0.04205   0.03513   0.00000  Uiso   1.00
C153   C     0.26733   0.03166   0.13231   0.00000  Uiso   1.00
C154   C     0.26748   0.96651   0.22503   0.00000  Uiso   1.00
C155   C     0.32659   0.96835   0.30479   0.00000  Uiso   1.00
C156   C     0.19244   0.16939   0.02172   0.00000  Uiso   1.00
C157   C     0.12962   0.22003   0.02144   0.00000  Uiso   1.00
C158   C     0.12568   0.33782   0.00809   0.00000  Uiso   1.00
C159   C     0.23647   0.00674   0.93545   0.00000  Uiso   1.00
C160   C     0.21066   0.92065   0.86261   0.00000  Uiso   1.00
C161   C     0.24378   0.90152   0.77660   0.00000  Uiso   1.00
H162   H     0.35716   0.21156   0.00208   0.00000  Uiso   1.00
H163   H     0.42734   0.14841   0.18954   0.00000  Uiso   1.00
H164   H     0.28950   0.40189   0.98597   0.00000  Uiso   1.00
H165   H     0.37053   0.10255   0.82717   0.00000  Uiso   1.00
H166   H     0.48006   0.04989   0.40295   0.00000  Uiso   1.00
H167   H     0.18940   0.58436   0.97369   0.00000  Uiso   1.00
H168   H     0.36027   0.95315   0.63881   0.00000  Uiso   1.00
H169   H     0.16388   0.99167   0.04495   0.00000  Uiso   1.00
H170   H     0.22345   0.91644   0.23477   0.00000  Uiso   1.00
H171   H     0.08561   0.16993   0.03121   0.00000  Uiso   1.00
H172   H     0.16664   0.87059   0.87240   0.00000  Uiso   1.00
H173   H     0.31457   0.86162   0.43967   0.00000  Uiso   1.00
H174   H     0.02391   0.39610   0.01040   0.00000  Uiso   1.00
H175   H     0.19479   0.76488   0.67553   0.00000  Uiso   1.00
O176   O     0.43998   0.91027   0.54542   0.00000  Uiso   1.00
O177   O     0.05865   0.61147   0.98222   0.00000  Uiso   1.00
O178   O     0.28283   0.78333   0.54288   0.00000  Uiso   1.00
N179   N     0.43294   0.01588   0.38554   0.00000  Uiso   1.00
N180   N     0.16119   0.51559   0.98421   0.00000  Uiso   1.00
N181   N     0.32094   0.92548   0.67112   0.00000  Uiso   1.00
N182   N     0.34389   0.91458   0.40529   0.00000  Uiso   1.00
N183   N     0.07215   0.41428   0.00397   0.00000  Uiso   1.00
N184   N     0.23189   0.82417   0.69087   0.00000  Uiso   1.00
