data_job_03951
_audit_creation_date              2018-12-19
_audit_creation_method            'Materials Studio'
_symmetry_space_group_name_H-M    'P1'
_symmetry_Int_Tables_number       1
_symmetry_cell_setting            triclinic
loop_
_symmetry_equiv_pos_as_xyz
  x,y,z
_cell_length_a                    22.6448
_cell_length_b                    22.6448
_cell_length_c                    11.7067
_cell_angle_alpha                 90.0000
_cell_angle_beta                  90.0000
_cell_angle_gamma                 90.0000
loop_
_atom_site_label
_atom_site_type_symbol
_atom_site_fract_x
_atom_site_fract_y
_atom_site_fract_z
_atom_site_U_iso_or_equiv
_atom_site_adp_type
_atom_site_occupancy
C1     C     0.63364   0.16670   0.61610   0.00000  Uiso   1.00
C2     C     0.67514   0.20580   0.54678   0.00000  Uiso   1.00
C3     C     0.73176   0.22246   0.57868   0.00000  Uiso   1.00
C4     C     0.76262   0.25841   0.50343   0.00000  Uiso   1.00
C5     C     0.83084   0.31631   0.41155   0.00000  Uiso   1.00
C6     C     0.57723   0.20247   0.63282   0.00000  Uiso   1.00
C7     C     0.55154   0.21632   0.73706   0.00000  Uiso   1.00
C8     C     0.49998   0.24947   0.73422   0.00000  Uiso   1.00
C9     C     0.41618   0.30215   0.77591   0.00000  Uiso   1.00
C10    C     0.61709   0.11532   0.53825   0.00000  Uiso   1.00
C11    C     0.62489   0.05589   0.56298   0.00000  Uiso   1.00
C12    C     0.60688   0.01566   0.48053   0.00000  Uiso   1.00
C13    C     0.58497   0.93303   0.37538   0.00000  Uiso   1.00
C14    C     0.58775   0.20094   0.42572   0.00000  Uiso   1.00
C15    C     0.65021   0.22439   0.44338   0.00000  Uiso   1.00
C16    C     0.68100   0.26033   0.36805   0.00000  Uiso   1.00
C17    C     0.73766   0.27704   0.39983   0.00000  Uiso   1.00
C18    C     0.55231   0.22106   0.52942   0.00000  Uiso   1.00
C19    C     0.50078   0.25419   0.52642   0.00000  Uiso   1.00
C20    C     0.47501   0.26809   0.63063   0.00000  Uiso   1.00
C21    C     0.59217   0.13391   0.43484   0.00000  Uiso   1.00
C22    C     0.57414   0.09376   0.35234   0.00000  Uiso   1.00
C23    C     0.58191   0.03429   0.37694   0.00000  Uiso   1.00
H24    H     0.65303   0.15223   0.69661   0.00000  Uiso   1.00
H25    H     0.75103   0.20806   0.65872   0.00000  Uiso   1.00
H26    H     0.57083   0.20192   0.81707   0.00000  Uiso   1.00
H27    H     0.64418   0.04152   0.64301   0.00000  Uiso   1.00
H28    H     0.84868   0.27818   0.57113   0.00000  Uiso   1.00
H29    H     0.46870   0.26521   0.90501   0.00000  Uiso   1.00
H30    H     0.62338   0.92697   0.53798   0.00000  Uiso   1.00
H31    H     0.56835   0.21541   0.34521   0.00000  Uiso   1.00
H32    H     0.66170   0.27471   0.28803   0.00000  Uiso   1.00
H33    H     0.48150   0.26857   0.44638   0.00000  Uiso   1.00
H34    H     0.55485   0.10817   0.27233   0.00000  Uiso   1.00
H35    H     0.77618   0.33228   0.27027   0.00000  Uiso   1.00
H36    H     0.39620   0.31930   0.60415   0.00000  Uiso   1.00
H37    H     0.55087   0.98107   0.23711   0.00000  Uiso   1.00
O38    O     0.87536   0.34311   0.38944   0.00000  Uiso   1.00
O39    O     0.37684   0.32608   0.82748   0.00000  Uiso   1.00
O40    O     0.57977   0.88232   0.34594   0.00000  Uiso   1.00
N41    N     0.81881   0.28276   0.50816   0.00000  Uiso   1.00
N42    N     0.46356   0.27064   0.82032   0.00000  Uiso   1.00
N43    N     0.60815   0.95442   0.47719   0.00000  Uiso   1.00
N44    N     0.77979   0.31187   0.34626   0.00000  Uiso   1.00
N45    N     0.42455   0.29975   0.65842   0.00000  Uiso   1.00
N46    N     0.56914   0.98353   0.31529   0.00000  Uiso   1.00
C47    C     0.36636   0.83330   0.61610   0.00000  Uiso   1.00
C48    C     0.32486   0.79420   0.54678   0.00000  Uiso   1.00
C49    C     0.26824   0.77754   0.57868   0.00000  Uiso   1.00
C50    C     0.23738   0.74159   0.50343   0.00000  Uiso   1.00
C51    C     0.16916   0.68369   0.41155   0.00000  Uiso   1.00
C52    C     0.42277   0.79753   0.63282   0.00000  Uiso   1.00
C53    C     0.44846   0.78368   0.73706   0.00000  Uiso   1.00
C54    C     0.50002   0.75053   0.73422   0.00000  Uiso   1.00
C55    C     0.58382   0.69785   0.77591   0.00000  Uiso   1.00
C56    C     0.38291   0.88468   0.53825   0.00000  Uiso   1.00
C57    C     0.37511   0.94411   0.56298   0.00000  Uiso   1.00
C58    C     0.39312   0.98434   0.48053   0.00000  Uiso   1.00
C59    C     0.41503   0.06697   0.37538   0.00000  Uiso   1.00
C60    C     0.41225   0.79906   0.42572   0.00000  Uiso   1.00
C61    C     0.34979   0.77561   0.44338   0.00000  Uiso   1.00
C62    C     0.31900   0.73967   0.36805   0.00000  Uiso   1.00
C63    C     0.26234   0.72296   0.39983   0.00000  Uiso   1.00
C64    C     0.44769   0.77894   0.52942   0.00000  Uiso   1.00
C65    C     0.49922   0.74581   0.52642   0.00000  Uiso   1.00
C66    C     0.52499   0.73191   0.63063   0.00000  Uiso   1.00
C67    C     0.40783   0.86609   0.43484   0.00000  Uiso   1.00
C68    C     0.42586   0.90624   0.35234   0.00000  Uiso   1.00
C69    C     0.41809   0.96571   0.37694   0.00000  Uiso   1.00
H70    H     0.34697   0.84777   0.69661   0.00000  Uiso   1.00
H71    H     0.24897   0.79194   0.65872   0.00000  Uiso   1.00
H72    H     0.42917   0.79808   0.81707   0.00000  Uiso   1.00
H73    H     0.35582   0.95848   0.64301   0.00000  Uiso   1.00
H74    H     0.15132   0.72182   0.57113   0.00000  Uiso   1.00
H75    H     0.53130   0.73479   0.90501   0.00000  Uiso   1.00
H76    H     0.37662   0.07303   0.53798   0.00000  Uiso   1.00
H77    H     0.43165   0.78459   0.34521   0.00000  Uiso   1.00
H78    H     0.33830   0.72529   0.28803   0.00000  Uiso   1.00
H79    H     0.51850   0.73143   0.44638   0.00000  Uiso   1.00
H80    H     0.44515   0.89183   0.27233   0.00000  Uiso   1.00
H81    H     0.22382   0.66772   0.27027   0.00000  Uiso   1.00
H82    H     0.60380   0.68070   0.60415   0.00000  Uiso   1.00
H83    H     0.44913   0.01893   0.23711   0.00000  Uiso   1.00
O84    O     0.12464   0.65689   0.38944   0.00000  Uiso   1.00
O85    O     0.62316   0.67392   0.82748   0.00000  Uiso   1.00
O86    O     0.42023   0.11768   0.34594   0.00000  Uiso   1.00
N87    N     0.18119   0.71724   0.50816   0.00000  Uiso   1.00
N88    N     0.53644   0.72936   0.82032   0.00000  Uiso   1.00
N89    N     0.39185   0.04558   0.47719   0.00000  Uiso   1.00
N90    N     0.22021   0.68813   0.34626   0.00000  Uiso   1.00
N91    N     0.57545   0.70025   0.65842   0.00000  Uiso   1.00
N92    N     0.43086   0.01647   0.31529   0.00000  Uiso   1.00
C93    C     0.33330   0.13364   0.11610   0.00000  Uiso   1.00
C94    C     0.29420   0.17514   0.04678   0.00000  Uiso   1.00
C95    C     0.27754   0.23176   0.07868   0.00000  Uiso   1.00
C96    C     0.24159   0.26262   0.00343   0.00000  Uiso   1.00
C97    C     0.18369   0.33084   0.91155   0.00000  Uiso   1.00
C98    C     0.29753   0.07723   0.13282   0.00000  Uiso   1.00
C99    C     0.28368   0.05154   0.23706   0.00000  Uiso   1.00
C100   C     0.25053   0.99998   0.23422   0.00000  Uiso   1.00
C101   C     0.19785   0.91618   0.27591   0.00000  Uiso   1.00
C102   C     0.38468   0.11709   0.03825   0.00000  Uiso   1.00
C103   C     0.44411   0.12489   0.06298   0.00000  Uiso   1.00
C104   C     0.48434   0.10688   0.98053   0.00000  Uiso   1.00
C105   C     0.56697   0.08497   0.87538   0.00000  Uiso   1.00
C106   C     0.29906   0.08775   0.92572   0.00000  Uiso   1.00
C107   C     0.27561   0.15021   0.94338   0.00000  Uiso   1.00
C108   C     0.23967   0.18100   0.86805   0.00000  Uiso   1.00
C109   C     0.22296   0.23766   0.89983   0.00000  Uiso   1.00
C110   C     0.27894   0.05231   0.02942   0.00000  Uiso   1.00
C111   C     0.24581   0.00078   0.02642   0.00000  Uiso   1.00
C112   C     0.23191   0.97501   0.13063   0.00000  Uiso   1.00
C113   C     0.36609   0.09217   0.93484   0.00000  Uiso   1.00
C114   C     0.40624   0.07414   0.85234   0.00000  Uiso   1.00
C115   C     0.46571   0.08191   0.87694   0.00000  Uiso   1.00
H116   H     0.34777   0.15303   0.19661   0.00000  Uiso   1.00
H117   H     0.29194   0.25103   0.15872   0.00000  Uiso   1.00
H118   H     0.29808   0.07083   0.31707   0.00000  Uiso   1.00
H119   H     0.45848   0.14418   0.14301   0.00000  Uiso   1.00
H120   H     0.22182   0.34868   0.07113   0.00000  Uiso   1.00
H121   H     0.23479   0.96870   0.40501   0.00000  Uiso   1.00
H122   H     0.57303   0.12338   0.03798   0.00000  Uiso   1.00
H123   H     0.28459   0.06835   0.84521   0.00000  Uiso   1.00
H124   H     0.22529   0.16170   0.78803   0.00000  Uiso   1.00
H125   H     0.23143   0.98150   0.94638   0.00000  Uiso   1.00
H126   H     0.39183   0.05485   0.77233   0.00000  Uiso   1.00
H127   H     0.16772   0.27618   0.77027   0.00000  Uiso   1.00
H128   H     0.18070   0.89620   0.10415   0.00000  Uiso   1.00
H129   H     0.51893   0.05087   0.73711   0.00000  Uiso   1.00
O130   O     0.15689   0.37536   0.88944   0.00000  Uiso   1.00
O131   O     0.17392   0.87684   0.32748   0.00000  Uiso   1.00
O132   O     0.61768   0.07977   0.84594   0.00000  Uiso   1.00
N133   N     0.21724   0.31881   0.00816   0.00000  Uiso   1.00
N134   N     0.22936   0.96356   0.32032   0.00000  Uiso   1.00
N135   N     0.54558   0.10815   0.97719   0.00000  Uiso   1.00
N136   N     0.18813   0.27979   0.84626   0.00000  Uiso   1.00
N137   N     0.20025   0.92455   0.15842   0.00000  Uiso   1.00
N138   N     0.51647   0.06914   0.81529   0.00000  Uiso   1.00
C139   C     0.66670   0.86636   0.11610   0.00000  Uiso   1.00
C140   C     0.70580   0.82486   0.04678   0.00000  Uiso   1.00
C141   C     0.72246   0.76824   0.07868   0.00000  Uiso   1.00
C142   C     0.75841   0.73738   0.00343   0.00000  Uiso   1.00
C143   C     0.81631   0.66916   0.91155   0.00000  Uiso   1.00
C144   C     0.70247   0.92277   0.13282   0.00000  Uiso   1.00
C145   C     0.71632   0.94846   0.23706   0.00000  Uiso   1.00
C146   C     0.74947   0.00002   0.23422   0.00000  Uiso   1.00
C147   C     0.80215   0.08382   0.27591   0.00000  Uiso   1.00
C148   C     0.61532   0.88291   0.03825   0.00000  Uiso   1.00
C149   C     0.55589   0.87511   0.06298   0.00000  Uiso   1.00
C150   C     0.51566   0.89312   0.98053   0.00000  Uiso   1.00
C151   C     0.43303   0.91503   0.87538   0.00000  Uiso   1.00
C152   C     0.70094   0.91225   0.92572   0.00000  Uiso   1.00
C153   C     0.72439   0.84979   0.94338   0.00000  Uiso   1.00
C154   C     0.76033   0.81900   0.86805   0.00000  Uiso   1.00
C155   C     0.77704   0.76234   0.89983   0.00000  Uiso   1.00
C156   C     0.72106   0.94769   0.02942   0.00000  Uiso   1.00
C157   C     0.75419   0.99922   0.02642   0.00000  Uiso   1.00
C158   C     0.76809   0.02499   0.13063   0.00000  Uiso   1.00
C159   C     0.63391   0.90783   0.93484   0.00000  Uiso   1.00
C160   C     0.59376   0.92586   0.85234   0.00000  Uiso   1.00
C161   C     0.53429   0.91809   0.87694   0.00000  Uiso   1.00
H162   H     0.65223   0.84697   0.19661   0.00000  Uiso   1.00
H163   H     0.70806   0.74897   0.15872   0.00000  Uiso   1.00
H164   H     0.70192   0.92917   0.31707   0.00000  Uiso   1.00
H165   H     0.54152   0.85582   0.14301   0.00000  Uiso   1.00
H166   H     0.77818   0.65132   0.07113   0.00000  Uiso   1.00
H167   H     0.76521   0.03130   0.40501   0.00000  Uiso   1.00
H168   H     0.42697   0.87662   0.03798   0.00000  Uiso   1.00
H169   H     0.71541   0.93165   0.84521   0.00000  Uiso   1.00
H170   H     0.77471   0.83830   0.78803   0.00000  Uiso   1.00
H171   H     0.76857   0.01850   0.94638   0.00000  Uiso   1.00
H172   H     0.60817   0.94515   0.77233   0.00000  Uiso   1.00
H173   H     0.83228   0.72382   0.77027   0.00000  Uiso   1.00
H174   H     0.81930   0.10380   0.10415   0.00000  Uiso   1.00
H175   H     0.48107   0.94913   0.73711   0.00000  Uiso   1.00
O176   O     0.84311   0.62464   0.88944   0.00000  Uiso   1.00
O177   O     0.82608   0.12316   0.32748   0.00000  Uiso   1.00
O178   O     0.38232   0.92023   0.84594   0.00000  Uiso   1.00
N179   N     0.78276   0.68119   0.00816   0.00000  Uiso   1.00
N180   N     0.77064   0.03644   0.32032   0.00000  Uiso   1.00
N181   N     0.45442   0.89185   0.97719   0.00000  Uiso   1.00
N182   N     0.81187   0.72021   0.84626   0.00000  Uiso   1.00
N183   N     0.79975   0.07545   0.15842   0.00000  Uiso   1.00
N184   N     0.48353   0.93086   0.81529   0.00000  Uiso   1.00
C185   C     0.86636   0.33330   0.88390   0.00000  Uiso   1.00
C186   C     0.82486   0.29420   0.95322   0.00000  Uiso   1.00
C187   C     0.76824   0.27754   0.92132   0.00000  Uiso   1.00
C188   C     0.73738   0.24159   0.99657   0.00000  Uiso   1.00
C189   C     0.66916   0.18369   0.08845   0.00000  Uiso   1.00
C190   C     0.92277   0.29753   0.86718   0.00000  Uiso   1.00
C191   C     0.94846   0.28368   0.76294   0.00000  Uiso   1.00
C192   C     0.00002   0.25053   0.76578   0.00000  Uiso   1.00
C193   C     0.08382   0.19785   0.72409   0.00000  Uiso   1.00
C194   C     0.88291   0.38468   0.96175   0.00000  Uiso   1.00
C195   C     0.87511   0.44411   0.93702   0.00000  Uiso   1.00
C196   C     0.89312   0.48434   0.01947   0.00000  Uiso   1.00
C197   C     0.91503   0.56697   0.12462   0.00000  Uiso   1.00
C198   C     0.91225   0.29906   0.07428   0.00000  Uiso   1.00
C199   C     0.84979   0.27561   0.05662   0.00000  Uiso   1.00
C200   C     0.81900   0.23967   0.13195   0.00000  Uiso   1.00
C201   C     0.76234   0.22296   0.10017   0.00000  Uiso   1.00
C202   C     0.94769   0.27894   0.97058   0.00000  Uiso   1.00
C203   C     0.99922   0.24581   0.97358   0.00000  Uiso   1.00
C204   C     0.02499   0.23191   0.86937   0.00000  Uiso   1.00
C205   C     0.90783   0.36609   0.06516   0.00000  Uiso   1.00
C206   C     0.92586   0.40624   0.14766   0.00000  Uiso   1.00
C207   C     0.91809   0.46571   0.12306   0.00000  Uiso   1.00
H208   H     0.84697   0.34777   0.80339   0.00000  Uiso   1.00
H209   H     0.74897   0.29194   0.84128   0.00000  Uiso   1.00
H210   H     0.92917   0.29808   0.68293   0.00000  Uiso   1.00
H211   H     0.85582   0.45848   0.85699   0.00000  Uiso   1.00
H212   H     0.65132   0.22182   0.92887   0.00000  Uiso   1.00
H213   H     0.03130   0.23479   0.59499   0.00000  Uiso   1.00
H214   H     0.87662   0.57303   0.96202   0.00000  Uiso   1.00
H215   H     0.93165   0.28459   0.15479   0.00000  Uiso   1.00
H216   H     0.83830   0.22529   0.21197   0.00000  Uiso   1.00
H217   H     0.01850   0.23143   0.05362   0.00000  Uiso   1.00
H218   H     0.94515   0.39183   0.22767   0.00000  Uiso   1.00
H219   H     0.72382   0.16772   0.22973   0.00000  Uiso   1.00
H220   H     0.10380   0.18070   0.89585   0.00000  Uiso   1.00
H221   H     0.94913   0.51893   0.26289   0.00000  Uiso   1.00
O222   O     0.62464   0.15689   0.11056   0.00000  Uiso   1.00
O223   O     0.12316   0.17392   0.67252   0.00000  Uiso   1.00
O224   O     0.92023   0.61768   0.15406   0.00000  Uiso   1.00
N225   N     0.68119   0.21724   0.99184   0.00000  Uiso   1.00
N226   N     0.03644   0.22936   0.67968   0.00000  Uiso   1.00
N227   N     0.89185   0.54558   0.02281   0.00000  Uiso   1.00
N228   N     0.72021   0.18813   0.15374   0.00000  Uiso   1.00
N229   N     0.07545   0.20025   0.84158   0.00000  Uiso   1.00
N230   N     0.93086   0.51647   0.18471   0.00000  Uiso   1.00
C231   C     0.13364   0.66670   0.88390   0.00000  Uiso   1.00
C232   C     0.17514   0.70580   0.95322   0.00000  Uiso   1.00
C233   C     0.23176   0.72246   0.92132   0.00000  Uiso   1.00
C234   C     0.26262   0.75841   0.99657   0.00000  Uiso   1.00
C235   C     0.33084   0.81631   0.08845   0.00000  Uiso   1.00
C236   C     0.07723   0.70247   0.86718   0.00000  Uiso   1.00
C237   C     0.05154   0.71632   0.76294   0.00000  Uiso   1.00
C238   C     0.99998   0.74947   0.76578   0.00000  Uiso   1.00
C239   C     0.91618   0.80215   0.72409   0.00000  Uiso   1.00
C240   C     0.11709   0.61532   0.96175   0.00000  Uiso   1.00
C241   C     0.12489   0.55589   0.93702   0.00000  Uiso   1.00
C242   C     0.10688   0.51566   0.01947   0.00000  Uiso   1.00
C243   C     0.08497   0.43303   0.12462   0.00000  Uiso   1.00
C244   C     0.08775   0.70094   0.07428   0.00000  Uiso   1.00
C245   C     0.15021   0.72439   0.05662   0.00000  Uiso   1.00
C246   C     0.18100   0.76033   0.13195   0.00000  Uiso   1.00
C247   C     0.23766   0.77704   0.10017   0.00000  Uiso   1.00
C248   C     0.05231   0.72106   0.97058   0.00000  Uiso   1.00
C249   C     0.00078   0.75419   0.97358   0.00000  Uiso   1.00
C250   C     0.97501   0.76809   0.86937   0.00000  Uiso   1.00
C251   C     0.09217   0.63391   0.06516   0.00000  Uiso   1.00
C252   C     0.07414   0.59376   0.14766   0.00000  Uiso   1.00
C253   C     0.08191   0.53429   0.12306   0.00000  Uiso   1.00
H254   H     0.15303   0.65223   0.80339   0.00000  Uiso   1.00
H255   H     0.25103   0.70806   0.84128   0.00000  Uiso   1.00
H256   H     0.07083   0.70192   0.68293   0.00000  Uiso   1.00
H257   H     0.14418   0.54152   0.85699   0.00000  Uiso   1.00
H258   H     0.34868   0.77818   0.92887   0.00000  Uiso   1.00
H259   H     0.96870   0.76521   0.59499   0.00000  Uiso   1.00
H260   H     0.12338   0.42697   0.96202   0.00000  Uiso   1.00
H261   H     0.06835   0.71541   0.15479   0.00000  Uiso   1.00
H262   H     0.16170   0.77471   0.21197   0.00000  Uiso   1.00
H263   H     0.98150   0.76857   0.05362   0.00000  Uiso   1.00
H264   H     0.05485   0.60817   0.22767   0.00000  Uiso   1.00
H265   H     0.27618   0.83228   0.22973   0.00000  Uiso   1.00
H266   H     0.89620   0.81930   0.89585   0.00000  Uiso   1.00
H267   H     0.05087   0.48107   0.26289   0.00000  Uiso   1.00
O268   O     0.37536   0.84311   0.11056   0.00000  Uiso   1.00
O269   O     0.87684   0.82608   0.67252   0.00000  Uiso   1.00
O270   O     0.07977   0.38232   0.15406   0.00000  Uiso   1.00
N271   N     0.31881   0.78276   0.99184   0.00000  Uiso   1.00
N272   N     0.96356   0.77064   0.67968   0.00000  Uiso   1.00
N273   N     0.10815   0.45442   0.02281   0.00000  Uiso   1.00
N274   N     0.27979   0.81187   0.15374   0.00000  Uiso   1.00
N275   N     0.92455   0.79975   0.84158   0.00000  Uiso   1.00
N276   N     0.06914   0.48353   0.18471   0.00000  Uiso   1.00
C277   C     0.16670   0.36636   0.38390   0.00000  Uiso   1.00
C278   C     0.20580   0.32486   0.45322   0.00000  Uiso   1.00
C279   C     0.22246   0.26824   0.42132   0.00000  Uiso   1.00
C280   C     0.25841   0.23738   0.49657   0.00000  Uiso   1.00
C281   C     0.31631   0.16916   0.58845   0.00000  Uiso   1.00
C282   C     0.20247   0.42277   0.36718   0.00000  Uiso   1.00
C283   C     0.21632   0.44846   0.26294   0.00000  Uiso   1.00
C284   C     0.24947   0.50002   0.26578   0.00000  Uiso   1.00
C285   C     0.30215   0.58382   0.22409   0.00000  Uiso   1.00
C286   C     0.11532   0.38291   0.46175   0.00000  Uiso   1.00
C287   C     0.05589   0.37511   0.43702   0.00000  Uiso   1.00
C288   C     0.01566   0.39312   0.51947   0.00000  Uiso   1.00
C289   C     0.93303   0.41503   0.62462   0.00000  Uiso   1.00
C290   C     0.20094   0.41225   0.57428   0.00000  Uiso   1.00
C291   C     0.22439   0.34979   0.55662   0.00000  Uiso   1.00
C292   C     0.26033   0.31900   0.63195   0.00000  Uiso   1.00
C293   C     0.27704   0.26234   0.60017   0.00000  Uiso   1.00
C294   C     0.22106   0.44769   0.47058   0.00000  Uiso   1.00
C295   C     0.25419   0.49922   0.47358   0.00000  Uiso   1.00
C296   C     0.26809   0.52499   0.36937   0.00000  Uiso   1.00
C297   C     0.13391   0.40783   0.56516   0.00000  Uiso   1.00
C298   C     0.09376   0.42586   0.64766   0.00000  Uiso   1.00
C299   C     0.03429   0.41809   0.62306   0.00000  Uiso   1.00
H300   H     0.15223   0.34697   0.30339   0.00000  Uiso   1.00
H301   H     0.20806   0.24897   0.34128   0.00000  Uiso   1.00
H302   H     0.20192   0.42917   0.18293   0.00000  Uiso   1.00
H303   H     0.04152   0.35582   0.35699   0.00000  Uiso   1.00
H304   H     0.27818   0.15132   0.42887   0.00000  Uiso   1.00
H305   H     0.26521   0.53130   0.09499   0.00000  Uiso   1.00
H306   H     0.92697   0.37662   0.46202   0.00000  Uiso   1.00
H307   H     0.21541   0.43165   0.65479   0.00000  Uiso   1.00
H308   H     0.27471   0.33830   0.71197   0.00000  Uiso   1.00
H309   H     0.26857   0.51850   0.55362   0.00000  Uiso   1.00
H310   H     0.10817   0.44515   0.72767   0.00000  Uiso   1.00
H311   H     0.33228   0.22382   0.72973   0.00000  Uiso   1.00
H312   H     0.31930   0.60380   0.39585   0.00000  Uiso   1.00
H313   H     0.98107   0.44913   0.76289   0.00000  Uiso   1.00
O314   O     0.34311   0.12464   0.61056   0.00000  Uiso   1.00
O315   O     0.32608   0.62316   0.17252   0.00000  Uiso   1.00
O316   O     0.88232   0.42023   0.65406   0.00000  Uiso   1.00
N317   N     0.28276   0.18119   0.49184   0.00000  Uiso   1.00
N318   N     0.27064   0.53644   0.17968   0.00000  Uiso   1.00
N319   N     0.95442   0.39185   0.52281   0.00000  Uiso   1.00
N320   N     0.31187   0.22021   0.65374   0.00000  Uiso   1.00
N321   N     0.29975   0.57545   0.34158   0.00000  Uiso   1.00
N322   N     0.98353   0.43086   0.68471   0.00000  Uiso   1.00
C323   C     0.83330   0.63364   0.38390   0.00000  Uiso   1.00
C324   C     0.79420   0.67514   0.45322   0.00000  Uiso   1.00
C325   C     0.77754   0.73176   0.42132   0.00000  Uiso   1.00
C326   C     0.74159   0.76262   0.49657   0.00000  Uiso   1.00
C327   C     0.68369   0.83084   0.58845   0.00000  Uiso   1.00
C328   C     0.79753   0.57723   0.36718   0.00000  Uiso   1.00
C329   C     0.78368   0.55154   0.26294   0.00000  Uiso   1.00
C330   C     0.75053   0.49998   0.26578   0.00000  Uiso   1.00
C331   C     0.69785   0.41618   0.22409   0.00000  Uiso   1.00
C332   C     0.88468   0.61709   0.46175   0.00000  Uiso   1.00
C333   C     0.94411   0.62489   0.43702   0.00000  Uiso   1.00
C334   C     0.98434   0.60688   0.51947   0.00000  Uiso   1.00
C335   C     0.06697   0.58497   0.62462   0.00000  Uiso   1.00
C336   C     0.79906   0.58775   0.57428   0.00000  Uiso   1.00
C337   C     0.77561   0.65021   0.55662   0.00000  Uiso   1.00
C338   C     0.73967   0.68100   0.63195   0.00000  Uiso   1.00
C339   C     0.72296   0.73766   0.60017   0.00000  Uiso   1.00
C340   C     0.77894   0.55231   0.47058   0.00000  Uiso   1.00
C341   C     0.74581   0.50078   0.47358   0.00000  Uiso   1.00
C342   C     0.73191   0.47501   0.36937   0.00000  Uiso   1.00
C343   C     0.86609   0.59217   0.56516   0.00000  Uiso   1.00
C344   C     0.90624   0.57414   0.64766   0.00000  Uiso   1.00
C345   C     0.96571   0.58191   0.62306   0.00000  Uiso   1.00
H346   H     0.84777   0.65303   0.30339   0.00000  Uiso   1.00
H347   H     0.79194   0.75103   0.34128   0.00000  Uiso   1.00
H348   H     0.79808   0.57083   0.18293   0.00000  Uiso   1.00
H349   H     0.95848   0.64418   0.35699   0.00000  Uiso   1.00
H350   H     0.72182   0.84868   0.42887   0.00000  Uiso   1.00
H351   H     0.73479   0.46870   0.09499   0.00000  Uiso   1.00
H352   H     0.07303   0.62338   0.46202   0.00000  Uiso   1.00
H353   H     0.78459   0.56835   0.65479   0.00000  Uiso   1.00
H354   H     0.72529   0.66170   0.71197   0.00000  Uiso   1.00
H355   H     0.73143   0.48150   0.55362   0.00000  Uiso   1.00
H356   H     0.89183   0.55485   0.72767   0.00000  Uiso   1.00
H357   H     0.66772   0.77618   0.72973   0.00000  Uiso   1.00
H358   H     0.68070   0.39620   0.39585   0.00000  Uiso   1.00
H359   H     0.01893   0.55087   0.76289   0.00000  Uiso   1.00
O360   O     0.65689   0.87536   0.61056   0.00000  Uiso   1.00
O361   O     0.67392   0.37684   0.17252   0.00000  Uiso   1.00
O362   O     0.11768   0.57977   0.65406   0.00000  Uiso   1.00
N363   N     0.71724   0.81881   0.49184   0.00000  Uiso   1.00
N364   N     0.72936   0.46356   0.17968   0.00000  Uiso   1.00
N365   N     0.04558   0.60815   0.52281   0.00000  Uiso   1.00
N366   N     0.68813   0.77979   0.65374   0.00000  Uiso   1.00
N367   N     0.70025   0.42455   0.34158   0.00000  Uiso   1.00
N368   N     0.01647   0.56914   0.68471   0.00000  Uiso   1.00
