data_job_02956
_audit_creation_date              2018-12-19
_audit_creation_method            'Materials Studio'
_symmetry_space_group_name_H-M    'P1'
_symmetry_Int_Tables_number       1
_symmetry_cell_setting            triclinic
loop_
_symmetry_equiv_pos_as_xyz
  x,y,z
_cell_length_a                    43.8638
_cell_length_b                    7.6292
_cell_length_c                    43.7527
_cell_angle_alpha                 90.0000
_cell_angle_beta                  149.4895
_cell_angle_gamma                 90.0000
loop_
_atom_site_label
_atom_site_type_symbol
_atom_site_fract_x
_atom_site_fract_y
_atom_site_fract_z
_atom_site_U_iso_or_equiv
_atom_site_adp_type
_atom_site_occupancy
C1     C     0.86276   0.77645   0.93841   0.00000  Uiso   1.00
C2     C     0.84034   0.77472   0.95199   0.00000  Uiso   1.00
C3     C     0.85077   0.90412   0.98265   0.00000  Uiso   1.00
C4     C     0.82642   0.87812   0.99048   0.00000  Uiso   1.00
C5     C     0.79675   0.89821   0.01493   0.00000  Uiso   1.00
C6     C     0.89849   0.60762   0.96512   0.00000  Uiso   1.00
C7     C     0.95780   0.59652   0.00681   0.00000  Uiso   1.00
C8     C     0.98240   0.42984   0.02569   0.00000  Uiso   1.00
C9     C     0.04298   0.19050   0.07050   0.00000  Uiso   1.00
C10    C     0.80710   0.75767   0.87031   0.00000  Uiso   1.00
C11    C     0.78958   0.87272   0.83228   0.00000  Uiso   1.00
C12    C     0.73724   0.83236   0.77133   0.00000  Uiso   1.00
C13    C     0.65593   0.82601   0.66893   0.00000  Uiso   1.00
C14    C     0.80096   0.50017   0.89779   0.00000  Uiso   1.00
C15    C     0.80678   0.62465   0.92992   0.00000  Uiso   1.00
C16    C     0.78241   0.59844   0.93771   0.00000  Uiso   1.00
C17    C     0.79280   0.72778   0.96837   0.00000  Uiso   1.00
C18    C     0.86493   0.45755   0.94306   0.00000  Uiso   1.00
C19    C     0.88944   0.29085   0.96187   0.00000  Uiso   1.00
C20    C     0.94877   0.27950   0.00358   0.00000  Uiso   1.00
C21    C     0.77353   0.60761   0.84824   0.00000  Uiso   1.00
C22    C     0.72121   0.56705   0.78734   0.00000  Uiso   1.00
C23    C     0.70362   0.68202   0.74923   0.00000  Uiso   1.00
H24    H     0.88889   0.89328   0.95559   0.00000  Uiso   1.00
H25    H     0.87675   0.02023   0.99972   0.00000  Uiso   1.00
H26    H     0.98376   0.71268   0.02387   0.00000  Uiso   1.00
H27    H     0.81556   0.98884   0.84937   0.00000  Uiso   1.00
H28    H     0.84852   0.09477   0.03893   0.00000  Uiso   1.00
H29    H     0.07414   0.44628   0.08985   0.00000  Uiso   1.00
H30    H     0.71947   0.02862   0.72187   0.00000  Uiso   1.00
H31    H     0.77484   0.38332   0.88062   0.00000  Uiso   1.00
H32    H     0.75644   0.48230   0.92063   0.00000  Uiso   1.00
H33    H     0.86345   0.17474   0.94478   0.00000  Uiso   1.00
H34    H     0.69525   0.45091   0.77028   0.00000  Uiso   1.00
H35    H     0.75087   0.65816   0.97474   0.00000  Uiso   1.00
H36    H     0.97650   0.00966   0.02565   0.00000  Uiso   1.00
H37    H     0.62182   0.59200   0.65768   0.00000  Uiso   1.00
O38    O     0.78967   0.95074   0.03453   0.00000  Uiso   1.00
O39    O     0.08568   0.09995   0.10132   0.00000  Uiso   1.00
O40    O     0.62035   0.86397   0.61854   0.00000  Uiso   1.00
N41    N     0.82805   0.97845   0.01832   0.00000  Uiso   1.00
N42    N     0.03900   0.37215   0.06593   0.00000  Uiso   1.00
N43    N     0.70742   0.91656   0.72191   0.00000  Uiso   1.00
N44    N     0.77550   0.74351   0.98378   0.00000  Uiso   1.00
N45    N     0.98646   0.13721   0.03139   0.00000  Uiso   1.00
N46    N     0.65487   0.68162   0.68737   0.00000  Uiso   1.00
C47    C     0.36276   0.27645   0.93841   0.00000  Uiso   1.00
C48    C     0.34034   0.27472   0.95199   0.00000  Uiso   1.00
C49    C     0.35077   0.40412   0.98265   0.00000  Uiso   1.00
C50    C     0.32642   0.37812   0.99048   0.00000  Uiso   1.00
C51    C     0.29675   0.39821   0.01493   0.00000  Uiso   1.00
C52    C     0.39849   0.10762   0.96512   0.00000  Uiso   1.00
C53    C     0.45780   0.09652   0.00681   0.00000  Uiso   1.00
C54    C     0.48240   0.92984   0.02569   0.00000  Uiso   1.00
C55    C     0.54298   0.69050   0.07050   0.00000  Uiso   1.00
C56    C     0.30710   0.25767   0.87031   0.00000  Uiso   1.00
C57    C     0.28958   0.37272   0.83228   0.00000  Uiso   1.00
C58    C     0.23724   0.33236   0.77133   0.00000  Uiso   1.00
C59    C     0.15593   0.32601   0.66893   0.00000  Uiso   1.00
C60    C     0.30096   0.00017   0.89779   0.00000  Uiso   1.00
C61    C     0.30678   0.12465   0.92992   0.00000  Uiso   1.00
C62    C     0.28241   0.09844   0.93771   0.00000  Uiso   1.00
C63    C     0.29280   0.22778   0.96837   0.00000  Uiso   1.00
C64    C     0.36493   0.95755   0.94306   0.00000  Uiso   1.00
C65    C     0.38944   0.79085   0.96187   0.00000  Uiso   1.00
C66    C     0.44877   0.77950   0.00358   0.00000  Uiso   1.00
C67    C     0.27353   0.10761   0.84824   0.00000  Uiso   1.00
C68    C     0.22121   0.06705   0.78734   0.00000  Uiso   1.00
C69    C     0.20362   0.18202   0.74923   0.00000  Uiso   1.00
H70    H     0.38889   0.39328   0.95559   0.00000  Uiso   1.00
H71    H     0.37675   0.52023   0.99972   0.00000  Uiso   1.00
H72    H     0.48376   0.21268   0.02387   0.00000  Uiso   1.00
H73    H     0.31556   0.48884   0.84937   0.00000  Uiso   1.00
H74    H     0.34852   0.59477   0.03893   0.00000  Uiso   1.00
H75    H     0.57414   0.94628   0.08985   0.00000  Uiso   1.00
H76    H     0.21947   0.52862   0.72187   0.00000  Uiso   1.00
H77    H     0.27484   0.88332   0.88062   0.00000  Uiso   1.00
H78    H     0.25644   0.98230   0.92063   0.00000  Uiso   1.00
H79    H     0.36345   0.67474   0.94478   0.00000  Uiso   1.00
H80    H     0.19525   0.95091   0.77028   0.00000  Uiso   1.00
H81    H     0.25087   0.15816   0.97474   0.00000  Uiso   1.00
H82    H     0.47650   0.50966   0.02565   0.00000  Uiso   1.00
H83    H     0.12182   0.09200   0.65768   0.00000  Uiso   1.00
O84    O     0.28967   0.45074   0.03453   0.00000  Uiso   1.00
O85    O     0.58568   0.59995   0.10132   0.00000  Uiso   1.00
O86    O     0.12035   0.36397   0.61854   0.00000  Uiso   1.00
N87    N     0.32805   0.47845   0.01832   0.00000  Uiso   1.00
N88    N     0.53900   0.87215   0.06593   0.00000  Uiso   1.00
N89    N     0.20742   0.41656   0.72191   0.00000  Uiso   1.00
N90    N     0.27550   0.24351   0.98378   0.00000  Uiso   1.00
N91    N     0.48646   0.63721   0.03139   0.00000  Uiso   1.00
N92    N     0.15487   0.18162   0.68737   0.00000  Uiso   1.00
C93    C     0.13724   0.77645   0.56159   0.00000  Uiso   1.00
C94    C     0.15966   0.77472   0.54801   0.00000  Uiso   1.00
C95    C     0.14923   0.90412   0.51735   0.00000  Uiso   1.00
C96    C     0.17358   0.87812   0.50952   0.00000  Uiso   1.00
C97    C     0.20325   0.89821   0.48507   0.00000  Uiso   1.00
C98    C     0.10151   0.60762   0.53488   0.00000  Uiso   1.00
C99    C     0.04220   0.59652   0.49319   0.00000  Uiso   1.00
C100   C     0.01760   0.42984   0.47431   0.00000  Uiso   1.00
C101   C     0.95702   0.19050   0.42950   0.00000  Uiso   1.00
C102   C     0.19290   0.75767   0.62969   0.00000  Uiso   1.00
C103   C     0.21042   0.87272   0.66772   0.00000  Uiso   1.00
C104   C     0.26276   0.83236   0.72867   0.00000  Uiso   1.00
C105   C     0.34407   0.82601   0.83107   0.00000  Uiso   1.00
C106   C     0.19904   0.50017   0.60221   0.00000  Uiso   1.00
C107   C     0.19322   0.62465   0.57008   0.00000  Uiso   1.00
C108   C     0.21759   0.59844   0.56229   0.00000  Uiso   1.00
C109   C     0.20720   0.72778   0.53163   0.00000  Uiso   1.00
C110   C     0.13507   0.45755   0.55694   0.00000  Uiso   1.00
C111   C     0.11056   0.29085   0.53813   0.00000  Uiso   1.00
C112   C     0.05123   0.27950   0.49642   0.00000  Uiso   1.00
C113   C     0.22647   0.60761   0.65176   0.00000  Uiso   1.00
C114   C     0.27879   0.56705   0.71266   0.00000  Uiso   1.00
C115   C     0.29638   0.68202   0.75077   0.00000  Uiso   1.00
H116   H     0.11111   0.89328   0.54441   0.00000  Uiso   1.00
H117   H     0.12325   0.02023   0.50028   0.00000  Uiso   1.00
H118   H     0.01624   0.71268   0.47613   0.00000  Uiso   1.00
H119   H     0.18444   0.98884   0.65063   0.00000  Uiso   1.00
H120   H     0.15148   0.09477   0.46107   0.00000  Uiso   1.00
H121   H     0.92586   0.44628   0.41015   0.00000  Uiso   1.00
H122   H     0.28053   0.02862   0.77813   0.00000  Uiso   1.00
H123   H     0.22516   0.38332   0.61938   0.00000  Uiso   1.00
H124   H     0.24356   0.48230   0.57937   0.00000  Uiso   1.00
H125   H     0.13655   0.17474   0.55522   0.00000  Uiso   1.00
H126   H     0.30475   0.45091   0.72972   0.00000  Uiso   1.00
H127   H     0.24913   0.65816   0.52526   0.00000  Uiso   1.00
H128   H     0.02350   0.00966   0.47435   0.00000  Uiso   1.00
H129   H     0.37818   0.59200   0.84232   0.00000  Uiso   1.00
O130   O     0.21033   0.95074   0.46547   0.00000  Uiso   1.00
O131   O     0.91432   0.09995   0.39868   0.00000  Uiso   1.00
O132   O     0.37965   0.86397   0.88146   0.00000  Uiso   1.00
N133   N     0.17195   0.97845   0.48168   0.00000  Uiso   1.00
N134   N     0.96100   0.37215   0.43407   0.00000  Uiso   1.00
N135   N     0.29258   0.91656   0.77809   0.00000  Uiso   1.00
N136   N     0.22450   0.74351   0.51622   0.00000  Uiso   1.00
N137   N     0.01354   0.13721   0.46861   0.00000  Uiso   1.00
N138   N     0.34513   0.68162   0.81263   0.00000  Uiso   1.00
C139   C     0.63724   0.27645   0.56159   0.00000  Uiso   1.00
C140   C     0.65966   0.27472   0.54801   0.00000  Uiso   1.00
C141   C     0.64923   0.40412   0.51735   0.00000  Uiso   1.00
C142   C     0.67358   0.37812   0.50952   0.00000  Uiso   1.00
C143   C     0.70325   0.39821   0.48507   0.00000  Uiso   1.00
C144   C     0.60151   0.10762   0.53488   0.00000  Uiso   1.00
C145   C     0.54220   0.09652   0.49319   0.00000  Uiso   1.00
C146   C     0.51760   0.92984   0.47431   0.00000  Uiso   1.00
C147   C     0.45702   0.69050   0.42950   0.00000  Uiso   1.00
C148   C     0.69290   0.25767   0.62969   0.00000  Uiso   1.00
C149   C     0.71042   0.37272   0.66772   0.00000  Uiso   1.00
C150   C     0.76276   0.33236   0.72867   0.00000  Uiso   1.00
C151   C     0.84407   0.32601   0.83107   0.00000  Uiso   1.00
C152   C     0.69904   0.00017   0.60221   0.00000  Uiso   1.00
C153   C     0.69322   0.12465   0.57008   0.00000  Uiso   1.00
C154   C     0.71759   0.09844   0.56229   0.00000  Uiso   1.00
C155   C     0.70720   0.22778   0.53163   0.00000  Uiso   1.00
C156   C     0.63507   0.95755   0.55694   0.00000  Uiso   1.00
C157   C     0.61056   0.79085   0.53813   0.00000  Uiso   1.00
C158   C     0.55123   0.77950   0.49642   0.00000  Uiso   1.00
C159   C     0.72647   0.10761   0.65176   0.00000  Uiso   1.00
C160   C     0.77879   0.06705   0.71266   0.00000  Uiso   1.00
C161   C     0.79638   0.18202   0.75077   0.00000  Uiso   1.00
H162   H     0.61111   0.39328   0.54441   0.00000  Uiso   1.00
H163   H     0.62325   0.52023   0.50028   0.00000  Uiso   1.00
H164   H     0.51624   0.21268   0.47613   0.00000  Uiso   1.00
H165   H     0.68444   0.48884   0.65063   0.00000  Uiso   1.00
H166   H     0.65148   0.59477   0.46107   0.00000  Uiso   1.00
H167   H     0.42586   0.94628   0.41015   0.00000  Uiso   1.00
H168   H     0.78053   0.52862   0.77813   0.00000  Uiso   1.00
H169   H     0.72516   0.88332   0.61938   0.00000  Uiso   1.00
H170   H     0.74356   0.98230   0.57937   0.00000  Uiso   1.00
H171   H     0.63655   0.67474   0.55522   0.00000  Uiso   1.00
H172   H     0.80475   0.95091   0.72972   0.00000  Uiso   1.00
H173   H     0.74913   0.15816   0.52526   0.00000  Uiso   1.00
H174   H     0.52350   0.50966   0.47435   0.00000  Uiso   1.00
H175   H     0.87818   0.09200   0.84232   0.00000  Uiso   1.00
O176   O     0.71033   0.45074   0.46547   0.00000  Uiso   1.00
O177   O     0.41432   0.59995   0.39868   0.00000  Uiso   1.00
O178   O     0.87965   0.36397   0.88146   0.00000  Uiso   1.00
N179   N     0.67195   0.47845   0.48168   0.00000  Uiso   1.00
N180   N     0.46100   0.87215   0.43407   0.00000  Uiso   1.00
N181   N     0.79258   0.41656   0.77809   0.00000  Uiso   1.00
N182   N     0.72450   0.24351   0.51622   0.00000  Uiso   1.00
N183   N     0.51354   0.63721   0.46861   0.00000  Uiso   1.00
N184   N     0.84513   0.18162   0.81263   0.00000  Uiso   1.00
C185   C     0.13724   0.22355   0.06159   0.00000  Uiso   1.00
C186   C     0.15966   0.22528   0.04801   0.00000  Uiso   1.00
C187   C     0.14923   0.09588   0.01735   0.00000  Uiso   1.00
C188   C     0.17358   0.12188   0.00952   0.00000  Uiso   1.00
C189   C     0.20325   0.10179   0.98507   0.00000  Uiso   1.00
C190   C     0.10151   0.39238   0.03488   0.00000  Uiso   1.00
C191   C     0.04220   0.40348   0.99319   0.00000  Uiso   1.00
C192   C     0.01760   0.57016   0.97431   0.00000  Uiso   1.00
C193   C     0.95702   0.80950   0.92950   0.00000  Uiso   1.00
C194   C     0.19290   0.24233   0.12969   0.00000  Uiso   1.00
C195   C     0.21042   0.12728   0.16772   0.00000  Uiso   1.00
C196   C     0.26276   0.16764   0.22867   0.00000  Uiso   1.00
C197   C     0.34407   0.17399   0.33107   0.00000  Uiso   1.00
C198   C     0.19904   0.49983   0.10221   0.00000  Uiso   1.00
C199   C     0.19322   0.37535   0.07008   0.00000  Uiso   1.00
C200   C     0.21759   0.40156   0.06229   0.00000  Uiso   1.00
C201   C     0.20720   0.27222   0.03163   0.00000  Uiso   1.00
C202   C     0.13507   0.54245   0.05694   0.00000  Uiso   1.00
C203   C     0.11056   0.70915   0.03813   0.00000  Uiso   1.00
C204   C     0.05123   0.72050   0.99642   0.00000  Uiso   1.00
C205   C     0.22647   0.39239   0.15176   0.00000  Uiso   1.00
C206   C     0.27879   0.43295   0.21266   0.00000  Uiso   1.00
C207   C     0.29638   0.31798   0.25077   0.00000  Uiso   1.00
H208   H     0.11111   0.10672   0.04441   0.00000  Uiso   1.00
H209   H     0.12325   0.97977   0.00028   0.00000  Uiso   1.00
H210   H     0.01624   0.28732   0.97613   0.00000  Uiso   1.00
H211   H     0.18444   0.01116   0.15063   0.00000  Uiso   1.00
H212   H     0.15148   0.90523   0.96107   0.00000  Uiso   1.00
H213   H     0.92586   0.55372   0.91015   0.00000  Uiso   1.00
H214   H     0.28053   0.97138   0.27813   0.00000  Uiso   1.00
H215   H     0.22516   0.61668   0.11938   0.00000  Uiso   1.00
H216   H     0.24356   0.51770   0.07937   0.00000  Uiso   1.00
H217   H     0.13655   0.82526   0.05522   0.00000  Uiso   1.00
H218   H     0.30475   0.54909   0.22972   0.00000  Uiso   1.00
H219   H     0.24913   0.34184   0.02526   0.00000  Uiso   1.00
H220   H     0.02350   0.99034   0.97435   0.00000  Uiso   1.00
H221   H     0.37818   0.40800   0.34232   0.00000  Uiso   1.00
O222   O     0.21033   0.04926   0.96547   0.00000  Uiso   1.00
O223   O     0.91432   0.90005   0.89868   0.00000  Uiso   1.00
O224   O     0.37965   0.13603   0.38146   0.00000  Uiso   1.00
N225   N     0.17195   0.02155   0.98168   0.00000  Uiso   1.00
N226   N     0.96100   0.62785   0.93407   0.00000  Uiso   1.00
N227   N     0.29258   0.08344   0.27809   0.00000  Uiso   1.00
N228   N     0.22450   0.25649   0.01622   0.00000  Uiso   1.00
N229   N     0.01354   0.86279   0.96861   0.00000  Uiso   1.00
N230   N     0.34513   0.31838   0.31263   0.00000  Uiso   1.00
C231   C     0.63724   0.72355   0.06159   0.00000  Uiso   1.00
C232   C     0.65966   0.72528   0.04801   0.00000  Uiso   1.00
C233   C     0.64923   0.59588   0.01735   0.00000  Uiso   1.00
C234   C     0.67358   0.62188   0.00952   0.00000  Uiso   1.00
C235   C     0.70325   0.60179   0.98507   0.00000  Uiso   1.00
C236   C     0.60151   0.89238   0.03488   0.00000  Uiso   1.00
C237   C     0.54220   0.90348   0.99319   0.00000  Uiso   1.00
C238   C     0.51760   0.07016   0.97431   0.00000  Uiso   1.00
C239   C     0.45702   0.30950   0.92950   0.00000  Uiso   1.00
C240   C     0.69290   0.74233   0.12969   0.00000  Uiso   1.00
C241   C     0.71042   0.62728   0.16772   0.00000  Uiso   1.00
C242   C     0.76276   0.66764   0.22867   0.00000  Uiso   1.00
C243   C     0.84407   0.67399   0.33107   0.00000  Uiso   1.00
C244   C     0.69904   0.99983   0.10221   0.00000  Uiso   1.00
C245   C     0.69322   0.87535   0.07008   0.00000  Uiso   1.00
C246   C     0.71759   0.90156   0.06229   0.00000  Uiso   1.00
C247   C     0.70720   0.77222   0.03163   0.00000  Uiso   1.00
C248   C     0.63507   0.04245   0.05694   0.00000  Uiso   1.00
C249   C     0.61056   0.20915   0.03813   0.00000  Uiso   1.00
C250   C     0.55123   0.22050   0.99642   0.00000  Uiso   1.00
C251   C     0.72647   0.89239   0.15176   0.00000  Uiso   1.00
C252   C     0.77879   0.93295   0.21266   0.00000  Uiso   1.00
C253   C     0.79638   0.81798   0.25077   0.00000  Uiso   1.00
H254   H     0.61111   0.60672   0.04441   0.00000  Uiso   1.00
H255   H     0.62325   0.47977   0.00028   0.00000  Uiso   1.00
H256   H     0.51624   0.78732   0.97613   0.00000  Uiso   1.00
H257   H     0.68444   0.51116   0.15063   0.00000  Uiso   1.00
H258   H     0.65148   0.40523   0.96107   0.00000  Uiso   1.00
H259   H     0.42586   0.05372   0.91015   0.00000  Uiso   1.00
H260   H     0.78053   0.47138   0.27813   0.00000  Uiso   1.00
H261   H     0.72516   0.11668   0.11938   0.00000  Uiso   1.00
H262   H     0.74356   0.01770   0.07937   0.00000  Uiso   1.00
H263   H     0.63655   0.32526   0.05522   0.00000  Uiso   1.00
H264   H     0.80475   0.04909   0.22972   0.00000  Uiso   1.00
H265   H     0.74913   0.84184   0.02526   0.00000  Uiso   1.00
H266   H     0.52350   0.49034   0.97435   0.00000  Uiso   1.00
H267   H     0.87818   0.90800   0.34232   0.00000  Uiso   1.00
O268   O     0.71033   0.54926   0.96547   0.00000  Uiso   1.00
O269   O     0.41432   0.40005   0.89868   0.00000  Uiso   1.00
O270   O     0.87965   0.63603   0.38146   0.00000  Uiso   1.00
N271   N     0.67195   0.52155   0.98168   0.00000  Uiso   1.00
N272   N     0.46100   0.12785   0.93407   0.00000  Uiso   1.00
N273   N     0.79258   0.58344   0.27809   0.00000  Uiso   1.00
N274   N     0.72450   0.75649   0.01622   0.00000  Uiso   1.00
N275   N     0.51354   0.36279   0.96861   0.00000  Uiso   1.00
N276   N     0.84513   0.81838   0.31263   0.00000  Uiso   1.00
C277   C     0.86276   0.22355   0.43841   0.00000  Uiso   1.00
C278   C     0.84034   0.22528   0.45199   0.00000  Uiso   1.00
C279   C     0.85077   0.09588   0.48265   0.00000  Uiso   1.00
C280   C     0.82642   0.12188   0.49048   0.00000  Uiso   1.00
C281   C     0.79675   0.10179   0.51493   0.00000  Uiso   1.00
C282   C     0.89849   0.39238   0.46512   0.00000  Uiso   1.00
C283   C     0.95780   0.40348   0.50681   0.00000  Uiso   1.00
C284   C     0.98240   0.57016   0.52569   0.00000  Uiso   1.00
C285   C     0.04298   0.80950   0.57050   0.00000  Uiso   1.00
C286   C     0.80710   0.24233   0.37031   0.00000  Uiso   1.00
C287   C     0.78958   0.12728   0.33228   0.00000  Uiso   1.00
C288   C     0.73724   0.16764   0.27133   0.00000  Uiso   1.00
C289   C     0.65593   0.17399   0.16893   0.00000  Uiso   1.00
C290   C     0.80096   0.49983   0.39779   0.00000  Uiso   1.00
C291   C     0.80678   0.37535   0.42992   0.00000  Uiso   1.00
C292   C     0.78241   0.40156   0.43771   0.00000  Uiso   1.00
C293   C     0.79280   0.27222   0.46837   0.00000  Uiso   1.00
C294   C     0.86493   0.54245   0.44306   0.00000  Uiso   1.00
C295   C     0.88944   0.70915   0.46187   0.00000  Uiso   1.00
C296   C     0.94877   0.72050   0.50358   0.00000  Uiso   1.00
C297   C     0.77353   0.39239   0.34824   0.00000  Uiso   1.00
C298   C     0.72121   0.43295   0.28734   0.00000  Uiso   1.00
C299   C     0.70362   0.31798   0.24923   0.00000  Uiso   1.00
H300   H     0.88889   0.10672   0.45559   0.00000  Uiso   1.00
H301   H     0.87675   0.97977   0.49972   0.00000  Uiso   1.00
H302   H     0.98376   0.28732   0.52387   0.00000  Uiso   1.00
H303   H     0.81556   0.01116   0.34937   0.00000  Uiso   1.00
H304   H     0.84852   0.90523   0.53893   0.00000  Uiso   1.00
H305   H     0.07414   0.55372   0.58985   0.00000  Uiso   1.00
H306   H     0.71947   0.97138   0.22187   0.00000  Uiso   1.00
H307   H     0.77484   0.61668   0.38062   0.00000  Uiso   1.00
H308   H     0.75644   0.51770   0.42063   0.00000  Uiso   1.00
H309   H     0.86345   0.82526   0.44478   0.00000  Uiso   1.00
H310   H     0.69525   0.54909   0.27028   0.00000  Uiso   1.00
H311   H     0.75087   0.34184   0.47474   0.00000  Uiso   1.00
H312   H     0.97650   0.99034   0.52565   0.00000  Uiso   1.00
H313   H     0.62182   0.40800   0.15768   0.00000  Uiso   1.00
O314   O     0.78967   0.04926   0.53453   0.00000  Uiso   1.00
O315   O     0.08568   0.90005   0.60132   0.00000  Uiso   1.00
O316   O     0.62035   0.13603   0.11854   0.00000  Uiso   1.00
N317   N     0.82805   0.02155   0.51832   0.00000  Uiso   1.00
N318   N     0.03900   0.62785   0.56593   0.00000  Uiso   1.00
N319   N     0.70742   0.08344   0.22191   0.00000  Uiso   1.00
N320   N     0.77550   0.25649   0.48378   0.00000  Uiso   1.00
N321   N     0.98646   0.86279   0.53139   0.00000  Uiso   1.00
N322   N     0.65487   0.31838   0.18737   0.00000  Uiso   1.00
C323   C     0.36276   0.72355   0.43841   0.00000  Uiso   1.00
C324   C     0.34034   0.72528   0.45199   0.00000  Uiso   1.00
C325   C     0.35077   0.59588   0.48265   0.00000  Uiso   1.00
C326   C     0.32642   0.62188   0.49048   0.00000  Uiso   1.00
C327   C     0.29675   0.60179   0.51493   0.00000  Uiso   1.00
C328   C     0.39849   0.89238   0.46512   0.00000  Uiso   1.00
C329   C     0.45780   0.90348   0.50681   0.00000  Uiso   1.00
C330   C     0.48240   0.07016   0.52569   0.00000  Uiso   1.00
C331   C     0.54298   0.30950   0.57050   0.00000  Uiso   1.00
C332   C     0.30710   0.74233   0.37031   0.00000  Uiso   1.00
C333   C     0.28958   0.62728   0.33228   0.00000  Uiso   1.00
C334   C     0.23724   0.66764   0.27133   0.00000  Uiso   1.00
C335   C     0.15593   0.67399   0.16893   0.00000  Uiso   1.00
C336   C     0.30096   0.99983   0.39779   0.00000  Uiso   1.00
C337   C     0.30678   0.87535   0.42992   0.00000  Uiso   1.00
C338   C     0.28241   0.90156   0.43771   0.00000  Uiso   1.00
C339   C     0.29280   0.77222   0.46837   0.00000  Uiso   1.00
C340   C     0.36493   0.04245   0.44306   0.00000  Uiso   1.00
C341   C     0.38944   0.20915   0.46187   0.00000  Uiso   1.00
C342   C     0.44877   0.22050   0.50358   0.00000  Uiso   1.00
C343   C     0.27353   0.89239   0.34824   0.00000  Uiso   1.00
C344   C     0.22121   0.93295   0.28734   0.00000  Uiso   1.00
C345   C     0.20362   0.81798   0.24923   0.00000  Uiso   1.00
H346   H     0.38889   0.60672   0.45559   0.00000  Uiso   1.00
H347   H     0.37675   0.47977   0.49972   0.00000  Uiso   1.00
H348   H     0.48376   0.78732   0.52387   0.00000  Uiso   1.00
H349   H     0.31556   0.51116   0.34937   0.00000  Uiso   1.00
H350   H     0.34852   0.40523   0.53893   0.00000  Uiso   1.00
H351   H     0.57414   0.05372   0.58985   0.00000  Uiso   1.00
H352   H     0.21947   0.47138   0.22187   0.00000  Uiso   1.00
H353   H     0.27484   0.11668   0.38062   0.00000  Uiso   1.00
H354   H     0.25644   0.01770   0.42063   0.00000  Uiso   1.00
H355   H     0.36345   0.32526   0.44478   0.00000  Uiso   1.00
H356   H     0.19525   0.04909   0.27028   0.00000  Uiso   1.00
H357   H     0.25087   0.84184   0.47474   0.00000  Uiso   1.00
H358   H     0.47650   0.49034   0.52565   0.00000  Uiso   1.00
H359   H     0.12182   0.90800   0.15768   0.00000  Uiso   1.00
O360   O     0.28967   0.54926   0.53453   0.00000  Uiso   1.00
O361   O     0.58568   0.40005   0.60132   0.00000  Uiso   1.00
O362   O     0.12035   0.63603   0.11854   0.00000  Uiso   1.00
N363   N     0.32805   0.52155   0.51832   0.00000  Uiso   1.00
N364   N     0.53900   0.12785   0.56593   0.00000  Uiso   1.00
N365   N     0.20742   0.58344   0.22191   0.00000  Uiso   1.00
N366   N     0.27550   0.75649   0.48378   0.00000  Uiso   1.00
N367   N     0.48646   0.36279   0.53139   0.00000  Uiso   1.00
N368   N     0.15487   0.81838   0.18737   0.00000  Uiso   1.00
