data_job_03790
_audit_creation_date              2018-12-19
_audit_creation_method            'Materials Studio'
_symmetry_space_group_name_H-M    'P1'
_symmetry_Int_Tables_number       1
_symmetry_cell_setting            triclinic
loop_
_symmetry_equiv_pos_as_xyz
  x,y,z
_cell_length_a                    22.4674
_cell_length_b                    10.5316
_cell_length_c                    20.8707
_cell_angle_alpha                 90.0000
_cell_angle_beta                  112.9990
_cell_angle_gamma                 90.0000
loop_
_atom_site_label
_atom_site_type_symbol
_atom_site_fract_x
_atom_site_fract_y
_atom_site_fract_z
_atom_site_U_iso_or_equiv
_atom_site_adp_type
_atom_site_occupancy
C1     C     0.14389   0.99365   0.32532   0.00000  Uiso   1.00
C2     C     0.21751   0.99194   0.36014   0.00000  Uiso   1.00
C3     C     0.25833   0.91878   0.33959   0.00000  Uiso   1.00
C4     C     0.32426   0.93076   0.37825   0.00000  Uiso   1.00
C5     C     0.43491   0.91555   0.42364   0.00000  Uiso   1.00
C6     C     0.11973   0.96110   0.38221   0.00000  Uiso   1.00
C7     C     0.07831   0.86200   0.38021   0.00000  Uiso   1.00
C8     C     0.06193   0.84804   0.43745   0.00000  Uiso   1.00
C9     C     0.02072   0.78499   0.51708   0.00000  Uiso   1.00
C10    C     0.12493   0.13167   0.30572   0.00000  Uiso   1.00
C11    C     0.08788   0.17600   0.23941   0.00000  Uiso   1.00
C12    C     0.07587   0.30564   0.23225   0.00000  Uiso   1.00
C13    C     0.04274   0.50743   0.19312   0.00000  Uiso   1.00
C14    C     0.18841   0.14506   0.43053   0.00000  Uiso   1.00
C15    C     0.24170   0.07418   0.41728   0.00000  Uiso   1.00
C16    C     0.30759   0.08629   0.45598   0.00000  Uiso   1.00
C17    C     0.34849   0.01315   0.43549   0.00000  Uiso   1.00
C18    C     0.14391   0.04333   0.43935   0.00000  Uiso   1.00
C19    C     0.12758   0.02951   0.49660   0.00000  Uiso   1.00
C20    C     0.08616   0.93042   0.49469   0.00000  Uiso   1.00
C21    C     0.14912   0.21391   0.36286   0.00000  Uiso   1.00
C22    C     0.13715   0.34350   0.35580   0.00000  Uiso   1.00
C23    C     0.10010   0.38802   0.28949   0.00000  Uiso   1.00
H24    H     0.12505   0.92963   0.28084   0.00000  Uiso   1.00
H25    H     0.23959   0.85514   0.29537   0.00000  Uiso   1.00
H26    H     0.05960   0.79839   0.33598   0.00000  Uiso   1.00
H27    H     0.06917   0.11233   0.19520   0.00000  Uiso   1.00
H28    H     0.37724   0.80878   0.33669   0.00000  Uiso   1.00
H29    H     0.99771   0.68915   0.42231   0.00000  Uiso   1.00
H30    H     0.01789   0.35116   0.12545   0.00000  Uiso   1.00
H31    H     0.20724   0.20908   0.47502   0.00000  Uiso   1.00
H32    H     0.32629   0.14993   0.50020   0.00000  Uiso   1.00
H33    H     0.14630   0.09317   0.54081   0.00000  Uiso   1.00
H34    H     0.15588   0.40711   0.40003   0.00000  Uiso   1.00
H35    H     0.44761   0.04804   0.50294   0.00000  Uiso   1.00
H36    H     0.06807   0.92841   0.58856   0.00000  Uiso   1.00
H37    H     0.08826   0.59041   0.29170   0.00000  Uiso   1.00
O38    O     0.48925   0.88443   0.43289   0.00000  Uiso   1.00
O39    O     0.99131   0.72748   0.54522   0.00000  Uiso   1.00
O40    O     0.01780   0.59602   0.15575   0.00000  Uiso   1.00
N41    N     0.37746   0.87323   0.37235   0.00000  Uiso   1.00
N42    N     0.02263   0.76136   0.45241   0.00000  Uiso   1.00
N43    N     0.04149   0.38028   0.17487   0.00000  Uiso   1.00
N44    N     0.41533   0.00198   0.46181   0.00000  Uiso   1.00
N45    N     0.06050   0.89011   0.54187   0.00000  Uiso   1.00
N46    N     0.07935   0.50903   0.26433   0.00000  Uiso   1.00
C47    C     0.85611   0.99365   0.17468   0.00000  Uiso   1.00
C48    C     0.78249   0.99194   0.13986   0.00000  Uiso   1.00
C49    C     0.74167   0.91878   0.16041   0.00000  Uiso   1.00
C50    C     0.67574   0.93076   0.12175   0.00000  Uiso   1.00
C51    C     0.56509   0.91555   0.07636   0.00000  Uiso   1.00
C52    C     0.88027   0.96110   0.11779   0.00000  Uiso   1.00
C53    C     0.92169   0.86200   0.11979   0.00000  Uiso   1.00
C54    C     0.93807   0.84804   0.06255   0.00000  Uiso   1.00
C55    C     0.97928   0.78499   0.98292   0.00000  Uiso   1.00
C56    C     0.87507   0.13167   0.19428   0.00000  Uiso   1.00
C57    C     0.91212   0.17600   0.26059   0.00000  Uiso   1.00
C58    C     0.92413   0.30564   0.26775   0.00000  Uiso   1.00
C59    C     0.95726   0.50743   0.30688   0.00000  Uiso   1.00
C60    C     0.81159   0.14506   0.06947   0.00000  Uiso   1.00
C61    C     0.75830   0.07418   0.08272   0.00000  Uiso   1.00
C62    C     0.69241   0.08629   0.04402   0.00000  Uiso   1.00
C63    C     0.65151   0.01315   0.06451   0.00000  Uiso   1.00
C64    C     0.85609   0.04333   0.06065   0.00000  Uiso   1.00
C65    C     0.87242   0.02951   0.00340   0.00000  Uiso   1.00
C66    C     0.91384   0.93042   0.00531   0.00000  Uiso   1.00
C67    C     0.85088   0.21391   0.13714   0.00000  Uiso   1.00
C68    C     0.86285   0.34350   0.14420   0.00000  Uiso   1.00
C69    C     0.89990   0.38802   0.21051   0.00000  Uiso   1.00
H70    H     0.87495   0.92963   0.21916   0.00000  Uiso   1.00
H71    H     0.76041   0.85514   0.20463   0.00000  Uiso   1.00
H72    H     0.94040   0.79839   0.16402   0.00000  Uiso   1.00
H73    H     0.93083   0.11233   0.30480   0.00000  Uiso   1.00
H74    H     0.62276   0.80878   0.16331   0.00000  Uiso   1.00
H75    H     0.00229   0.68915   0.07769   0.00000  Uiso   1.00
H76    H     0.98211   0.35116   0.37455   0.00000  Uiso   1.00
H77    H     0.79276   0.20908   0.02498   0.00000  Uiso   1.00
H78    H     0.67371   0.14993   0.99980   0.00000  Uiso   1.00
H79    H     0.85370   0.09317   0.95919   0.00000  Uiso   1.00
H80    H     0.84412   0.40711   0.09997   0.00000  Uiso   1.00
H81    H     0.55239   0.04804   0.99706   0.00000  Uiso   1.00
H82    H     0.93193   0.92841   0.91144   0.00000  Uiso   1.00
H83    H     0.91174   0.59041   0.20830   0.00000  Uiso   1.00
O84    O     0.51075   0.88443   0.06711   0.00000  Uiso   1.00
O85    O     0.00869   0.72748   0.95478   0.00000  Uiso   1.00
O86    O     0.98220   0.59602   0.34425   0.00000  Uiso   1.00
N87    N     0.62254   0.87323   0.12765   0.00000  Uiso   1.00
N88    N     0.97737   0.76136   0.04759   0.00000  Uiso   1.00
N89    N     0.95851   0.38028   0.32513   0.00000  Uiso   1.00
N90    N     0.58467   0.00198   0.03819   0.00000  Uiso   1.00
N91    N     0.93950   0.89011   0.95813   0.00000  Uiso   1.00
N92    N     0.92065   0.50903   0.23567   0.00000  Uiso   1.00
C93    C     0.85611   0.00635   0.67468   0.00000  Uiso   1.00
C94    C     0.78249   0.00806   0.63986   0.00000  Uiso   1.00
C95    C     0.74167   0.08122   0.66041   0.00000  Uiso   1.00
C96    C     0.67574   0.06924   0.62175   0.00000  Uiso   1.00
C97    C     0.56509   0.08445   0.57636   0.00000  Uiso   1.00
C98    C     0.88027   0.03890   0.61779   0.00000  Uiso   1.00
C99    C     0.92169   0.13800   0.61979   0.00000  Uiso   1.00
C100   C     0.93807   0.15196   0.56255   0.00000  Uiso   1.00
C101   C     0.97928   0.21501   0.48292   0.00000  Uiso   1.00
C102   C     0.87507   0.86833   0.69428   0.00000  Uiso   1.00
C103   C     0.91212   0.82400   0.76059   0.00000  Uiso   1.00
C104   C     0.92413   0.69436   0.76775   0.00000  Uiso   1.00
C105   C     0.95726   0.49257   0.80688   0.00000  Uiso   1.00
C106   C     0.81159   0.85494   0.56947   0.00000  Uiso   1.00
C107   C     0.75830   0.92582   0.58272   0.00000  Uiso   1.00
C108   C     0.69241   0.91371   0.54402   0.00000  Uiso   1.00
C109   C     0.65151   0.98685   0.56451   0.00000  Uiso   1.00
C110   C     0.85609   0.95667   0.56065   0.00000  Uiso   1.00
C111   C     0.87242   0.97049   0.50340   0.00000  Uiso   1.00
C112   C     0.91384   0.06958   0.50531   0.00000  Uiso   1.00
C113   C     0.85088   0.78609   0.63714   0.00000  Uiso   1.00
C114   C     0.86285   0.65650   0.64420   0.00000  Uiso   1.00
C115   C     0.89990   0.61198   0.71051   0.00000  Uiso   1.00
H116   H     0.87495   0.07037   0.71916   0.00000  Uiso   1.00
H117   H     0.76041   0.14486   0.70463   0.00000  Uiso   1.00
H118   H     0.94040   0.20161   0.66402   0.00000  Uiso   1.00
H119   H     0.93083   0.88767   0.80480   0.00000  Uiso   1.00
H120   H     0.62276   0.19122   0.66331   0.00000  Uiso   1.00
H121   H     0.00229   0.31085   0.57769   0.00000  Uiso   1.00
H122   H     0.98211   0.64884   0.87455   0.00000  Uiso   1.00
H123   H     0.79276   0.79092   0.52498   0.00000  Uiso   1.00
H124   H     0.67371   0.85007   0.49980   0.00000  Uiso   1.00
H125   H     0.85370   0.90683   0.45919   0.00000  Uiso   1.00
H126   H     0.84412   0.59289   0.59997   0.00000  Uiso   1.00
H127   H     0.55239   0.95196   0.49706   0.00000  Uiso   1.00
H128   H     0.93193   0.07159   0.41144   0.00000  Uiso   1.00
H129   H     0.91174   0.40959   0.70830   0.00000  Uiso   1.00
O130   O     0.51075   0.11557   0.56711   0.00000  Uiso   1.00
O131   O     0.00869   0.27252   0.45478   0.00000  Uiso   1.00
O132   O     0.98220   0.40398   0.84425   0.00000  Uiso   1.00
N133   N     0.62254   0.12677   0.62765   0.00000  Uiso   1.00
N134   N     0.97737   0.23864   0.54759   0.00000  Uiso   1.00
N135   N     0.95851   0.61972   0.82513   0.00000  Uiso   1.00
N136   N     0.58467   0.99802   0.53819   0.00000  Uiso   1.00
N137   N     0.93950   0.10989   0.45813   0.00000  Uiso   1.00
N138   N     0.92065   0.49097   0.73567   0.00000  Uiso   1.00
C139   C     0.14389   0.00635   0.82532   0.00000  Uiso   1.00
C140   C     0.21751   0.00806   0.86014   0.00000  Uiso   1.00
C141   C     0.25833   0.08122   0.83959   0.00000  Uiso   1.00
C142   C     0.32426   0.06924   0.87825   0.00000  Uiso   1.00
C143   C     0.43491   0.08445   0.92364   0.00000  Uiso   1.00
C144   C     0.11973   0.03890   0.88221   0.00000  Uiso   1.00
C145   C     0.07831   0.13800   0.88021   0.00000  Uiso   1.00
C146   C     0.06193   0.15196   0.93745   0.00000  Uiso   1.00
C147   C     0.02072   0.21501   0.01708   0.00000  Uiso   1.00
C148   C     0.12493   0.86833   0.80572   0.00000  Uiso   1.00
C149   C     0.08788   0.82400   0.73941   0.00000  Uiso   1.00
C150   C     0.07587   0.69436   0.73225   0.00000  Uiso   1.00
C151   C     0.04274   0.49257   0.69312   0.00000  Uiso   1.00
C152   C     0.18841   0.85494   0.93053   0.00000  Uiso   1.00
C153   C     0.24170   0.92582   0.91728   0.00000  Uiso   1.00
C154   C     0.30759   0.91371   0.95598   0.00000  Uiso   1.00
C155   C     0.34849   0.98685   0.93549   0.00000  Uiso   1.00
C156   C     0.14391   0.95667   0.93935   0.00000  Uiso   1.00
C157   C     0.12758   0.97049   0.99660   0.00000  Uiso   1.00
C158   C     0.08616   0.06958   0.99469   0.00000  Uiso   1.00
C159   C     0.14912   0.78609   0.86286   0.00000  Uiso   1.00
C160   C     0.13715   0.65650   0.85580   0.00000  Uiso   1.00
C161   C     0.10010   0.61198   0.78949   0.00000  Uiso   1.00
H162   H     0.12505   0.07037   0.78084   0.00000  Uiso   1.00
H163   H     0.23959   0.14486   0.79537   0.00000  Uiso   1.00
H164   H     0.05960   0.20161   0.83598   0.00000  Uiso   1.00
H165   H     0.06917   0.88767   0.69520   0.00000  Uiso   1.00
H166   H     0.37724   0.19122   0.83669   0.00000  Uiso   1.00
H167   H     0.99771   0.31085   0.92231   0.00000  Uiso   1.00
H168   H     0.01789   0.64884   0.62545   0.00000  Uiso   1.00
H169   H     0.20724   0.79092   0.97502   0.00000  Uiso   1.00
H170   H     0.32629   0.85007   0.00020   0.00000  Uiso   1.00
H171   H     0.14630   0.90683   0.04081   0.00000  Uiso   1.00
H172   H     0.15588   0.59289   0.90003   0.00000  Uiso   1.00
H173   H     0.44761   0.95196   0.00294   0.00000  Uiso   1.00
H174   H     0.06807   0.07159   0.08856   0.00000  Uiso   1.00
H175   H     0.08826   0.40959   0.79170   0.00000  Uiso   1.00
O176   O     0.48925   0.11557   0.93289   0.00000  Uiso   1.00
O177   O     0.99131   0.27252   0.04522   0.00000  Uiso   1.00
O178   O     0.01780   0.40398   0.65575   0.00000  Uiso   1.00
N179   N     0.37746   0.12677   0.87235   0.00000  Uiso   1.00
N180   N     0.02263   0.23864   0.95241   0.00000  Uiso   1.00
N181   N     0.04149   0.61972   0.67487   0.00000  Uiso   1.00
N182   N     0.41533   0.99802   0.96181   0.00000  Uiso   1.00
N183   N     0.06050   0.10989   0.04187   0.00000  Uiso   1.00
N184   N     0.07935   0.49097   0.76433   0.00000  Uiso   1.00
