data_job_04887
_audit_creation_date              2018-12-19
_audit_creation_method            'Materials Studio'
_symmetry_space_group_name_H-M    'P1'
_symmetry_Int_Tables_number       1
_symmetry_cell_setting            triclinic
loop_
_symmetry_equiv_pos_as_xyz
  x,y,z
_cell_length_a                    22.5125
_cell_length_b                    18.6131
_cell_length_c                    12.4237
_cell_angle_alpha                 90.0000
_cell_angle_beta                  90.0000
_cell_angle_gamma                 90.0000
loop_
_atom_site_label
_atom_site_type_symbol
_atom_site_fract_x
_atom_site_fract_y
_atom_site_fract_z
_atom_site_U_iso_or_equiv
_atom_site_adp_type
_atom_site_occupancy
C1     C     0.80280   0.55681   0.36036   0.00000  Uiso   1.00
C2     C     0.84018   0.54884   0.46203   0.00000  Uiso   1.00
C3     C     0.84827   0.48584   0.51994   0.00000  Uiso   1.00
C4     C     0.88411   0.48969   0.61071   0.00000  Uiso   1.00
C5     C     0.93806   0.46751   0.76379   0.00000  Uiso   1.00
C6     C     0.75770   0.61582   0.38427   0.00000  Uiso   1.00
C7     C     0.69644   0.60913   0.37678   0.00000  Uiso   1.00
C8     C     0.66284   0.66937   0.40208   0.00000  Uiso   1.00
C9     C     0.58874   0.75118   0.43435   0.00000  Uiso   1.00
C10    C     0.84428   0.58723   0.27469   0.00000  Uiso   1.00
C11    C     0.85580   0.55652   0.17506   0.00000  Uiso   1.00
C12    C     0.89509   0.59270   0.10809   0.00000  Uiso   1.00
C13    C     0.95540   0.63012   0.97024   0.00000  Uiso   1.00
C14    C     0.85206   0.67568   0.41857   0.00000  Uiso   1.00
C15    C     0.86694   0.61341   0.49364   0.00000  Uiso   1.00
C16    C     0.90277   0.61735   0.58434   0.00000  Uiso   1.00
C17    C     0.91092   0.55437   0.64238   0.00000  Uiso   1.00
C18    C     0.78445   0.68038   0.41588   0.00000  Uiso   1.00
C19    C     0.75094   0.74064   0.44118   0.00000  Uiso   1.00
C20    C     0.68965   0.73405   0.43375   0.00000  Uiso   1.00
C21    C     0.87104   0.65179   0.30631   0.00000  Uiso   1.00
C22    C     0.91030   0.68803   0.23947   0.00000  Uiso   1.00
C23    C     0.92189   0.65738   0.13976   0.00000  Uiso   1.00
H24    H     0.78197   0.50655   0.33575   0.00000  Uiso   1.00
H25    H     0.82755   0.43589   0.49545   0.00000  Uiso   1.00
H26    H     0.67575   0.55917   0.35231   0.00000  Uiso   1.00
H27    H     0.83509   0.50656   0.15063   0.00000  Uiso   1.00
H28    H     0.88987   0.38603   0.68648   0.00000  Uiso   1.00
H29    H     0.56978   0.64597   0.38461   0.00000  Uiso   1.00
H30    H     0.90578   0.53504   0.95932   0.00000  Uiso   1.00
H31    H     0.87289   0.72594   0.44318   0.00000  Uiso   1.00
H32    H     0.92347   0.66732   0.60879   0.00000  Uiso   1.00
H33    H     0.77166   0.79059   0.46564   0.00000  Uiso   1.00
H34    H     0.93100   0.73799   0.26396   0.00000  Uiso   1.00
H35    H     0.96772   0.57387   0.77847   0.00000  Uiso   1.00
H36    H     0.64763   0.83380   0.47660   0.00000  Uiso   1.00
H37    H     0.98363   0.72288   0.05131   0.00000  Uiso   1.00
O38    O     0.96041   0.43744   0.83950   0.00000  Uiso   1.00
O39    O     0.54047   0.77846   0.44344   0.00000  Uiso   1.00
O40    O     0.98129   0.63292   0.88547   0.00000  Uiso   1.00
N41    N     0.90126   0.43828   0.68539   0.00000  Uiso   1.00
N42    N     0.60200   0.68130   0.40318   0.00000  Uiso   1.00
N43    N     0.91611   0.57760   0.00556   0.00000  Uiso   1.00
N44    N     0.94316   0.53936   0.73489   0.00000  Uiso   1.00
N45    N     0.64389   0.78237   0.45268   0.00000  Uiso   1.00
N46    N     0.95800   0.67868   0.05506   0.00000  Uiso   1.00
C47    C     0.69720   0.44319   0.86036   0.00000  Uiso   1.00
C48    C     0.65982   0.45116   0.96203   0.00000  Uiso   1.00
C49    C     0.65173   0.51416   0.01994   0.00000  Uiso   1.00
C50    C     0.61589   0.51031   0.11071   0.00000  Uiso   1.00
C51    C     0.56194   0.53249   0.26379   0.00000  Uiso   1.00
C52    C     0.74230   0.38418   0.88427   0.00000  Uiso   1.00
C53    C     0.80356   0.39087   0.87678   0.00000  Uiso   1.00
C54    C     0.83716   0.33063   0.90208   0.00000  Uiso   1.00
C55    C     0.91126   0.24882   0.93435   0.00000  Uiso   1.00
C56    C     0.65572   0.41277   0.77469   0.00000  Uiso   1.00
C57    C     0.64420   0.44348   0.67506   0.00000  Uiso   1.00
C58    C     0.60491   0.40730   0.60809   0.00000  Uiso   1.00
C59    C     0.54460   0.36988   0.47024   0.00000  Uiso   1.00
C60    C     0.64794   0.32432   0.91857   0.00000  Uiso   1.00
C61    C     0.63306   0.38659   0.99364   0.00000  Uiso   1.00
C62    C     0.59723   0.38265   0.08434   0.00000  Uiso   1.00
C63    C     0.58908   0.44563   0.14238   0.00000  Uiso   1.00
C64    C     0.71555   0.31962   0.91588   0.00000  Uiso   1.00
C65    C     0.74906   0.25936   0.94118   0.00000  Uiso   1.00
C66    C     0.81035   0.26595   0.93375   0.00000  Uiso   1.00
C67    C     0.62896   0.34821   0.80631   0.00000  Uiso   1.00
C68    C     0.58970   0.31197   0.73947   0.00000  Uiso   1.00
C69    C     0.57811   0.34262   0.63976   0.00000  Uiso   1.00
H70    H     0.71803   0.49345   0.83575   0.00000  Uiso   1.00
H71    H     0.67245   0.56411   0.99545   0.00000  Uiso   1.00
H72    H     0.82425   0.44083   0.85231   0.00000  Uiso   1.00
H73    H     0.66491   0.49344   0.65063   0.00000  Uiso   1.00
H74    H     0.61013   0.61397   0.18648   0.00000  Uiso   1.00
H75    H     0.93022   0.35403   0.88461   0.00000  Uiso   1.00
H76    H     0.59422   0.46496   0.45932   0.00000  Uiso   1.00
H77    H     0.62711   0.27406   0.94318   0.00000  Uiso   1.00
H78    H     0.57653   0.33268   0.10879   0.00000  Uiso   1.00
H79    H     0.72834   0.20941   0.96564   0.00000  Uiso   1.00
H80    H     0.56900   0.26201   0.76396   0.00000  Uiso   1.00
H81    H     0.53228   0.42613   0.27847   0.00000  Uiso   1.00
H82    H     0.85237   0.16620   0.97660   0.00000  Uiso   1.00
H83    H     0.51637   0.27712   0.55131   0.00000  Uiso   1.00
O84    O     0.53959   0.56256   0.33950   0.00000  Uiso   1.00
O85    O     0.95953   0.22154   0.94344   0.00000  Uiso   1.00
O86    O     0.51871   0.36708   0.38547   0.00000  Uiso   1.00
N87    N     0.59874   0.56172   0.18539   0.00000  Uiso   1.00
N88    N     0.89800   0.31870   0.90318   0.00000  Uiso   1.00
N89    N     0.58389   0.42240   0.50556   0.00000  Uiso   1.00
N90    N     0.55684   0.46064   0.23489   0.00000  Uiso   1.00
N91    N     0.85611   0.21763   0.95268   0.00000  Uiso   1.00
N92    N     0.54200   0.32132   0.55506   0.00000  Uiso   1.00
C93    C     0.19720   0.05681   0.13964   0.00000  Uiso   1.00
C94    C     0.15982   0.04884   0.03797   0.00000  Uiso   1.00
C95    C     0.15173   0.98584   0.98006   0.00000  Uiso   1.00
C96    C     0.11589   0.98969   0.88929   0.00000  Uiso   1.00
C97    C     0.06194   0.96751   0.73621   0.00000  Uiso   1.00
C98    C     0.24230   0.11582   0.11573   0.00000  Uiso   1.00
C99    C     0.30356   0.10913   0.12322   0.00000  Uiso   1.00
C100   C     0.33716   0.16937   0.09792   0.00000  Uiso   1.00
C101   C     0.41126   0.25118   0.06565   0.00000  Uiso   1.00
C102   C     0.15572   0.08723   0.22531   0.00000  Uiso   1.00
C103   C     0.14420   0.05652   0.32494   0.00000  Uiso   1.00
C104   C     0.10491   0.09270   0.39191   0.00000  Uiso   1.00
C105   C     0.04460   0.13012   0.52976   0.00000  Uiso   1.00
C106   C     0.14794   0.17568   0.08143   0.00000  Uiso   1.00
C107   C     0.13306   0.11341   0.00636   0.00000  Uiso   1.00
C108   C     0.09723   0.11735   0.91566   0.00000  Uiso   1.00
C109   C     0.08908   0.05437   0.85762   0.00000  Uiso   1.00
C110   C     0.21555   0.18038   0.08412   0.00000  Uiso   1.00
C111   C     0.24906   0.24064   0.05882   0.00000  Uiso   1.00
C112   C     0.31035   0.23405   0.06625   0.00000  Uiso   1.00
C113   C     0.12896   0.15179   0.19369   0.00000  Uiso   1.00
C114   C     0.08970   0.18803   0.26053   0.00000  Uiso   1.00
C115   C     0.07811   0.15738   0.36024   0.00000  Uiso   1.00
H116   H     0.21803   0.00655   0.16425   0.00000  Uiso   1.00
H117   H     0.17245   0.93589   0.00455   0.00000  Uiso   1.00
H118   H     0.32425   0.05917   0.14769   0.00000  Uiso   1.00
H119   H     0.16491   0.00656   0.34937   0.00000  Uiso   1.00
H120   H     0.11013   0.88603   0.81352   0.00000  Uiso   1.00
H121   H     0.43022   0.14597   0.11539   0.00000  Uiso   1.00
H122   H     0.09422   0.03504   0.54068   0.00000  Uiso   1.00
H123   H     0.12711   0.22594   0.05682   0.00000  Uiso   1.00
H124   H     0.07653   0.16732   0.89121   0.00000  Uiso   1.00
H125   H     0.22834   0.29059   0.03436   0.00000  Uiso   1.00
H126   H     0.06900   0.23799   0.23604   0.00000  Uiso   1.00
H127   H     0.03228   0.07387   0.72153   0.00000  Uiso   1.00
H128   H     0.35237   0.33380   0.02340   0.00000  Uiso   1.00
H129   H     0.01637   0.22288   0.44869   0.00000  Uiso   1.00
O130   O     0.03959   0.93744   0.66050   0.00000  Uiso   1.00
O131   O     0.45953   0.27846   0.05656   0.00000  Uiso   1.00
O132   O     0.01871   0.13292   0.61453   0.00000  Uiso   1.00
N133   N     0.09874   0.93828   0.81461   0.00000  Uiso   1.00
N134   N     0.39800   0.18130   0.09682   0.00000  Uiso   1.00
N135   N     0.08389   0.07760   0.49444   0.00000  Uiso   1.00
N136   N     0.05684   0.03936   0.76511   0.00000  Uiso   1.00
N137   N     0.35611   0.28237   0.04732   0.00000  Uiso   1.00
N138   N     0.04200   0.17868   0.44494   0.00000  Uiso   1.00
C139   C     0.30280   0.94319   0.63964   0.00000  Uiso   1.00
C140   C     0.34018   0.95116   0.53797   0.00000  Uiso   1.00
C141   C     0.34827   0.01416   0.48006   0.00000  Uiso   1.00
C142   C     0.38411   0.01031   0.38929   0.00000  Uiso   1.00
C143   C     0.43806   0.03249   0.23621   0.00000  Uiso   1.00
C144   C     0.25770   0.88418   0.61573   0.00000  Uiso   1.00
C145   C     0.19644   0.89087   0.62322   0.00000  Uiso   1.00
C146   C     0.16284   0.83063   0.59792   0.00000  Uiso   1.00
C147   C     0.08874   0.74882   0.56565   0.00000  Uiso   1.00
C148   C     0.34428   0.91277   0.72531   0.00000  Uiso   1.00
C149   C     0.35580   0.94348   0.82494   0.00000  Uiso   1.00
C150   C     0.39509   0.90730   0.89191   0.00000  Uiso   1.00
C151   C     0.45540   0.86988   0.02976   0.00000  Uiso   1.00
C152   C     0.35206   0.82432   0.58143   0.00000  Uiso   1.00
C153   C     0.36694   0.88659   0.50636   0.00000  Uiso   1.00
C154   C     0.40277   0.88265   0.41566   0.00000  Uiso   1.00
C155   C     0.41092   0.94563   0.35762   0.00000  Uiso   1.00
C156   C     0.28445   0.81962   0.58412   0.00000  Uiso   1.00
C157   C     0.25094   0.75936   0.55882   0.00000  Uiso   1.00
C158   C     0.18965   0.76595   0.56625   0.00000  Uiso   1.00
C159   C     0.37104   0.84821   0.69369   0.00000  Uiso   1.00
C160   C     0.41030   0.81197   0.76053   0.00000  Uiso   1.00
C161   C     0.42189   0.84262   0.86024   0.00000  Uiso   1.00
H162   H     0.28197   0.99345   0.66425   0.00000  Uiso   1.00
H163   H     0.32755   0.06411   0.50455   0.00000  Uiso   1.00
H164   H     0.17575   0.94083   0.64769   0.00000  Uiso   1.00
H165   H     0.33509   0.99344   0.84937   0.00000  Uiso   1.00
H166   H     0.38987   0.11397   0.31352   0.00000  Uiso   1.00
H167   H     0.06978   0.85403   0.61539   0.00000  Uiso   1.00
H168   H     0.40578   0.96496   0.04068   0.00000  Uiso   1.00
H169   H     0.37289   0.77406   0.55682   0.00000  Uiso   1.00
H170   H     0.42347   0.83268   0.39121   0.00000  Uiso   1.00
H171   H     0.27166   0.70941   0.53436   0.00000  Uiso   1.00
H172   H     0.43100   0.76201   0.73604   0.00000  Uiso   1.00
H173   H     0.46772   0.92613   0.22153   0.00000  Uiso   1.00
H174   H     0.14763   0.66620   0.52340   0.00000  Uiso   1.00
H175   H     0.48363   0.77712   0.94869   0.00000  Uiso   1.00
O176   O     0.46041   0.06256   0.16050   0.00000  Uiso   1.00
O177   O     0.04047   0.72154   0.55656   0.00000  Uiso   1.00
O178   O     0.48129   0.86708   0.11453   0.00000  Uiso   1.00
N179   N     0.40126   0.06172   0.31461   0.00000  Uiso   1.00
N180   N     0.10200   0.81870   0.59682   0.00000  Uiso   1.00
N181   N     0.41611   0.92240   0.99444   0.00000  Uiso   1.00
N182   N     0.44316   0.96064   0.26511   0.00000  Uiso   1.00
N183   N     0.14389   0.71763   0.54732   0.00000  Uiso   1.00
N184   N     0.45800   0.82132   0.94494   0.00000  Uiso   1.00
C185   C     0.19720   0.44319   0.63964   0.00000  Uiso   1.00
C186   C     0.15982   0.45116   0.53797   0.00000  Uiso   1.00
C187   C     0.15173   0.51416   0.48006   0.00000  Uiso   1.00
C188   C     0.11589   0.51031   0.38929   0.00000  Uiso   1.00
C189   C     0.06194   0.53249   0.23621   0.00000  Uiso   1.00
C190   C     0.24230   0.38418   0.61573   0.00000  Uiso   1.00
C191   C     0.30356   0.39087   0.62322   0.00000  Uiso   1.00
C192   C     0.33716   0.33063   0.59792   0.00000  Uiso   1.00
C193   C     0.41126   0.24882   0.56565   0.00000  Uiso   1.00
C194   C     0.15572   0.41277   0.72531   0.00000  Uiso   1.00
C195   C     0.14420   0.44348   0.82494   0.00000  Uiso   1.00
C196   C     0.10491   0.40730   0.89191   0.00000  Uiso   1.00
C197   C     0.04460   0.36988   0.02976   0.00000  Uiso   1.00
C198   C     0.14794   0.32432   0.58143   0.00000  Uiso   1.00
C199   C     0.13306   0.38659   0.50636   0.00000  Uiso   1.00
C200   C     0.09723   0.38265   0.41566   0.00000  Uiso   1.00
C201   C     0.08908   0.44563   0.35762   0.00000  Uiso   1.00
C202   C     0.21555   0.31962   0.58412   0.00000  Uiso   1.00
C203   C     0.24906   0.25936   0.55882   0.00000  Uiso   1.00
C204   C     0.31035   0.26595   0.56625   0.00000  Uiso   1.00
C205   C     0.12896   0.34821   0.69369   0.00000  Uiso   1.00
C206   C     0.08970   0.31197   0.76053   0.00000  Uiso   1.00
C207   C     0.07811   0.34262   0.86024   0.00000  Uiso   1.00
H208   H     0.21803   0.49345   0.66425   0.00000  Uiso   1.00
H209   H     0.17245   0.56411   0.50455   0.00000  Uiso   1.00
H210   H     0.32425   0.44083   0.64769   0.00000  Uiso   1.00
H211   H     0.16491   0.49344   0.84937   0.00000  Uiso   1.00
H212   H     0.11013   0.61397   0.31352   0.00000  Uiso   1.00
H213   H     0.43022   0.35403   0.61539   0.00000  Uiso   1.00
H214   H     0.09422   0.46496   0.04068   0.00000  Uiso   1.00
H215   H     0.12711   0.27406   0.55682   0.00000  Uiso   1.00
H216   H     0.07653   0.33268   0.39121   0.00000  Uiso   1.00
H217   H     0.22834   0.20941   0.53436   0.00000  Uiso   1.00
H218   H     0.06900   0.26201   0.73604   0.00000  Uiso   1.00
H219   H     0.03228   0.42613   0.22153   0.00000  Uiso   1.00
H220   H     0.35237   0.16620   0.52340   0.00000  Uiso   1.00
H221   H     0.01637   0.27712   0.94869   0.00000  Uiso   1.00
O222   O     0.03959   0.56256   0.16050   0.00000  Uiso   1.00
O223   O     0.45953   0.22154   0.55656   0.00000  Uiso   1.00
O224   O     0.01871   0.36708   0.11453   0.00000  Uiso   1.00
N225   N     0.09874   0.56172   0.31461   0.00000  Uiso   1.00
N226   N     0.39800   0.31870   0.59682   0.00000  Uiso   1.00
N227   N     0.08389   0.42240   0.99444   0.00000  Uiso   1.00
N228   N     0.05684   0.46064   0.26511   0.00000  Uiso   1.00
N229   N     0.35611   0.21763   0.54732   0.00000  Uiso   1.00
N230   N     0.04200   0.32132   0.94494   0.00000  Uiso   1.00
C231   C     0.30280   0.55681   0.13964   0.00000  Uiso   1.00
C232   C     0.34018   0.54884   0.03797   0.00000  Uiso   1.00
C233   C     0.34827   0.48584   0.98006   0.00000  Uiso   1.00
C234   C     0.38411   0.48969   0.88929   0.00000  Uiso   1.00
C235   C     0.43806   0.46751   0.73621   0.00000  Uiso   1.00
C236   C     0.25770   0.61582   0.11573   0.00000  Uiso   1.00
C237   C     0.19644   0.60913   0.12322   0.00000  Uiso   1.00
C238   C     0.16284   0.66937   0.09792   0.00000  Uiso   1.00
C239   C     0.08874   0.75118   0.06565   0.00000  Uiso   1.00
C240   C     0.34428   0.58723   0.22531   0.00000  Uiso   1.00
C241   C     0.35580   0.55652   0.32494   0.00000  Uiso   1.00
C242   C     0.39509   0.59270   0.39191   0.00000  Uiso   1.00
C243   C     0.45540   0.63012   0.52976   0.00000  Uiso   1.00
C244   C     0.35206   0.67568   0.08143   0.00000  Uiso   1.00
C245   C     0.36694   0.61341   0.00636   0.00000  Uiso   1.00
C246   C     0.40277   0.61735   0.91566   0.00000  Uiso   1.00
C247   C     0.41092   0.55437   0.85762   0.00000  Uiso   1.00
C248   C     0.28445   0.68038   0.08412   0.00000  Uiso   1.00
C249   C     0.25094   0.74064   0.05882   0.00000  Uiso   1.00
C250   C     0.18965   0.73405   0.06625   0.00000  Uiso   1.00
C251   C     0.37104   0.65179   0.19369   0.00000  Uiso   1.00
C252   C     0.41030   0.68803   0.26053   0.00000  Uiso   1.00
C253   C     0.42189   0.65738   0.36024   0.00000  Uiso   1.00
H254   H     0.28197   0.50655   0.16425   0.00000  Uiso   1.00
H255   H     0.32755   0.43589   0.00455   0.00000  Uiso   1.00
H256   H     0.17575   0.55917   0.14769   0.00000  Uiso   1.00
H257   H     0.33509   0.50656   0.34937   0.00000  Uiso   1.00
H258   H     0.38987   0.38603   0.81352   0.00000  Uiso   1.00
H259   H     0.06978   0.64597   0.11539   0.00000  Uiso   1.00
H260   H     0.40578   0.53504   0.54068   0.00000  Uiso   1.00
H261   H     0.37289   0.72594   0.05682   0.00000  Uiso   1.00
H262   H     0.42347   0.66732   0.89121   0.00000  Uiso   1.00
H263   H     0.27166   0.79059   0.03436   0.00000  Uiso   1.00
H264   H     0.43100   0.73799   0.23604   0.00000  Uiso   1.00
H265   H     0.46772   0.57387   0.72153   0.00000  Uiso   1.00
H266   H     0.14763   0.83380   0.02340   0.00000  Uiso   1.00
H267   H     0.48363   0.72288   0.44869   0.00000  Uiso   1.00
O268   O     0.46041   0.43744   0.66050   0.00000  Uiso   1.00
O269   O     0.04047   0.77846   0.05656   0.00000  Uiso   1.00
O270   O     0.48129   0.63292   0.61453   0.00000  Uiso   1.00
N271   N     0.40126   0.43828   0.81461   0.00000  Uiso   1.00
N272   N     0.10200   0.68130   0.09682   0.00000  Uiso   1.00
N273   N     0.41611   0.57760   0.49444   0.00000  Uiso   1.00
N274   N     0.44316   0.53936   0.76511   0.00000  Uiso   1.00
N275   N     0.14389   0.78237   0.04732   0.00000  Uiso   1.00
N276   N     0.45800   0.67868   0.44494   0.00000  Uiso   1.00
C277   C     0.80280   0.94319   0.86036   0.00000  Uiso   1.00
C278   C     0.84018   0.95116   0.96203   0.00000  Uiso   1.00
C279   C     0.84827   0.01416   0.01994   0.00000  Uiso   1.00
C280   C     0.88411   0.01031   0.11071   0.00000  Uiso   1.00
C281   C     0.93806   0.03249   0.26379   0.00000  Uiso   1.00
C282   C     0.75770   0.88418   0.88427   0.00000  Uiso   1.00
C283   C     0.69644   0.89087   0.87678   0.00000  Uiso   1.00
C284   C     0.66284   0.83063   0.90208   0.00000  Uiso   1.00
C285   C     0.58874   0.74882   0.93435   0.00000  Uiso   1.00
C286   C     0.84428   0.91277   0.77469   0.00000  Uiso   1.00
C287   C     0.85580   0.94348   0.67506   0.00000  Uiso   1.00
C288   C     0.89509   0.90730   0.60809   0.00000  Uiso   1.00
C289   C     0.95540   0.86988   0.47024   0.00000  Uiso   1.00
C290   C     0.85206   0.82432   0.91857   0.00000  Uiso   1.00
C291   C     0.86694   0.88659   0.99364   0.00000  Uiso   1.00
C292   C     0.90277   0.88265   0.08434   0.00000  Uiso   1.00
C293   C     0.91092   0.94563   0.14238   0.00000  Uiso   1.00
C294   C     0.78445   0.81962   0.91588   0.00000  Uiso   1.00
C295   C     0.75094   0.75936   0.94118   0.00000  Uiso   1.00
C296   C     0.68965   0.76595   0.93375   0.00000  Uiso   1.00
C297   C     0.87104   0.84821   0.80631   0.00000  Uiso   1.00
C298   C     0.91030   0.81197   0.73947   0.00000  Uiso   1.00
C299   C     0.92189   0.84262   0.63976   0.00000  Uiso   1.00
H300   H     0.78197   0.99345   0.83575   0.00000  Uiso   1.00
H301   H     0.82755   0.06411   0.99545   0.00000  Uiso   1.00
H302   H     0.67575   0.94083   0.85231   0.00000  Uiso   1.00
H303   H     0.83509   0.99344   0.65063   0.00000  Uiso   1.00
H304   H     0.88987   0.11397   0.18648   0.00000  Uiso   1.00
H305   H     0.56978   0.85403   0.88461   0.00000  Uiso   1.00
H306   H     0.90578   0.96496   0.45932   0.00000  Uiso   1.00
H307   H     0.87289   0.77406   0.94318   0.00000  Uiso   1.00
H308   H     0.92347   0.83268   0.10879   0.00000  Uiso   1.00
H309   H     0.77166   0.70941   0.96564   0.00000  Uiso   1.00
H310   H     0.93100   0.76201   0.76396   0.00000  Uiso   1.00
H311   H     0.96772   0.92613   0.27847   0.00000  Uiso   1.00
H312   H     0.64763   0.66620   0.97660   0.00000  Uiso   1.00
H313   H     0.98363   0.77712   0.55131   0.00000  Uiso   1.00
O314   O     0.96041   0.06256   0.33950   0.00000  Uiso   1.00
O315   O     0.54047   0.72154   0.94344   0.00000  Uiso   1.00
O316   O     0.98129   0.86708   0.38547   0.00000  Uiso   1.00
N317   N     0.90126   0.06172   0.18539   0.00000  Uiso   1.00
N318   N     0.60200   0.81870   0.90318   0.00000  Uiso   1.00
N319   N     0.91611   0.92240   0.50556   0.00000  Uiso   1.00
N320   N     0.94316   0.96064   0.23489   0.00000  Uiso   1.00
N321   N     0.64389   0.71763   0.95268   0.00000  Uiso   1.00
N322   N     0.95800   0.82132   0.55506   0.00000  Uiso   1.00
C323   C     0.69720   0.05681   0.36036   0.00000  Uiso   1.00
C324   C     0.65982   0.04884   0.46203   0.00000  Uiso   1.00
C325   C     0.65173   0.98584   0.51994   0.00000  Uiso   1.00
C326   C     0.61589   0.98969   0.61071   0.00000  Uiso   1.00
C327   C     0.56194   0.96751   0.76379   0.00000  Uiso   1.00
C328   C     0.74230   0.11582   0.38427   0.00000  Uiso   1.00
C329   C     0.80356   0.10913   0.37678   0.00000  Uiso   1.00
C330   C     0.83716   0.16937   0.40208   0.00000  Uiso   1.00
C331   C     0.91126   0.25118   0.43435   0.00000  Uiso   1.00
C332   C     0.65572   0.08723   0.27469   0.00000  Uiso   1.00
C333   C     0.64420   0.05652   0.17506   0.00000  Uiso   1.00
C334   C     0.60491   0.09270   0.10809   0.00000  Uiso   1.00
C335   C     0.54460   0.13012   0.97024   0.00000  Uiso   1.00
C336   C     0.64794   0.17568   0.41857   0.00000  Uiso   1.00
C337   C     0.63306   0.11341   0.49364   0.00000  Uiso   1.00
C338   C     0.59723   0.11735   0.58434   0.00000  Uiso   1.00
C339   C     0.58908   0.05437   0.64238   0.00000  Uiso   1.00
C340   C     0.71555   0.18038   0.41588   0.00000  Uiso   1.00
C341   C     0.74906   0.24064   0.44118   0.00000  Uiso   1.00
C342   C     0.81035   0.23405   0.43375   0.00000  Uiso   1.00
C343   C     0.62896   0.15179   0.30631   0.00000  Uiso   1.00
C344   C     0.58970   0.18803   0.23947   0.00000  Uiso   1.00
C345   C     0.57811   0.15738   0.13976   0.00000  Uiso   1.00
H346   H     0.71803   0.00655   0.33575   0.00000  Uiso   1.00
H347   H     0.67245   0.93589   0.49545   0.00000  Uiso   1.00
H348   H     0.82425   0.05917   0.35231   0.00000  Uiso   1.00
H349   H     0.66491   0.00656   0.15063   0.00000  Uiso   1.00
H350   H     0.61013   0.88603   0.68648   0.00000  Uiso   1.00
H351   H     0.93022   0.14597   0.38461   0.00000  Uiso   1.00
H352   H     0.59422   0.03504   0.95932   0.00000  Uiso   1.00
H353   H     0.62711   0.22594   0.44318   0.00000  Uiso   1.00
H354   H     0.57653   0.16732   0.60879   0.00000  Uiso   1.00
H355   H     0.72834   0.29059   0.46564   0.00000  Uiso   1.00
H356   H     0.56900   0.23799   0.26396   0.00000  Uiso   1.00
H357   H     0.53228   0.07387   0.77847   0.00000  Uiso   1.00
H358   H     0.85237   0.33380   0.47660   0.00000  Uiso   1.00
H359   H     0.51637   0.22288   0.05131   0.00000  Uiso   1.00
O360   O     0.53959   0.93744   0.83950   0.00000  Uiso   1.00
O361   O     0.95953   0.27846   0.44344   0.00000  Uiso   1.00
O362   O     0.51871   0.13292   0.88547   0.00000  Uiso   1.00
N363   N     0.59874   0.93828   0.68539   0.00000  Uiso   1.00
N364   N     0.89800   0.18130   0.40318   0.00000  Uiso   1.00
N365   N     0.58389   0.07760   0.00556   0.00000  Uiso   1.00
N366   N     0.55684   0.03936   0.73489   0.00000  Uiso   1.00
N367   N     0.85611   0.28237   0.45268   0.00000  Uiso   1.00
N368   N     0.54200   0.17868   0.05506   0.00000  Uiso   1.00
