data_job_01858
_audit_creation_date              2018-12-19
_audit_creation_method            'Materials Studio'
_symmetry_space_group_name_H-M    'P1'
_symmetry_Int_Tables_number       1
_symmetry_cell_setting            triclinic
loop_
_symmetry_equiv_pos_as_xyz
  x,y,z
_cell_length_a                    12.5588
_cell_length_b                    15.2021
_cell_length_c                    30.2310
_cell_angle_alpha                 90.0000
_cell_angle_beta                  86.2130
_cell_angle_gamma                 90.0000
loop_
_atom_site_label
_atom_site_type_symbol
_atom_site_fract_x
_atom_site_fract_y
_atom_site_fract_z
_atom_site_U_iso_or_equiv
_atom_site_adp_type
_atom_site_occupancy
C1     C     0.35152   0.75549   0.64026   0.00000  Uiso   1.00
C2     C     0.45666   0.71665   0.65361   0.00000  Uiso   1.00
C3     C     0.51558   0.74659   0.68783   0.00000  Uiso   1.00
C4     C     0.60963   0.70218   0.69476   0.00000  Uiso   1.00
C5     C     0.76777   0.65282   0.71949   0.00000  Uiso   1.00
C6     C     0.36912   0.77932   0.59132   0.00000  Uiso   1.00
C7     C     0.35443   0.86194   0.57317   0.00000  Uiso   1.00
C8     C     0.37478   0.87026   0.52766   0.00000  Uiso   1.00
C9     C     0.39694   0.91818   0.45568   0.00000  Uiso   1.00
C10    C     0.27145   0.67996   0.64256   0.00000  Uiso   1.00
C11    C     0.17460   0.67904   0.66749   0.00000  Uiso   1.00
C12    C     0.11270   0.60372   0.66511   0.00000  Uiso   1.00
C13    C     0.98321   0.49737   0.67270   0.00000  Uiso   1.00
C14    C     0.41378   0.62337   0.59171   0.00000  Uiso   1.00
C15    C     0.49047   0.64489   0.62724   0.00000  Uiso   1.00
C16    C     0.58446   0.60042   0.63412   0.00000  Uiso   1.00
C17    C     0.64351   0.63028   0.66834   0.00000  Uiso   1.00
C18    C     0.40294   0.70756   0.56495   0.00000  Uiso   1.00
C19    C     0.42331   0.71577   0.51946   0.00000  Uiso   1.00
C20    C     0.40866   0.79838   0.50124   0.00000  Uiso   1.00
C21    C     0.30526   0.60819   0.61619   0.00000  Uiso   1.00
C22    C     0.24349   0.53287   0.61378   0.00000  Uiso   1.00
C23    C     0.14658   0.53184   0.63869   0.00000  Uiso   1.00
H24    H     0.32519   0.81136   0.66078   0.00000  Uiso   1.00
H25    H     0.48938   0.80213   0.70823   0.00000  Uiso   1.00
H26    H     0.32825   0.91745   0.59358   0.00000  Uiso   1.00
H27    H     0.14846   0.73459   0.68789   0.00000  Uiso   1.00
H28    H     0.68635   0.76028   0.74919   0.00000  Uiso   1.00
H29    H     0.34656   0.00344   0.50745   0.00000  Uiso   1.00
H30    H     0.96744   0.61782   0.70632   0.00000  Uiso   1.00
H31    H     0.44011   0.56750   0.57118   0.00000  Uiso   1.00
H32    H     0.61061   0.54489   0.61371   0.00000  Uiso   1.00
H33    H     0.44947   0.66022   0.49906   0.00000  Uiso   1.00
H34    H     0.26969   0.47735   0.59337   0.00000  Uiso   1.00
H35    H     0.78475   0.55149   0.67247   0.00000  Uiso   1.00
H36    H     0.44495   0.79465   0.43073   0.00000  Uiso   1.00
H37    H     0.06583   0.40904   0.62960   0.00000  Uiso   1.00
O38    O     0.84566   0.64543   0.74041   0.00000  Uiso   1.00
O39    O     0.39984   0.96444   0.42327   0.00000  Uiso   1.00
O40    O     0.90245   0.45853   0.68417   0.00000  Uiso   1.00
N41    N     0.68610   0.71423   0.72530   0.00000  Uiso   1.00
N42    N     0.36843   0.94158   0.49929   0.00000  Uiso   1.00
N43    N     0.01397   0.58107   0.68521   0.00000  Uiso   1.00
N44    N     0.73905   0.60189   0.68402   0.00000  Uiso   1.00
N45    N     0.42137   0.82923   0.45801   0.00000  Uiso   1.00
N46    N     0.06691   0.46872   0.64393   0.00000  Uiso   1.00
C47    C     0.67523   0.92858   0.84677   0.00000  Uiso   1.00
C48    C     0.56886   0.89100   0.83410   0.00000  Uiso   1.00
C49    C     0.50928   0.92155   0.80022   0.00000  Uiso   1.00
C50    C     0.41412   0.87827   0.79391   0.00000  Uiso   1.00
C51    C     0.25414   0.83078   0.77019   0.00000  Uiso   1.00
C52    C     0.65970   0.95277   0.89573   0.00000  Uiso   1.00
C53    C     0.67651   0.03525   0.91367   0.00000  Uiso   1.00
C54    C     0.65784   0.04396   0.95924   0.00000  Uiso   1.00
C55    C     0.63897   0.09236   0.03120   0.00000  Uiso   1.00
C56    C     0.75391   0.85208   0.84410   0.00000  Uiso   1.00
C57    C     0.84996   0.84990   0.81864   0.00000  Uiso   1.00
C58    C     0.91063   0.77384   0.82075   0.00000  Uiso   1.00
C59    C     0.03804   0.66590   0.81256   0.00000  Uiso   1.00
C60    C     0.61218   0.79738   0.89581   0.00000  Uiso   1.00
C61    C     0.53461   0.81974   0.86074   0.00000  Uiso   1.00
C62    C     0.43952   0.77639   0.85448   0.00000  Uiso   1.00
C63    C     0.37981   0.80688   0.82059   0.00000  Uiso   1.00
C64    C     0.62545   0.88151   0.92237   0.00000  Uiso   1.00
C65    C     0.60676   0.89010   0.96792   0.00000  Uiso   1.00
C66    C     0.62354   0.97257   0.98592   0.00000  Uiso   1.00
C67    C     0.71967   0.78081   0.87074   0.00000  Uiso   1.00
C68    C     0.78020   0.70475   0.87289   0.00000  Uiso   1.00
C69    C     0.87632   0.70246   0.84744   0.00000  Uiso   1.00
H70    H     0.70189   0.98406   0.82604   0.00000  Uiso   1.00
H71    H     0.53580   0.97671   0.77962   0.00000  Uiso   1.00
H72    H     0.70302   0.09038   0.89305   0.00000  Uiso   1.00
H73    H     0.87644   0.90506   0.79803   0.00000  Uiso   1.00
H74    H     0.33654   0.93714   0.73990   0.00000  Uiso   1.00
H75    H     0.68917   0.17683   0.97908   0.00000  Uiso   1.00
H76    H     0.05486   0.78605   0.77872   0.00000  Uiso   1.00
H77    H     0.58552   0.74190   0.91655   0.00000  Uiso   1.00
H78    H     0.41304   0.72125   0.87509   0.00000  Uiso   1.00
H79    H     0.58027   0.83494   0.98852   0.00000  Uiso   1.00
H80    H     0.75368   0.64961   0.89351   0.00000  Uiso   1.00
H81    H     0.23690   0.72981   0.81740   0.00000  Uiso   1.00
H82    H     0.58954   0.96950   0.05657   0.00000  Uiso   1.00
H83    H     0.95522   0.57871   0.85622   0.00000  Uiso   1.00
O84    O     0.17534   0.82428   0.74976   0.00000  Uiso   1.00
O85    O     0.63801   0.13874   0.06354   0.00000  Uiso   1.00
O86    O     0.11777   0.62604   0.80068   0.00000  Uiso   1.00
N87    N     0.33677   0.89117   0.76383   0.00000  Uiso   1.00
N88    N     0.66645   0.11527   0.98744   0.00000  Uiso   1.00
N89    N     0.00834   0.74993   0.80013   0.00000  Uiso   1.00
N90    N     0.28316   0.77960   0.80552   0.00000  Uiso   1.00
N91    N     0.61283   0.00371   0.02914   0.00000  Uiso   1.00
N92    N     0.95473   0.63836   0.84183   0.00000  Uiso   1.00
C93    C     0.85152   0.25549   0.64026   0.00000  Uiso   1.00
C94    C     0.95666   0.21665   0.65361   0.00000  Uiso   1.00
C95    C     0.01558   0.24659   0.68783   0.00000  Uiso   1.00
C96    C     0.10963   0.20218   0.69476   0.00000  Uiso   1.00
C97    C     0.26777   0.15282   0.71949   0.00000  Uiso   1.00
C98    C     0.86912   0.27932   0.59132   0.00000  Uiso   1.00
C99    C     0.85443   0.36194   0.57317   0.00000  Uiso   1.00
C100   C     0.87478   0.37026   0.52766   0.00000  Uiso   1.00
C101   C     0.89694   0.41818   0.45568   0.00000  Uiso   1.00
C102   C     0.77145   0.17996   0.64256   0.00000  Uiso   1.00
C103   C     0.67460   0.17904   0.66749   0.00000  Uiso   1.00
C104   C     0.61270   0.10372   0.66511   0.00000  Uiso   1.00
C105   C     0.48321   0.99737   0.67270   0.00000  Uiso   1.00
C106   C     0.91378   0.12337   0.59171   0.00000  Uiso   1.00
C107   C     0.99047   0.14489   0.62724   0.00000  Uiso   1.00
C108   C     0.08446   0.10042   0.63412   0.00000  Uiso   1.00
C109   C     0.14351   0.13028   0.66834   0.00000  Uiso   1.00
C110   C     0.90294   0.20756   0.56495   0.00000  Uiso   1.00
C111   C     0.92331   0.21577   0.51946   0.00000  Uiso   1.00
C112   C     0.90866   0.29838   0.50124   0.00000  Uiso   1.00
C113   C     0.80526   0.10819   0.61619   0.00000  Uiso   1.00
C114   C     0.74349   0.03287   0.61378   0.00000  Uiso   1.00
C115   C     0.64658   0.03184   0.63869   0.00000  Uiso   1.00
H116   H     0.82519   0.31136   0.66078   0.00000  Uiso   1.00
H117   H     0.98938   0.30213   0.70823   0.00000  Uiso   1.00
H118   H     0.82825   0.41745   0.59358   0.00000  Uiso   1.00
H119   H     0.64846   0.23459   0.68789   0.00000  Uiso   1.00
H120   H     0.18635   0.26028   0.74919   0.00000  Uiso   1.00
H121   H     0.84656   0.50344   0.50745   0.00000  Uiso   1.00
H122   H     0.46744   0.11782   0.70632   0.00000  Uiso   1.00
H123   H     0.94011   0.06750   0.57118   0.00000  Uiso   1.00
H124   H     0.11061   0.04489   0.61371   0.00000  Uiso   1.00
H125   H     0.94947   0.16022   0.49906   0.00000  Uiso   1.00
H126   H     0.76969   0.97735   0.59337   0.00000  Uiso   1.00
H127   H     0.28475   0.05149   0.67247   0.00000  Uiso   1.00
H128   H     0.94495   0.29465   0.43073   0.00000  Uiso   1.00
H129   H     0.56583   0.90904   0.62960   0.00000  Uiso   1.00
O130   O     0.34566   0.14543   0.74041   0.00000  Uiso   1.00
O131   O     0.89984   0.46444   0.42327   0.00000  Uiso   1.00
O132   O     0.40245   0.95853   0.68417   0.00000  Uiso   1.00
N133   N     0.18610   0.21423   0.72530   0.00000  Uiso   1.00
N134   N     0.86843   0.44158   0.49929   0.00000  Uiso   1.00
N135   N     0.51397   0.08107   0.68521   0.00000  Uiso   1.00
N136   N     0.23905   0.10189   0.68402   0.00000  Uiso   1.00
N137   N     0.92137   0.32923   0.45801   0.00000  Uiso   1.00
N138   N     0.56691   0.96872   0.64393   0.00000  Uiso   1.00
C139   C     0.17523   0.42858   0.84677   0.00000  Uiso   1.00
C140   C     0.06886   0.39100   0.83410   0.00000  Uiso   1.00
C141   C     0.00928   0.42155   0.80022   0.00000  Uiso   1.00
C142   C     0.91412   0.37827   0.79391   0.00000  Uiso   1.00
C143   C     0.75414   0.33078   0.77019   0.00000  Uiso   1.00
C144   C     0.15970   0.45277   0.89573   0.00000  Uiso   1.00
C145   C     0.17651   0.53525   0.91367   0.00000  Uiso   1.00
C146   C     0.15784   0.54396   0.95924   0.00000  Uiso   1.00
C147   C     0.13897   0.59236   0.03120   0.00000  Uiso   1.00
C148   C     0.25391   0.35208   0.84410   0.00000  Uiso   1.00
C149   C     0.34996   0.34990   0.81864   0.00000  Uiso   1.00
C150   C     0.41063   0.27384   0.82075   0.00000  Uiso   1.00
C151   C     0.53804   0.16590   0.81256   0.00000  Uiso   1.00
C152   C     0.11218   0.29738   0.89581   0.00000  Uiso   1.00
C153   C     0.03461   0.31974   0.86074   0.00000  Uiso   1.00
C154   C     0.93952   0.27639   0.85448   0.00000  Uiso   1.00
C155   C     0.87981   0.30688   0.82059   0.00000  Uiso   1.00
C156   C     0.12545   0.38151   0.92237   0.00000  Uiso   1.00
C157   C     0.10676   0.39010   0.96792   0.00000  Uiso   1.00
C158   C     0.12354   0.47257   0.98592   0.00000  Uiso   1.00
C159   C     0.21967   0.28081   0.87074   0.00000  Uiso   1.00
C160   C     0.28020   0.20475   0.87289   0.00000  Uiso   1.00
C161   C     0.37632   0.20246   0.84744   0.00000  Uiso   1.00
H162   H     0.20189   0.48406   0.82604   0.00000  Uiso   1.00
H163   H     0.03580   0.47671   0.77962   0.00000  Uiso   1.00
H164   H     0.20302   0.59038   0.89305   0.00000  Uiso   1.00
H165   H     0.37644   0.40506   0.79803   0.00000  Uiso   1.00
H166   H     0.83654   0.43714   0.73990   0.00000  Uiso   1.00
H167   H     0.18917   0.67683   0.97908   0.00000  Uiso   1.00
H168   H     0.55486   0.28605   0.77872   0.00000  Uiso   1.00
H169   H     0.08552   0.24190   0.91655   0.00000  Uiso   1.00
H170   H     0.91304   0.22125   0.87509   0.00000  Uiso   1.00
H171   H     0.08027   0.33494   0.98852   0.00000  Uiso   1.00
H172   H     0.25368   0.14961   0.89351   0.00000  Uiso   1.00
H173   H     0.73690   0.22981   0.81740   0.00000  Uiso   1.00
H174   H     0.08954   0.46950   0.05657   0.00000  Uiso   1.00
H175   H     0.45522   0.07871   0.85622   0.00000  Uiso   1.00
O176   O     0.67534   0.32428   0.74976   0.00000  Uiso   1.00
O177   O     0.13801   0.63874   0.06354   0.00000  Uiso   1.00
O178   O     0.61777   0.12604   0.80068   0.00000  Uiso   1.00
N179   N     0.83677   0.39117   0.76383   0.00000  Uiso   1.00
N180   N     0.16645   0.61527   0.98744   0.00000  Uiso   1.00
N181   N     0.50834   0.24993   0.80013   0.00000  Uiso   1.00
N182   N     0.78316   0.27960   0.80552   0.00000  Uiso   1.00
N183   N     0.11283   0.50371   0.02914   0.00000  Uiso   1.00
N184   N     0.45473   0.13836   0.84183   0.00000  Uiso   1.00
C185   C     0.35152   0.24451   0.14026   0.00000  Uiso   1.00
C186   C     0.45666   0.28335   0.15361   0.00000  Uiso   1.00
C187   C     0.51558   0.25341   0.18783   0.00000  Uiso   1.00
C188   C     0.60963   0.29782   0.19476   0.00000  Uiso   1.00
C189   C     0.76777   0.34718   0.21949   0.00000  Uiso   1.00
C190   C     0.36912   0.22068   0.09132   0.00000  Uiso   1.00
C191   C     0.35443   0.13806   0.07317   0.00000  Uiso   1.00
C192   C     0.37478   0.12974   0.02766   0.00000  Uiso   1.00
C193   C     0.39694   0.08182   0.95568   0.00000  Uiso   1.00
C194   C     0.27145   0.32004   0.14256   0.00000  Uiso   1.00
C195   C     0.17460   0.32096   0.16749   0.00000  Uiso   1.00
C196   C     0.11270   0.39628   0.16511   0.00000  Uiso   1.00
C197   C     0.98321   0.50263   0.17270   0.00000  Uiso   1.00
C198   C     0.41378   0.37663   0.09171   0.00000  Uiso   1.00
C199   C     0.49047   0.35511   0.12724   0.00000  Uiso   1.00
C200   C     0.58446   0.39958   0.13412   0.00000  Uiso   1.00
C201   C     0.64351   0.36972   0.16834   0.00000  Uiso   1.00
C202   C     0.40294   0.29244   0.06495   0.00000  Uiso   1.00
C203   C     0.42331   0.28423   0.01946   0.00000  Uiso   1.00
C204   C     0.40866   0.20162   0.00124   0.00000  Uiso   1.00
C205   C     0.30526   0.39181   0.11619   0.00000  Uiso   1.00
C206   C     0.24349   0.46713   0.11378   0.00000  Uiso   1.00
C207   C     0.14658   0.46816   0.13869   0.00000  Uiso   1.00
H208   H     0.32519   0.18864   0.16078   0.00000  Uiso   1.00
H209   H     0.48938   0.19787   0.20823   0.00000  Uiso   1.00
H210   H     0.32825   0.08255   0.09358   0.00000  Uiso   1.00
H211   H     0.14846   0.26541   0.18789   0.00000  Uiso   1.00
H212   H     0.68635   0.23972   0.24919   0.00000  Uiso   1.00
H213   H     0.34656   0.99656   0.00745   0.00000  Uiso   1.00
H214   H     0.96744   0.38218   0.20632   0.00000  Uiso   1.00
H215   H     0.44011   0.43250   0.07118   0.00000  Uiso   1.00
H216   H     0.61061   0.45511   0.11371   0.00000  Uiso   1.00
H217   H     0.44947   0.33978   0.99906   0.00000  Uiso   1.00
H218   H     0.26969   0.52265   0.09337   0.00000  Uiso   1.00
H219   H     0.78475   0.44851   0.17247   0.00000  Uiso   1.00
H220   H     0.44495   0.20535   0.93073   0.00000  Uiso   1.00
H221   H     0.06583   0.59096   0.12960   0.00000  Uiso   1.00
O222   O     0.84566   0.35457   0.24041   0.00000  Uiso   1.00
O223   O     0.39984   0.03556   0.92327   0.00000  Uiso   1.00
O224   O     0.90245   0.54147   0.18417   0.00000  Uiso   1.00
N225   N     0.68610   0.28577   0.22530   0.00000  Uiso   1.00
N226   N     0.36843   0.05842   0.99929   0.00000  Uiso   1.00
N227   N     0.01397   0.41893   0.18521   0.00000  Uiso   1.00
N228   N     0.73905   0.39811   0.18402   0.00000  Uiso   1.00
N229   N     0.42137   0.17077   0.95801   0.00000  Uiso   1.00
N230   N     0.06691   0.53128   0.14393   0.00000  Uiso   1.00
C231   C     0.67523   0.07142   0.34677   0.00000  Uiso   1.00
C232   C     0.56886   0.10900   0.33410   0.00000  Uiso   1.00
C233   C     0.50928   0.07845   0.30022   0.00000  Uiso   1.00
C234   C     0.41412   0.12173   0.29391   0.00000  Uiso   1.00
C235   C     0.25414   0.16922   0.27019   0.00000  Uiso   1.00
C236   C     0.65970   0.04723   0.39573   0.00000  Uiso   1.00
C237   C     0.67651   0.96475   0.41367   0.00000  Uiso   1.00
C238   C     0.65784   0.95604   0.45924   0.00000  Uiso   1.00
C239   C     0.63897   0.90764   0.53120   0.00000  Uiso   1.00
C240   C     0.75391   0.14792   0.34410   0.00000  Uiso   1.00
C241   C     0.84996   0.15010   0.31864   0.00000  Uiso   1.00
C242   C     0.91063   0.22616   0.32075   0.00000  Uiso   1.00
C243   C     0.03804   0.33410   0.31256   0.00000  Uiso   1.00
C244   C     0.61218   0.20262   0.39581   0.00000  Uiso   1.00
C245   C     0.53461   0.18026   0.36074   0.00000  Uiso   1.00
C246   C     0.43952   0.22361   0.35448   0.00000  Uiso   1.00
C247   C     0.37981   0.19312   0.32059   0.00000  Uiso   1.00
C248   C     0.62545   0.11849   0.42237   0.00000  Uiso   1.00
C249   C     0.60676   0.10990   0.46792   0.00000  Uiso   1.00
C250   C     0.62354   0.02743   0.48592   0.00000  Uiso   1.00
C251   C     0.71967   0.21919   0.37074   0.00000  Uiso   1.00
C252   C     0.78020   0.29525   0.37289   0.00000  Uiso   1.00
C253   C     0.87632   0.29754   0.34744   0.00000  Uiso   1.00
H254   H     0.70189   0.01594   0.32604   0.00000  Uiso   1.00
H255   H     0.53580   0.02329   0.27962   0.00000  Uiso   1.00
H256   H     0.70302   0.90962   0.39305   0.00000  Uiso   1.00
H257   H     0.87644   0.09494   0.29803   0.00000  Uiso   1.00
H258   H     0.33654   0.06286   0.23990   0.00000  Uiso   1.00
H259   H     0.68917   0.82317   0.47908   0.00000  Uiso   1.00
H260   H     0.05486   0.21395   0.27872   0.00000  Uiso   1.00
H261   H     0.58552   0.25810   0.41655   0.00000  Uiso   1.00
H262   H     0.41304   0.27875   0.37509   0.00000  Uiso   1.00
H263   H     0.58027   0.16506   0.48852   0.00000  Uiso   1.00
H264   H     0.75368   0.35039   0.39351   0.00000  Uiso   1.00
H265   H     0.23690   0.27019   0.31740   0.00000  Uiso   1.00
H266   H     0.58954   0.03050   0.55657   0.00000  Uiso   1.00
H267   H     0.95522   0.42129   0.35622   0.00000  Uiso   1.00
O268   O     0.17534   0.17572   0.24976   0.00000  Uiso   1.00
O269   O     0.63801   0.86126   0.56354   0.00000  Uiso   1.00
O270   O     0.11777   0.37396   0.30068   0.00000  Uiso   1.00
N271   N     0.33677   0.10883   0.26383   0.00000  Uiso   1.00
N272   N     0.66645   0.88473   0.48744   0.00000  Uiso   1.00
N273   N     0.00834   0.25007   0.30013   0.00000  Uiso   1.00
N274   N     0.28316   0.22040   0.30552   0.00000  Uiso   1.00
N275   N     0.61283   0.99629   0.52914   0.00000  Uiso   1.00
N276   N     0.95473   0.36164   0.34183   0.00000  Uiso   1.00
C277   C     0.85152   0.74451   0.14026   0.00000  Uiso   1.00
C278   C     0.95666   0.78335   0.15361   0.00000  Uiso   1.00
C279   C     0.01558   0.75341   0.18783   0.00000  Uiso   1.00
C280   C     0.10963   0.79782   0.19476   0.00000  Uiso   1.00
C281   C     0.26777   0.84718   0.21949   0.00000  Uiso   1.00
C282   C     0.86912   0.72068   0.09132   0.00000  Uiso   1.00
C283   C     0.85443   0.63806   0.07317   0.00000  Uiso   1.00
C284   C     0.87478   0.62974   0.02766   0.00000  Uiso   1.00
C285   C     0.89694   0.58182   0.95568   0.00000  Uiso   1.00
C286   C     0.77145   0.82004   0.14256   0.00000  Uiso   1.00
C287   C     0.67460   0.82096   0.16749   0.00000  Uiso   1.00
C288   C     0.61270   0.89628   0.16511   0.00000  Uiso   1.00
C289   C     0.48321   0.00263   0.17270   0.00000  Uiso   1.00
C290   C     0.91378   0.87663   0.09171   0.00000  Uiso   1.00
C291   C     0.99047   0.85511   0.12724   0.00000  Uiso   1.00
C292   C     0.08446   0.89958   0.13412   0.00000  Uiso   1.00
C293   C     0.14351   0.86972   0.16834   0.00000  Uiso   1.00
C294   C     0.90294   0.79244   0.06495   0.00000  Uiso   1.00
C295   C     0.92331   0.78423   0.01946   0.00000  Uiso   1.00
C296   C     0.90866   0.70162   0.00124   0.00000  Uiso   1.00
C297   C     0.80526   0.89181   0.11619   0.00000  Uiso   1.00
C298   C     0.74349   0.96713   0.11378   0.00000  Uiso   1.00
C299   C     0.64658   0.96816   0.13869   0.00000  Uiso   1.00
H300   H     0.82519   0.68864   0.16078   0.00000  Uiso   1.00
H301   H     0.98938   0.69787   0.20823   0.00000  Uiso   1.00
H302   H     0.82825   0.58255   0.09358   0.00000  Uiso   1.00
H303   H     0.64846   0.76541   0.18789   0.00000  Uiso   1.00
H304   H     0.18635   0.73972   0.24919   0.00000  Uiso   1.00
H305   H     0.84656   0.49656   0.00745   0.00000  Uiso   1.00
H306   H     0.46744   0.88218   0.20632   0.00000  Uiso   1.00
H307   H     0.94011   0.93250   0.07118   0.00000  Uiso   1.00
H308   H     0.11061   0.95511   0.11371   0.00000  Uiso   1.00
H309   H     0.94947   0.83978   0.99906   0.00000  Uiso   1.00
H310   H     0.76969   0.02265   0.09337   0.00000  Uiso   1.00
H311   H     0.28475   0.94851   0.17247   0.00000  Uiso   1.00
H312   H     0.94495   0.70535   0.93073   0.00000  Uiso   1.00
H313   H     0.56583   0.09096   0.12960   0.00000  Uiso   1.00
O314   O     0.34566   0.85457   0.24041   0.00000  Uiso   1.00
O315   O     0.89984   0.53556   0.92327   0.00000  Uiso   1.00
O316   O     0.40245   0.04147   0.18417   0.00000  Uiso   1.00
N317   N     0.18610   0.78577   0.22530   0.00000  Uiso   1.00
N318   N     0.86843   0.55842   0.99929   0.00000  Uiso   1.00
N319   N     0.51397   0.91893   0.18521   0.00000  Uiso   1.00
N320   N     0.23905   0.89811   0.18402   0.00000  Uiso   1.00
N321   N     0.92137   0.67077   0.95801   0.00000  Uiso   1.00
N322   N     0.56691   0.03128   0.14393   0.00000  Uiso   1.00
C323   C     0.17523   0.57142   0.34677   0.00000  Uiso   1.00
C324   C     0.06886   0.60900   0.33410   0.00000  Uiso   1.00
C325   C     0.00928   0.57845   0.30022   0.00000  Uiso   1.00
C326   C     0.91412   0.62173   0.29391   0.00000  Uiso   1.00
C327   C     0.75414   0.66922   0.27019   0.00000  Uiso   1.00
C328   C     0.15970   0.54723   0.39573   0.00000  Uiso   1.00
C329   C     0.17651   0.46475   0.41367   0.00000  Uiso   1.00
C330   C     0.15784   0.45604   0.45924   0.00000  Uiso   1.00
C331   C     0.13897   0.40764   0.53120   0.00000  Uiso   1.00
C332   C     0.25391   0.64792   0.34410   0.00000  Uiso   1.00
C333   C     0.34996   0.65010   0.31864   0.00000  Uiso   1.00
C334   C     0.41063   0.72616   0.32075   0.00000  Uiso   1.00
C335   C     0.53804   0.83410   0.31256   0.00000  Uiso   1.00
C336   C     0.11218   0.70262   0.39581   0.00000  Uiso   1.00
C337   C     0.03461   0.68026   0.36074   0.00000  Uiso   1.00
C338   C     0.93952   0.72361   0.35448   0.00000  Uiso   1.00
C339   C     0.87981   0.69312   0.32059   0.00000  Uiso   1.00
C340   C     0.12545   0.61849   0.42237   0.00000  Uiso   1.00
C341   C     0.10676   0.60990   0.46792   0.00000  Uiso   1.00
C342   C     0.12354   0.52743   0.48592   0.00000  Uiso   1.00
C343   C     0.21967   0.71919   0.37074   0.00000  Uiso   1.00
C344   C     0.28020   0.79525   0.37289   0.00000  Uiso   1.00
C345   C     0.37632   0.79754   0.34744   0.00000  Uiso   1.00
H346   H     0.20189   0.51594   0.32604   0.00000  Uiso   1.00
H347   H     0.03580   0.52329   0.27962   0.00000  Uiso   1.00
H348   H     0.20302   0.40962   0.39305   0.00000  Uiso   1.00
H349   H     0.37644   0.59494   0.29803   0.00000  Uiso   1.00
H350   H     0.83654   0.56286   0.23990   0.00000  Uiso   1.00
H351   H     0.18917   0.32317   0.47908   0.00000  Uiso   1.00
H352   H     0.55486   0.71395   0.27872   0.00000  Uiso   1.00
H353   H     0.08552   0.75810   0.41655   0.00000  Uiso   1.00
H354   H     0.91304   0.77875   0.37509   0.00000  Uiso   1.00
H355   H     0.08027   0.66506   0.48852   0.00000  Uiso   1.00
H356   H     0.25368   0.85039   0.39351   0.00000  Uiso   1.00
H357   H     0.73690   0.77019   0.31740   0.00000  Uiso   1.00
H358   H     0.08954   0.53050   0.55657   0.00000  Uiso   1.00
H359   H     0.45522   0.92129   0.35622   0.00000  Uiso   1.00
O360   O     0.67534   0.67572   0.24976   0.00000  Uiso   1.00
O361   O     0.13801   0.36126   0.56354   0.00000  Uiso   1.00
O362   O     0.61777   0.87396   0.30068   0.00000  Uiso   1.00
N363   N     0.83677   0.60883   0.26383   0.00000  Uiso   1.00
N364   N     0.16645   0.38473   0.48744   0.00000  Uiso   1.00
N365   N     0.50834   0.75007   0.30013   0.00000  Uiso   1.00
N366   N     0.78316   0.72040   0.30552   0.00000  Uiso   1.00
N367   N     0.11283   0.49629   0.52914   0.00000  Uiso   1.00
N368   N     0.45473   0.86164   0.34183   0.00000  Uiso   1.00
