data_job_00553
_audit_creation_date              2018-12-19
_audit_creation_method            'Materials Studio'
_symmetry_space_group_name_H-M    'P1'
_symmetry_Int_Tables_number       1
_symmetry_cell_setting            triclinic
loop_
_symmetry_equiv_pos_as_xyz
  x,y,z
_cell_length_a                    39.8387
_cell_length_b                    12.2888
_cell_length_c                    13.4790
_cell_angle_alpha                 90.0000
_cell_angle_beta                  90.0000
_cell_angle_gamma                 90.0000
loop_
_atom_site_label
_atom_site_type_symbol
_atom_site_fract_x
_atom_site_fract_y
_atom_site_fract_z
_atom_site_U_iso_or_equiv
_atom_site_adp_type
_atom_site_occupancy
C1     C     0.84875   0.37245   0.94163   0.00000  Uiso   1.00
C2     C     0.82763   0.26906   0.94599   0.00000  Uiso   1.00
C3     C     0.81604   0.21068   0.86480   0.00000  Uiso   1.00
C4     C     0.79710   0.11830   0.88437   0.00000  Uiso   1.00
C5     C     0.76537   0.96277   0.87634   0.00000  Uiso   1.00
C6     C     0.82935   0.45820   0.99993   0.00000  Uiso   1.00
C7     C     0.81920   0.55884   0.96410   0.00000  Uiso   1.00
C8     C     0.80171   0.62568   0.02910   0.00000  Uiso   1.00
C9     C     0.77267   0.76382   0.10484   0.00000  Uiso   1.00
C10    C     0.88035   0.34882   0.00173   0.00000  Uiso   1.00
C11    C     0.91308   0.35752   0.96742   0.00000  Uiso   1.00
C12    C     0.93853   0.33230   0.03394   0.00000  Uiso   1.00
C13    C     0.98867   0.30062   0.11248   0.00000  Uiso   1.00
C14    C     0.83573   0.31222   0.12078   0.00000  Uiso   1.00
C15    C     0.82056   0.23635   0.04329   0.00000  Uiso   1.00
C16    C     0.80164   0.14404   0.06300   0.00000  Uiso   1.00
C17    C     0.79001   0.08552   0.98185   0.00000  Uiso   1.00
C18    C     0.82228   0.42549   0.09724   0.00000  Uiso   1.00
C19    C     0.80480   0.49220   0.16230   0.00000  Uiso   1.00
C20    C     0.79463   0.59291   0.12658   0.00000  Uiso   1.00
C21    C     0.87328   0.31611   0.09904   0.00000  Uiso   1.00
C22    C     0.89868   0.29088   0.16563   0.00000  Uiso   1.00
C23    C     0.93145   0.29953   0.13143   0.00000  Uiso   1.00
H24    H     0.85425   0.39793   0.86587   0.00000  Uiso   1.00
H25    H     0.82151   0.23603   0.78950   0.00000  Uiso   1.00
H26    H     0.82468   0.58413   0.88880   0.00000  Uiso   1.00
H27    H     0.91854   0.38284   0.89212   0.00000  Uiso   1.00
H28    H     0.78208   0.04212   0.74774   0.00000  Uiso   1.00
H29    H     0.78877   0.77614   0.95712   0.00000  Uiso   1.00
H30    H     0.98670   0.35169   0.96413   0.00000  Uiso   1.00
H31    H     0.83023   0.28675   0.19654   0.00000  Uiso   1.00
H32    H     0.79617   0.11874   0.13831   0.00000  Uiso   1.00
H33    H     0.79934   0.46686   0.23760   0.00000  Uiso   1.00
H34    H     0.89320   0.26556   0.24092   0.00000  Uiso   1.00
H35    H     0.76151   0.94694   0.03085   0.00000  Uiso   1.00
H36    H     0.76820   0.68096   0.24022   0.00000  Uiso   1.00
H37    H     0.96614   0.25650   0.24723   0.00000  Uiso   1.00
O38    O     0.74981   0.88603   0.84503   0.00000  Uiso   1.00
O39    O     0.75860   0.84905   0.11972   0.00000  Uiso   1.00
O40    O     0.01828   0.29216   0.12891   0.00000  Uiso   1.00
N41    N     0.78192   0.04276   0.82236   0.00000  Uiso   1.00
N42    N     0.78817   0.72903   0.01811   0.00000  Uiso   1.00
N43    N     0.97322   0.33222   0.02467   0.00000  Uiso   1.00
N44    N     0.77085   0.99154   0.97470   0.00000  Uiso   1.00
N45    N     0.77710   0.67781   0.17045   0.00000  Uiso   1.00
N46    N     0.96215   0.28100   0.17700   0.00000  Uiso   1.00
C47    C     0.65125   0.12755   0.44163   0.00000  Uiso   1.00
C48    C     0.67237   0.23094   0.44599   0.00000  Uiso   1.00
C49    C     0.68396   0.28932   0.36480   0.00000  Uiso   1.00
C50    C     0.70290   0.38170   0.38437   0.00000  Uiso   1.00
C51    C     0.73463   0.53723   0.37634   0.00000  Uiso   1.00
C52    C     0.67065   0.04180   0.49993   0.00000  Uiso   1.00
C53    C     0.68080   0.94116   0.46410   0.00000  Uiso   1.00
C54    C     0.69829   0.87432   0.52910   0.00000  Uiso   1.00
C55    C     0.72733   0.73618   0.60484   0.00000  Uiso   1.00
C56    C     0.61965   0.15118   0.50173   0.00000  Uiso   1.00
C57    C     0.58692   0.14248   0.46742   0.00000  Uiso   1.00
C58    C     0.56147   0.16770   0.53394   0.00000  Uiso   1.00
C59    C     0.51133   0.19938   0.61248   0.00000  Uiso   1.00
C60    C     0.66427   0.18778   0.62078   0.00000  Uiso   1.00
C61    C     0.67944   0.26365   0.54329   0.00000  Uiso   1.00
C62    C     0.69836   0.35596   0.56300   0.00000  Uiso   1.00
C63    C     0.70999   0.41448   0.48185   0.00000  Uiso   1.00
C64    C     0.67772   0.07451   0.59724   0.00000  Uiso   1.00
C65    C     0.69520   0.00780   0.66230   0.00000  Uiso   1.00
C66    C     0.70537   0.90709   0.62658   0.00000  Uiso   1.00
C67    C     0.62672   0.18389   0.59904   0.00000  Uiso   1.00
C68    C     0.60132   0.20912   0.66563   0.00000  Uiso   1.00
C69    C     0.56855   0.20047   0.63143   0.00000  Uiso   1.00
H70    H     0.64575   0.10207   0.36587   0.00000  Uiso   1.00
H71    H     0.67849   0.26397   0.28950   0.00000  Uiso   1.00
H72    H     0.67532   0.91587   0.38880   0.00000  Uiso   1.00
H73    H     0.58146   0.11716   0.39212   0.00000  Uiso   1.00
H74    H     0.71792   0.45788   0.24774   0.00000  Uiso   1.00
H75    H     0.71123   0.72386   0.45712   0.00000  Uiso   1.00
H76    H     0.51330   0.14831   0.46413   0.00000  Uiso   1.00
H77    H     0.66977   0.21325   0.69654   0.00000  Uiso   1.00
H78    H     0.70383   0.38126   0.63831   0.00000  Uiso   1.00
H79    H     0.70066   0.03314   0.73760   0.00000  Uiso   1.00
H80    H     0.60680   0.23444   0.74092   0.00000  Uiso   1.00
H81    H     0.73849   0.55306   0.53085   0.00000  Uiso   1.00
H82    H     0.73180   0.81904   0.74022   0.00000  Uiso   1.00
H83    H     0.53386   0.24350   0.74723   0.00000  Uiso   1.00
O84    O     0.75019   0.61397   0.34503   0.00000  Uiso   1.00
O85    O     0.74140   0.65095   0.61972   0.00000  Uiso   1.00
O86    O     0.48172   0.20784   0.62891   0.00000  Uiso   1.00
N87    N     0.71808   0.45724   0.32236   0.00000  Uiso   1.00
N88    N     0.71183   0.77097   0.51811   0.00000  Uiso   1.00
N89    N     0.52678   0.16778   0.52467   0.00000  Uiso   1.00
N90    N     0.72915   0.50846   0.47470   0.00000  Uiso   1.00
N91    N     0.72290   0.82219   0.67045   0.00000  Uiso   1.00
N92    N     0.53785   0.21900   0.67700   0.00000  Uiso   1.00
C93    C     0.15125   0.37245   0.55837   0.00000  Uiso   1.00
C94    C     0.17237   0.26906   0.55401   0.00000  Uiso   1.00
C95    C     0.18396   0.21068   0.63520   0.00000  Uiso   1.00
C96    C     0.20290   0.11830   0.61563   0.00000  Uiso   1.00
C97    C     0.23463   0.96277   0.62366   0.00000  Uiso   1.00
C98    C     0.17065   0.45820   0.50007   0.00000  Uiso   1.00
C99    C     0.18080   0.55884   0.53590   0.00000  Uiso   1.00
C100   C     0.19829   0.62568   0.47090   0.00000  Uiso   1.00
C101   C     0.22733   0.76382   0.39516   0.00000  Uiso   1.00
C102   C     0.11965   0.34882   0.49827   0.00000  Uiso   1.00
C103   C     0.08692   0.35752   0.53258   0.00000  Uiso   1.00
C104   C     0.06147   0.33230   0.46606   0.00000  Uiso   1.00
C105   C     0.01133   0.30062   0.38752   0.00000  Uiso   1.00
C106   C     0.16427   0.31222   0.37922   0.00000  Uiso   1.00
C107   C     0.17944   0.23635   0.45671   0.00000  Uiso   1.00
C108   C     0.19836   0.14404   0.43700   0.00000  Uiso   1.00
C109   C     0.20999   0.08552   0.51815   0.00000  Uiso   1.00
C110   C     0.17772   0.42549   0.40276   0.00000  Uiso   1.00
C111   C     0.19520   0.49220   0.33770   0.00000  Uiso   1.00
C112   C     0.20537   0.59291   0.37342   0.00000  Uiso   1.00
C113   C     0.12672   0.31611   0.40096   0.00000  Uiso   1.00
C114   C     0.10132   0.29088   0.33437   0.00000  Uiso   1.00
C115   C     0.06855   0.29953   0.36857   0.00000  Uiso   1.00
H116   H     0.14575   0.39793   0.63413   0.00000  Uiso   1.00
H117   H     0.17849   0.23603   0.71050   0.00000  Uiso   1.00
H118   H     0.17532   0.58413   0.61120   0.00000  Uiso   1.00
H119   H     0.08146   0.38284   0.60788   0.00000  Uiso   1.00
H120   H     0.21792   0.04212   0.75226   0.00000  Uiso   1.00
H121   H     0.21123   0.77614   0.54288   0.00000  Uiso   1.00
H122   H     0.01330   0.35169   0.53587   0.00000  Uiso   1.00
H123   H     0.16977   0.28675   0.30346   0.00000  Uiso   1.00
H124   H     0.20383   0.11874   0.36169   0.00000  Uiso   1.00
H125   H     0.20066   0.46686   0.26240   0.00000  Uiso   1.00
H126   H     0.10680   0.26556   0.25908   0.00000  Uiso   1.00
H127   H     0.23849   0.94694   0.46915   0.00000  Uiso   1.00
H128   H     0.23180   0.68096   0.25978   0.00000  Uiso   1.00
H129   H     0.03386   0.25650   0.25277   0.00000  Uiso   1.00
O130   O     0.25019   0.88603   0.65497   0.00000  Uiso   1.00
O131   O     0.24140   0.84905   0.38028   0.00000  Uiso   1.00
O132   O     0.98172   0.29216   0.37109   0.00000  Uiso   1.00
N133   N     0.21808   0.04276   0.67764   0.00000  Uiso   1.00
N134   N     0.21183   0.72903   0.48189   0.00000  Uiso   1.00
N135   N     0.02678   0.33222   0.47533   0.00000  Uiso   1.00
N136   N     0.22915   0.99154   0.52530   0.00000  Uiso   1.00
N137   N     0.22290   0.67781   0.32955   0.00000  Uiso   1.00
N138   N     0.03785   0.28100   0.32300   0.00000  Uiso   1.00
C139   C     0.34875   0.12755   0.05837   0.00000  Uiso   1.00
C140   C     0.32763   0.23094   0.05401   0.00000  Uiso   1.00
C141   C     0.31604   0.28932   0.13520   0.00000  Uiso   1.00
C142   C     0.29710   0.38170   0.11563   0.00000  Uiso   1.00
C143   C     0.26537   0.53723   0.12366   0.00000  Uiso   1.00
C144   C     0.32935   0.04180   0.00007   0.00000  Uiso   1.00
C145   C     0.31920   0.94116   0.03590   0.00000  Uiso   1.00
C146   C     0.30171   0.87432   0.97090   0.00000  Uiso   1.00
C147   C     0.27267   0.73618   0.89516   0.00000  Uiso   1.00
C148   C     0.38035   0.15118   0.99827   0.00000  Uiso   1.00
C149   C     0.41308   0.14248   0.03258   0.00000  Uiso   1.00
C150   C     0.43853   0.16770   0.96606   0.00000  Uiso   1.00
C151   C     0.48867   0.19938   0.88752   0.00000  Uiso   1.00
C152   C     0.33573   0.18778   0.87922   0.00000  Uiso   1.00
C153   C     0.32056   0.26365   0.95671   0.00000  Uiso   1.00
C154   C     0.30164   0.35596   0.93700   0.00000  Uiso   1.00
C155   C     0.29001   0.41448   0.01815   0.00000  Uiso   1.00
C156   C     0.32228   0.07451   0.90276   0.00000  Uiso   1.00
C157   C     0.30480   0.00780   0.83770   0.00000  Uiso   1.00
C158   C     0.29463   0.90709   0.87342   0.00000  Uiso   1.00
C159   C     0.37328   0.18389   0.90096   0.00000  Uiso   1.00
C160   C     0.39868   0.20912   0.83437   0.00000  Uiso   1.00
C161   C     0.43145   0.20047   0.86857   0.00000  Uiso   1.00
H162   H     0.35425   0.10207   0.13413   0.00000  Uiso   1.00
H163   H     0.32151   0.26397   0.21050   0.00000  Uiso   1.00
H164   H     0.32468   0.91587   0.11120   0.00000  Uiso   1.00
H165   H     0.41854   0.11716   0.10788   0.00000  Uiso   1.00
H166   H     0.28208   0.45788   0.25226   0.00000  Uiso   1.00
H167   H     0.28877   0.72386   0.04288   0.00000  Uiso   1.00
H168   H     0.48670   0.14831   0.03587   0.00000  Uiso   1.00
H169   H     0.33023   0.21325   0.80346   0.00000  Uiso   1.00
H170   H     0.29617   0.38126   0.86169   0.00000  Uiso   1.00
H171   H     0.29934   0.03314   0.76240   0.00000  Uiso   1.00
H172   H     0.39320   0.23444   0.75908   0.00000  Uiso   1.00
H173   H     0.26151   0.55306   0.96915   0.00000  Uiso   1.00
H174   H     0.26820   0.81904   0.75978   0.00000  Uiso   1.00
H175   H     0.46614   0.24350   0.75277   0.00000  Uiso   1.00
O176   O     0.24981   0.61397   0.15497   0.00000  Uiso   1.00
O177   O     0.25860   0.65095   0.88028   0.00000  Uiso   1.00
O178   O     0.51828   0.20784   0.87109   0.00000  Uiso   1.00
N179   N     0.28192   0.45724   0.17764   0.00000  Uiso   1.00
N180   N     0.28817   0.77097   0.98189   0.00000  Uiso   1.00
N181   N     0.47322   0.16778   0.97533   0.00000  Uiso   1.00
N182   N     0.27085   0.50846   0.02530   0.00000  Uiso   1.00
N183   N     0.27710   0.82219   0.82955   0.00000  Uiso   1.00
N184   N     0.46215   0.21900   0.82300   0.00000  Uiso   1.00
C185   C     0.15125   0.62755   0.05837   0.00000  Uiso   1.00
C186   C     0.17237   0.73094   0.05401   0.00000  Uiso   1.00
C187   C     0.18396   0.78932   0.13520   0.00000  Uiso   1.00
C188   C     0.20290   0.88170   0.11563   0.00000  Uiso   1.00
C189   C     0.23463   0.03723   0.12366   0.00000  Uiso   1.00
C190   C     0.17065   0.54180   0.00007   0.00000  Uiso   1.00
C191   C     0.18080   0.44116   0.03590   0.00000  Uiso   1.00
C192   C     0.19829   0.37432   0.97090   0.00000  Uiso   1.00
C193   C     0.22733   0.23618   0.89516   0.00000  Uiso   1.00
C194   C     0.11965   0.65118   0.99827   0.00000  Uiso   1.00
C195   C     0.08692   0.64248   0.03258   0.00000  Uiso   1.00
C196   C     0.06147   0.66770   0.96606   0.00000  Uiso   1.00
C197   C     0.01133   0.69938   0.88752   0.00000  Uiso   1.00
C198   C     0.16427   0.68778   0.87922   0.00000  Uiso   1.00
C199   C     0.17944   0.76365   0.95671   0.00000  Uiso   1.00
C200   C     0.19836   0.85596   0.93700   0.00000  Uiso   1.00
C201   C     0.20999   0.91448   0.01815   0.00000  Uiso   1.00
C202   C     0.17772   0.57451   0.90276   0.00000  Uiso   1.00
C203   C     0.19520   0.50780   0.83770   0.00000  Uiso   1.00
C204   C     0.20537   0.40709   0.87342   0.00000  Uiso   1.00
C205   C     0.12672   0.68389   0.90096   0.00000  Uiso   1.00
C206   C     0.10132   0.70912   0.83437   0.00000  Uiso   1.00
C207   C     0.06855   0.70047   0.86857   0.00000  Uiso   1.00
H208   H     0.14575   0.60207   0.13413   0.00000  Uiso   1.00
H209   H     0.17849   0.76397   0.21050   0.00000  Uiso   1.00
H210   H     0.17532   0.41587   0.11120   0.00000  Uiso   1.00
H211   H     0.08146   0.61716   0.10788   0.00000  Uiso   1.00
H212   H     0.21792   0.95788   0.25226   0.00000  Uiso   1.00
H213   H     0.21123   0.22386   0.04288   0.00000  Uiso   1.00
H214   H     0.01330   0.64831   0.03587   0.00000  Uiso   1.00
H215   H     0.16977   0.71325   0.80346   0.00000  Uiso   1.00
H216   H     0.20383   0.88126   0.86169   0.00000  Uiso   1.00
H217   H     0.20066   0.53314   0.76240   0.00000  Uiso   1.00
H218   H     0.10680   0.73444   0.75908   0.00000  Uiso   1.00
H219   H     0.23849   0.05306   0.96915   0.00000  Uiso   1.00
H220   H     0.23180   0.31904   0.75978   0.00000  Uiso   1.00
H221   H     0.03386   0.74350   0.75277   0.00000  Uiso   1.00
O222   O     0.25019   0.11397   0.15497   0.00000  Uiso   1.00
O223   O     0.24140   0.15095   0.88028   0.00000  Uiso   1.00
O224   O     0.98172   0.70784   0.87109   0.00000  Uiso   1.00
N225   N     0.21808   0.95724   0.17764   0.00000  Uiso   1.00
N226   N     0.21183   0.27097   0.98189   0.00000  Uiso   1.00
N227   N     0.02678   0.66778   0.97533   0.00000  Uiso   1.00
N228   N     0.22915   0.00846   0.02530   0.00000  Uiso   1.00
N229   N     0.22290   0.32219   0.82955   0.00000  Uiso   1.00
N230   N     0.03785   0.71900   0.82300   0.00000  Uiso   1.00
C231   C     0.34875   0.87245   0.55837   0.00000  Uiso   1.00
C232   C     0.32763   0.76906   0.55401   0.00000  Uiso   1.00
C233   C     0.31604   0.71068   0.63520   0.00000  Uiso   1.00
C234   C     0.29710   0.61830   0.61563   0.00000  Uiso   1.00
C235   C     0.26537   0.46277   0.62366   0.00000  Uiso   1.00
C236   C     0.32935   0.95820   0.50007   0.00000  Uiso   1.00
C237   C     0.31920   0.05884   0.53590   0.00000  Uiso   1.00
C238   C     0.30171   0.12568   0.47090   0.00000  Uiso   1.00
C239   C     0.27267   0.26382   0.39516   0.00000  Uiso   1.00
C240   C     0.38035   0.84882   0.49827   0.00000  Uiso   1.00
C241   C     0.41308   0.85752   0.53258   0.00000  Uiso   1.00
C242   C     0.43853   0.83230   0.46606   0.00000  Uiso   1.00
C243   C     0.48867   0.80062   0.38752   0.00000  Uiso   1.00
C244   C     0.33573   0.81222   0.37922   0.00000  Uiso   1.00
C245   C     0.32056   0.73635   0.45671   0.00000  Uiso   1.00
C246   C     0.30164   0.64404   0.43700   0.00000  Uiso   1.00
C247   C     0.29001   0.58552   0.51815   0.00000  Uiso   1.00
C248   C     0.32228   0.92549   0.40276   0.00000  Uiso   1.00
C249   C     0.30480   0.99220   0.33770   0.00000  Uiso   1.00
C250   C     0.29463   0.09291   0.37342   0.00000  Uiso   1.00
C251   C     0.37328   0.81611   0.40096   0.00000  Uiso   1.00
C252   C     0.39868   0.79088   0.33437   0.00000  Uiso   1.00
C253   C     0.43145   0.79953   0.36857   0.00000  Uiso   1.00
H254   H     0.35425   0.89793   0.63413   0.00000  Uiso   1.00
H255   H     0.32151   0.73603   0.71050   0.00000  Uiso   1.00
H256   H     0.32468   0.08413   0.61120   0.00000  Uiso   1.00
H257   H     0.41854   0.88284   0.60788   0.00000  Uiso   1.00
H258   H     0.28208   0.54212   0.75226   0.00000  Uiso   1.00
H259   H     0.28877   0.27614   0.54288   0.00000  Uiso   1.00
H260   H     0.48670   0.85169   0.53587   0.00000  Uiso   1.00
H261   H     0.33023   0.78675   0.30346   0.00000  Uiso   1.00
H262   H     0.29617   0.61874   0.36169   0.00000  Uiso   1.00
H263   H     0.29934   0.96686   0.26240   0.00000  Uiso   1.00
H264   H     0.39320   0.76556   0.25908   0.00000  Uiso   1.00
H265   H     0.26151   0.44694   0.46915   0.00000  Uiso   1.00
H266   H     0.26820   0.18096   0.25978   0.00000  Uiso   1.00
H267   H     0.46614   0.75650   0.25277   0.00000  Uiso   1.00
O268   O     0.24981   0.38603   0.65497   0.00000  Uiso   1.00
O269   O     0.25860   0.34905   0.38028   0.00000  Uiso   1.00
O270   O     0.51828   0.79216   0.37109   0.00000  Uiso   1.00
N271   N     0.28192   0.54276   0.67764   0.00000  Uiso   1.00
N272   N     0.28817   0.22903   0.48189   0.00000  Uiso   1.00
N273   N     0.47322   0.83222   0.47533   0.00000  Uiso   1.00
N274   N     0.27085   0.49154   0.52530   0.00000  Uiso   1.00
N275   N     0.27710   0.17781   0.32955   0.00000  Uiso   1.00
N276   N     0.46215   0.78100   0.32300   0.00000  Uiso   1.00
C277   C     0.84875   0.62755   0.44163   0.00000  Uiso   1.00
C278   C     0.82763   0.73094   0.44599   0.00000  Uiso   1.00
C279   C     0.81604   0.78932   0.36480   0.00000  Uiso   1.00
C280   C     0.79710   0.88170   0.38437   0.00000  Uiso   1.00
C281   C     0.76537   0.03723   0.37634   0.00000  Uiso   1.00
C282   C     0.82935   0.54180   0.49993   0.00000  Uiso   1.00
C283   C     0.81920   0.44116   0.46410   0.00000  Uiso   1.00
C284   C     0.80171   0.37432   0.52910   0.00000  Uiso   1.00
C285   C     0.77267   0.23618   0.60484   0.00000  Uiso   1.00
C286   C     0.88035   0.65118   0.50173   0.00000  Uiso   1.00
C287   C     0.91308   0.64248   0.46742   0.00000  Uiso   1.00
C288   C     0.93853   0.66770   0.53394   0.00000  Uiso   1.00
C289   C     0.98867   0.69938   0.61248   0.00000  Uiso   1.00
C290   C     0.83573   0.68778   0.62078   0.00000  Uiso   1.00
C291   C     0.82056   0.76365   0.54329   0.00000  Uiso   1.00
C292   C     0.80164   0.85596   0.56300   0.00000  Uiso   1.00
C293   C     0.79001   0.91448   0.48185   0.00000  Uiso   1.00
C294   C     0.82228   0.57451   0.59724   0.00000  Uiso   1.00
C295   C     0.80480   0.50780   0.66230   0.00000  Uiso   1.00
C296   C     0.79463   0.40709   0.62658   0.00000  Uiso   1.00
C297   C     0.87328   0.68389   0.59904   0.00000  Uiso   1.00
C298   C     0.89868   0.70912   0.66563   0.00000  Uiso   1.00
C299   C     0.93145   0.70047   0.63143   0.00000  Uiso   1.00
H300   H     0.85425   0.60207   0.36587   0.00000  Uiso   1.00
H301   H     0.82151   0.76397   0.28950   0.00000  Uiso   1.00
H302   H     0.82468   0.41587   0.38880   0.00000  Uiso   1.00
H303   H     0.91854   0.61716   0.39212   0.00000  Uiso   1.00
H304   H     0.78208   0.95788   0.24774   0.00000  Uiso   1.00
H305   H     0.78877   0.22386   0.45712   0.00000  Uiso   1.00
H306   H     0.98670   0.64831   0.46413   0.00000  Uiso   1.00
H307   H     0.83023   0.71325   0.69654   0.00000  Uiso   1.00
H308   H     0.79617   0.88126   0.63831   0.00000  Uiso   1.00
H309   H     0.79934   0.53314   0.73760   0.00000  Uiso   1.00
H310   H     0.89320   0.73444   0.74092   0.00000  Uiso   1.00
H311   H     0.76151   0.05306   0.53085   0.00000  Uiso   1.00
H312   H     0.76820   0.31904   0.74022   0.00000  Uiso   1.00
H313   H     0.96614   0.74350   0.74723   0.00000  Uiso   1.00
O314   O     0.74981   0.11397   0.34503   0.00000  Uiso   1.00
O315   O     0.75860   0.15095   0.61972   0.00000  Uiso   1.00
O316   O     0.01828   0.70784   0.62891   0.00000  Uiso   1.00
N317   N     0.78192   0.95724   0.32236   0.00000  Uiso   1.00
N318   N     0.78817   0.27097   0.51811   0.00000  Uiso   1.00
N319   N     0.97322   0.66778   0.52467   0.00000  Uiso   1.00
N320   N     0.77085   0.00846   0.47470   0.00000  Uiso   1.00
N321   N     0.77710   0.32219   0.67045   0.00000  Uiso   1.00
N322   N     0.96215   0.71900   0.67700   0.00000  Uiso   1.00
C323   C     0.65125   0.87245   0.94163   0.00000  Uiso   1.00
C324   C     0.67237   0.76906   0.94599   0.00000  Uiso   1.00
C325   C     0.68396   0.71068   0.86480   0.00000  Uiso   1.00
C326   C     0.70290   0.61830   0.88437   0.00000  Uiso   1.00
C327   C     0.73463   0.46277   0.87634   0.00000  Uiso   1.00
C328   C     0.67065   0.95820   0.99993   0.00000  Uiso   1.00
C329   C     0.68080   0.05884   0.96410   0.00000  Uiso   1.00
C330   C     0.69829   0.12568   0.02910   0.00000  Uiso   1.00
C331   C     0.72733   0.26382   0.10484   0.00000  Uiso   1.00
C332   C     0.61965   0.84882   0.00173   0.00000  Uiso   1.00
C333   C     0.58692   0.85752   0.96742   0.00000  Uiso   1.00
C334   C     0.56147   0.83230   0.03394   0.00000  Uiso   1.00
C335   C     0.51133   0.80062   0.11248   0.00000  Uiso   1.00
C336   C     0.66427   0.81222   0.12078   0.00000  Uiso   1.00
C337   C     0.67944   0.73635   0.04329   0.00000  Uiso   1.00
C338   C     0.69836   0.64404   0.06300   0.00000  Uiso   1.00
C339   C     0.70999   0.58552   0.98185   0.00000  Uiso   1.00
C340   C     0.67772   0.92549   0.09724   0.00000  Uiso   1.00
C341   C     0.69520   0.99220   0.16230   0.00000  Uiso   1.00
C342   C     0.70537   0.09291   0.12658   0.00000  Uiso   1.00
C343   C     0.62672   0.81611   0.09904   0.00000  Uiso   1.00
C344   C     0.60132   0.79088   0.16563   0.00000  Uiso   1.00
C345   C     0.56855   0.79953   0.13143   0.00000  Uiso   1.00
H346   H     0.64575   0.89793   0.86587   0.00000  Uiso   1.00
H347   H     0.67849   0.73603   0.78950   0.00000  Uiso   1.00
H348   H     0.67532   0.08413   0.88880   0.00000  Uiso   1.00
H349   H     0.58146   0.88284   0.89212   0.00000  Uiso   1.00
H350   H     0.71792   0.54212   0.74774   0.00000  Uiso   1.00
H351   H     0.71123   0.27614   0.95712   0.00000  Uiso   1.00
H352   H     0.51330   0.85169   0.96413   0.00000  Uiso   1.00
H353   H     0.66977   0.78675   0.19654   0.00000  Uiso   1.00
H354   H     0.70383   0.61874   0.13831   0.00000  Uiso   1.00
H355   H     0.70066   0.96686   0.23760   0.00000  Uiso   1.00
H356   H     0.60680   0.76556   0.24092   0.00000  Uiso   1.00
H357   H     0.73849   0.44694   0.03085   0.00000  Uiso   1.00
H358   H     0.73180   0.18096   0.24022   0.00000  Uiso   1.00
H359   H     0.53386   0.75650   0.24723   0.00000  Uiso   1.00
O360   O     0.75019   0.38603   0.84503   0.00000  Uiso   1.00
O361   O     0.74140   0.34905   0.11972   0.00000  Uiso   1.00
O362   O     0.48172   0.79216   0.12891   0.00000  Uiso   1.00
N363   N     0.71808   0.54276   0.82236   0.00000  Uiso   1.00
N364   N     0.71183   0.22903   0.01811   0.00000  Uiso   1.00
N365   N     0.52678   0.83222   0.02467   0.00000  Uiso   1.00
N366   N     0.72915   0.49154   0.97470   0.00000  Uiso   1.00
N367   N     0.72290   0.17781   0.17045   0.00000  Uiso   1.00
N368   N     0.53785   0.78100   0.17700   0.00000  Uiso   1.00
