data_job_02596
_audit_creation_date              2018-12-19
_audit_creation_method            'Materials Studio'
_symmetry_space_group_name_H-M    'P1'
_symmetry_Int_Tables_number       1
_symmetry_cell_setting            triclinic
loop_
_symmetry_equiv_pos_as_xyz
  x,y,z
_cell_length_a                    7.1027
_cell_length_b                    29.4690
_cell_length_c                    12.3007
_cell_angle_alpha                 90.0000
_cell_angle_beta                  90.0000
_cell_angle_gamma                 90.0000
loop_
_atom_site_label
_atom_site_type_symbol
_atom_site_fract_x
_atom_site_fract_y
_atom_site_fract_z
_atom_site_U_iso_or_equiv
_atom_site_adp_type
_atom_site_occupancy
C1     C     0.76210   0.60003   0.61109   0.00000  Uiso   1.00
C2     C     0.83023   0.55189   0.63383   0.00000  Uiso   1.00
C3     C     0.72255   0.51276   0.62515   0.00000  Uiso   1.00
C4     C     0.81082   0.47198   0.64952   0.00000  Uiso   1.00
C5     C     0.88781   0.39746   0.68002   0.00000  Uiso   1.00
C6     C     0.80002   0.62703   0.71457   0.00000  Uiso   1.00
C7     C     0.66694   0.65108   0.77377   0.00000  Uiso   1.00
C8     C     0.72980   0.67355   0.86610   0.00000  Uiso   1.00
C9     C     0.75992   0.71571   0.02191   0.00000  Uiso   1.00
C10    C     0.89469   0.61923   0.52513   0.00000  Uiso   1.00
C11    C     0.84122   0.63674   0.42505   0.00000  Uiso   1.00
C12    C     0.98379   0.65266   0.35789   0.00000  Uiso   1.00
C13    C     0.16090   0.68272   0.21957   0.00000  Uiso   1.00
C14    C     0.11036   0.59718   0.66980   0.00000  Uiso   1.00
C15    C     0.01939   0.55034   0.66572   0.00000  Uiso   1.00
C16    C     0.10786   0.50960   0.69010   0.00000  Uiso   1.00
C17    C     0.00032   0.47042   0.68146   0.00000  Uiso   1.00
C18    C     0.98918   0.62548   0.74646   0.00000  Uiso   1.00
C19    C     0.05225   0.64792   0.83872   0.00000  Uiso   1.00
C20    C     0.91930   0.67200   0.89805   0.00000  Uiso   1.00
C21    C     0.08386   0.61768   0.55701   0.00000  Uiso   1.00
C22    C     0.22654   0.63358   0.49000   0.00000  Uiso   1.00
C23    C     0.17329   0.65111   0.38984   0.00000  Uiso   1.00
H24    H     0.61483   0.60124   0.58627   0.00000  Uiso   1.00
H25    H     0.57615   0.51398   0.60048   0.00000  Uiso   1.00
H26    H     0.52057   0.65228   0.74906   0.00000  Uiso   1.00
H27    H     0.69482   0.63794   0.40040   0.00000  Uiso   1.00
H28    H     0.61668   0.41654   0.63032   0.00000  Uiso   1.00
H29    H     0.49949   0.70817   0.94361   0.00000  Uiso   1.00
H30    H     0.86693   0.67793   0.20838   0.00000  Uiso   1.00
H31    H     0.25764   0.59597   0.69463   0.00000  Uiso   1.00
H32    H     0.25425   0.50841   0.71478   0.00000  Uiso   1.00
H33    H     0.19865   0.64671   0.86337   0.00000  Uiso   1.00
H34    H     0.37290   0.63237   0.51471   0.00000  Uiso   1.00
H35    H     0.16704   0.41202   0.72310   0.00000  Uiso   1.00
H36    H     0.04985   0.70366   0.03639   0.00000  Uiso   1.00
H37    H     0.41729   0.67342   0.30116   0.00000  Uiso   1.00
O38    O     0.87801   0.35678   0.68805   0.00000  Uiso   1.00
O39    O     0.72426   0.73939   0.09905   0.00000  Uiso   1.00
O40    O     0.20634   0.69972   0.13445   0.00000  Uiso   1.00
N41    N     0.74669   0.42749   0.64937   0.00000  Uiso   1.00
N42    N     0.63711   0.70014   0.94229   0.00000  Uiso   1.00
N43    N     0.98063   0.67189   0.25492   0.00000  Uiso   1.00
N44    N     0.04283   0.42506   0.69929   0.00000  Uiso   1.00
N45    N     0.93325   0.69771   0.99221   0.00000  Uiso   1.00
N46    N     0.27678   0.66946   0.30485   0.00000  Uiso   1.00
C47    C     0.73790   0.39997   0.11109   0.00000  Uiso   1.00
C48    C     0.66977   0.44811   0.13383   0.00000  Uiso   1.00
C49    C     0.77745   0.48724   0.12515   0.00000  Uiso   1.00
C50    C     0.68918   0.52802   0.14952   0.00000  Uiso   1.00
C51    C     0.61219   0.60254   0.18002   0.00000  Uiso   1.00
C52    C     0.69998   0.37297   0.21457   0.00000  Uiso   1.00
C53    C     0.83306   0.34892   0.27377   0.00000  Uiso   1.00
C54    C     0.77020   0.32645   0.36610   0.00000  Uiso   1.00
C55    C     0.74008   0.28429   0.52191   0.00000  Uiso   1.00
C56    C     0.60531   0.38077   0.02513   0.00000  Uiso   1.00
C57    C     0.65878   0.36326   0.92505   0.00000  Uiso   1.00
C58    C     0.51621   0.34734   0.85789   0.00000  Uiso   1.00
C59    C     0.33910   0.31728   0.71957   0.00000  Uiso   1.00
C60    C     0.38964   0.40282   0.16980   0.00000  Uiso   1.00
C61    C     0.48061   0.44966   0.16572   0.00000  Uiso   1.00
C62    C     0.39214   0.49040   0.19010   0.00000  Uiso   1.00
C63    C     0.49968   0.52958   0.18146   0.00000  Uiso   1.00
C64    C     0.51082   0.37452   0.24646   0.00000  Uiso   1.00
C65    C     0.44775   0.35208   0.33872   0.00000  Uiso   1.00
C66    C     0.58070   0.32800   0.39805   0.00000  Uiso   1.00
C67    C     0.41614   0.38232   0.05701   0.00000  Uiso   1.00
C68    C     0.27346   0.36642   0.99000   0.00000  Uiso   1.00
C69    C     0.32671   0.34889   0.88984   0.00000  Uiso   1.00
H70    H     0.88517   0.39876   0.08627   0.00000  Uiso   1.00
H71    H     0.92385   0.48602   0.10048   0.00000  Uiso   1.00
H72    H     0.97943   0.34772   0.24906   0.00000  Uiso   1.00
H73    H     0.80518   0.36206   0.90040   0.00000  Uiso   1.00
H74    H     0.88332   0.58346   0.13032   0.00000  Uiso   1.00
H75    H     0.00051   0.29183   0.44361   0.00000  Uiso   1.00
H76    H     0.63307   0.32207   0.70838   0.00000  Uiso   1.00
H77    H     0.24236   0.40403   0.19463   0.00000  Uiso   1.00
H78    H     0.24575   0.49159   0.21478   0.00000  Uiso   1.00
H79    H     0.30135   0.35329   0.36337   0.00000  Uiso   1.00
H80    H     0.12710   0.36763   0.01471   0.00000  Uiso   1.00
H81    H     0.33296   0.58798   0.22310   0.00000  Uiso   1.00
H82    H     0.45015   0.29634   0.53639   0.00000  Uiso   1.00
H83    H     0.08271   0.32658   0.80116   0.00000  Uiso   1.00
O84    O     0.62199   0.64322   0.18805   0.00000  Uiso   1.00
O85    O     0.77574   0.26061   0.59905   0.00000  Uiso   1.00
O86    O     0.29366   0.30028   0.63445   0.00000  Uiso   1.00
N87    N     0.75331   0.57251   0.14937   0.00000  Uiso   1.00
N88    N     0.86289   0.29986   0.44229   0.00000  Uiso   1.00
N89    N     0.51937   0.32811   0.75492   0.00000  Uiso   1.00
N90    N     0.45717   0.57494   0.19929   0.00000  Uiso   1.00
N91    N     0.56675   0.30229   0.49221   0.00000  Uiso   1.00
N92    N     0.22322   0.33054   0.80485   0.00000  Uiso   1.00
C93    C     0.23790   0.10003   0.88891   0.00000  Uiso   1.00
C94    C     0.16977   0.05189   0.86617   0.00000  Uiso   1.00
C95    C     0.27745   0.01276   0.87485   0.00000  Uiso   1.00
C96    C     0.18918   0.97198   0.85048   0.00000  Uiso   1.00
C97    C     0.11219   0.89746   0.81998   0.00000  Uiso   1.00
C98    C     0.19998   0.12703   0.78543   0.00000  Uiso   1.00
C99    C     0.33306   0.15108   0.72623   0.00000  Uiso   1.00
C100   C     0.27020   0.17355   0.63390   0.00000  Uiso   1.00
C101   C     0.24008   0.21571   0.47809   0.00000  Uiso   1.00
C102   C     0.10531   0.11923   0.97487   0.00000  Uiso   1.00
C103   C     0.15878   0.13674   0.07495   0.00000  Uiso   1.00
C104   C     0.01621   0.15266   0.14211   0.00000  Uiso   1.00
C105   C     0.83910   0.18272   0.28043   0.00000  Uiso   1.00
C106   C     0.88964   0.09718   0.83020   0.00000  Uiso   1.00
C107   C     0.98061   0.05034   0.83428   0.00000  Uiso   1.00
C108   C     0.89214   0.00960   0.80990   0.00000  Uiso   1.00
C109   C     0.99968   0.97042   0.81854   0.00000  Uiso   1.00
C110   C     0.01082   0.12548   0.75354   0.00000  Uiso   1.00
C111   C     0.94775   0.14792   0.66128   0.00000  Uiso   1.00
C112   C     0.08070   0.17200   0.60195   0.00000  Uiso   1.00
C113   C     0.91614   0.11768   0.94299   0.00000  Uiso   1.00
C114   C     0.77346   0.13358   0.01000   0.00000  Uiso   1.00
C115   C     0.82671   0.15111   0.11016   0.00000  Uiso   1.00
H116   H     0.38517   0.10124   0.91373   0.00000  Uiso   1.00
H117   H     0.42385   0.01398   0.89952   0.00000  Uiso   1.00
H118   H     0.47943   0.15228   0.75094   0.00000  Uiso   1.00
H119   H     0.30518   0.13794   0.09960   0.00000  Uiso   1.00
H120   H     0.38332   0.91654   0.86968   0.00000  Uiso   1.00
H121   H     0.50051   0.20817   0.55639   0.00000  Uiso   1.00
H122   H     0.13307   0.17793   0.29162   0.00000  Uiso   1.00
H123   H     0.74236   0.09597   0.80537   0.00000  Uiso   1.00
H124   H     0.74575   0.00841   0.78522   0.00000  Uiso   1.00
H125   H     0.80135   0.14671   0.63663   0.00000  Uiso   1.00
H126   H     0.62710   0.13237   0.98529   0.00000  Uiso   1.00
H127   H     0.83296   0.91202   0.77690   0.00000  Uiso   1.00
H128   H     0.95015   0.20366   0.46361   0.00000  Uiso   1.00
H129   H     0.58271   0.17342   0.19884   0.00000  Uiso   1.00
O130   O     0.12199   0.85678   0.81195   0.00000  Uiso   1.00
O131   O     0.27574   0.23939   0.40095   0.00000  Uiso   1.00
O132   O     0.79366   0.19972   0.36555   0.00000  Uiso   1.00
N133   N     0.25331   0.92749   0.85063   0.00000  Uiso   1.00
N134   N     0.36289   0.20014   0.55771   0.00000  Uiso   1.00
N135   N     0.01937   0.17189   0.24508   0.00000  Uiso   1.00
N136   N     0.95717   0.92506   0.80071   0.00000  Uiso   1.00
N137   N     0.06675   0.19771   0.50779   0.00000  Uiso   1.00
N138   N     0.72322   0.16946   0.19515   0.00000  Uiso   1.00
C139   C     0.26210   0.89997   0.38891   0.00000  Uiso   1.00
C140   C     0.33023   0.94811   0.36617   0.00000  Uiso   1.00
C141   C     0.22255   0.98724   0.37485   0.00000  Uiso   1.00
C142   C     0.31082   0.02802   0.35048   0.00000  Uiso   1.00
C143   C     0.38781   0.10254   0.31998   0.00000  Uiso   1.00
C144   C     0.30002   0.87297   0.28543   0.00000  Uiso   1.00
C145   C     0.16694   0.84892   0.22623   0.00000  Uiso   1.00
C146   C     0.22980   0.82645   0.13390   0.00000  Uiso   1.00
C147   C     0.25992   0.78429   0.97809   0.00000  Uiso   1.00
C148   C     0.39469   0.88077   0.47487   0.00000  Uiso   1.00
C149   C     0.34122   0.86326   0.57495   0.00000  Uiso   1.00
C150   C     0.48379   0.84734   0.64211   0.00000  Uiso   1.00
C151   C     0.66090   0.81728   0.78043   0.00000  Uiso   1.00
C152   C     0.61036   0.90282   0.33020   0.00000  Uiso   1.00
C153   C     0.51939   0.94966   0.33428   0.00000  Uiso   1.00
C154   C     0.60786   0.99040   0.30990   0.00000  Uiso   1.00
C155   C     0.50032   0.02958   0.31854   0.00000  Uiso   1.00
C156   C     0.48918   0.87452   0.25354   0.00000  Uiso   1.00
C157   C     0.55225   0.85208   0.16128   0.00000  Uiso   1.00
C158   C     0.41930   0.82800   0.10195   0.00000  Uiso   1.00
C159   C     0.58386   0.88232   0.44299   0.00000  Uiso   1.00
C160   C     0.72654   0.86642   0.51000   0.00000  Uiso   1.00
C161   C     0.67329   0.84889   0.61016   0.00000  Uiso   1.00
H162   H     0.11483   0.89876   0.41373   0.00000  Uiso   1.00
H163   H     0.07615   0.98602   0.39952   0.00000  Uiso   1.00
H164   H     0.02057   0.84772   0.25094   0.00000  Uiso   1.00
H165   H     0.19482   0.86206   0.59960   0.00000  Uiso   1.00
H166   H     0.11668   0.08346   0.36968   0.00000  Uiso   1.00
H167   H     0.99949   0.79183   0.05639   0.00000  Uiso   1.00
H168   H     0.36693   0.82207   0.79162   0.00000  Uiso   1.00
H169   H     0.75764   0.90403   0.30537   0.00000  Uiso   1.00
H170   H     0.75425   0.99159   0.28522   0.00000  Uiso   1.00
H171   H     0.69865   0.85329   0.13663   0.00000  Uiso   1.00
H172   H     0.87290   0.86763   0.48529   0.00000  Uiso   1.00
H173   H     0.66704   0.08798   0.27690   0.00000  Uiso   1.00
H174   H     0.54985   0.79634   0.96361   0.00000  Uiso   1.00
H175   H     0.91729   0.82658   0.69884   0.00000  Uiso   1.00
O176   O     0.37801   0.14322   0.31195   0.00000  Uiso   1.00
O177   O     0.22426   0.76061   0.90095   0.00000  Uiso   1.00
O178   O     0.70634   0.80028   0.86555   0.00000  Uiso   1.00
N179   N     0.24669   0.07251   0.35063   0.00000  Uiso   1.00
N180   N     0.13711   0.79986   0.05771   0.00000  Uiso   1.00
N181   N     0.48063   0.82811   0.74508   0.00000  Uiso   1.00
N182   N     0.54283   0.07494   0.30071   0.00000  Uiso   1.00
N183   N     0.43325   0.80229   0.00779   0.00000  Uiso   1.00
N184   N     0.77678   0.83054   0.69515   0.00000  Uiso   1.00
