data_job_01344
_audit_creation_date              2018-12-19
_audit_creation_method            'Materials Studio'
_symmetry_space_group_name_H-M    'P1'
_symmetry_Int_Tables_number       1
_symmetry_cell_setting            triclinic
loop_
_symmetry_equiv_pos_as_xyz
  x,y,z
_cell_length_a                    13.8913
_cell_length_b                    11.6121
_cell_length_c                    15.4007
_cell_angle_alpha                 90.0000
_cell_angle_beta                  81.3739
_cell_angle_gamma                 90.0000
loop_
_atom_site_label
_atom_site_type_symbol
_atom_site_fract_x
_atom_site_fract_y
_atom_site_fract_z
_atom_site_U_iso_or_equiv
_atom_site_adp_type
_atom_site_occupancy
C1     C     0.69745   0.71024   0.10793   0.00000  Uiso   1.00
C2     C     0.69060   0.58254   0.13111   0.00000  Uiso   1.00
C3     C     0.62022   0.50676   0.11036   0.00000  Uiso   1.00
C4     C     0.62656   0.39333   0.13744   0.00000  Uiso   1.00
C5     C     0.60462   0.20056   0.16645   0.00000  Uiso   1.00
C6     C     0.69633   0.77414   0.19458   0.00000  Uiso   1.00
C7     C     0.63077   0.85948   0.22718   0.00000  Uiso   1.00
C8     C     0.64194   0.90735   0.30768   0.00000  Uiso   1.00
C9     C     0.62894   0.01211   0.43520   0.00000  Uiso   1.00
C10    C     0.79889   0.72834   0.05635   0.00000  Uiso   1.00
C11    C     0.81958   0.77520   0.97273   0.00000  Uiso   1.00
C12    C     0.91711   0.78453   0.93685   0.00000  Uiso   1.00
C13    C     0.06336   0.81818   0.84974   0.00000  Uiso   1.00
C14    C     0.83386   0.64354   0.19292   0.00000  Uiso   1.00
C15    C     0.76469   0.54631   0.17728   0.00000  Uiso   1.00
C16    C     0.77114   0.43296   0.20439   0.00000  Uiso   1.00
C17    C     0.70078   0.35703   0.18368   0.00000  Uiso   1.00
C18    C     0.77041   0.73791   0.24075   0.00000  Uiso   1.00
C19    C     0.78169   0.78568   0.32121   0.00000  Uiso   1.00
C20    C     0.71616   0.87106   0.35393   0.00000  Uiso   1.00
C21    C     0.87299   0.69211   0.10251   0.00000  Uiso   1.00
C22    C     0.97050   0.70139   0.06676   0.00000  Uiso   1.00
C23    C     0.99133   0.74824   0.98310   0.00000  Uiso   1.00
H24    H     0.63977   0.73846   0.07200   0.00000  Uiso   1.00
H25    H     0.56289   0.53484   0.07464   0.00000  Uiso   1.00
H26    H     0.57345   0.88751   0.19144   0.00000  Uiso   1.00
H27    H     0.76223   0.80323   0.93703   0.00000  Uiso   1.00
H28    H     0.51031   0.29312   0.09796   0.00000  Uiso   1.00
H29    H     0.53259   0.03677   0.34422   0.00000  Uiso   1.00
H30    H     0.93067   0.85905   0.80774   0.00000  Uiso   1.00
H31    H     0.89154   0.61533   0.22886   0.00000  Uiso   1.00
H32    H     0.82848   0.40495   0.24011   0.00000  Uiso   1.00
H33    H     0.83904   0.75762   0.35692   0.00000  Uiso   1.00
H34    H     0.02782   0.67334   0.10250   0.00000  Uiso   1.00
H35    H     0.72587   0.18770   0.23227   0.00000  Uiso   1.00
H36    H     0.74816   0.93135   0.47853   0.00000  Uiso   1.00
H37    H     0.14623   0.75363   0.94205   0.00000  Uiso   1.00
O38    O     0.57205   0.10424   0.16971   0.00000  Uiso   1.00
O39    O     0.60129   0.07990   0.49279   0.00000  Uiso   1.00
O40    O     0.12356   0.84673   0.78894   0.00000  Uiso   1.00
N41    N     0.56971   0.29717   0.12801   0.00000  Uiso   1.00
N42    N     0.59053   0.99243   0.35826   0.00000  Uiso   1.00
N43    N     0.96270   0.82631   0.85670   0.00000  Uiso   1.00
N44    N     0.68570   0.24045   0.20028   0.00000  Uiso   1.00
N45    N     0.70652   0.93570   0.43053   0.00000  Uiso   1.00
N46    N     0.07870   0.76958   0.92897   0.00000  Uiso   1.00
C47    C     0.30255   0.71024   0.39207   0.00000  Uiso   1.00
C48    C     0.30940   0.58254   0.36889   0.00000  Uiso   1.00
C49    C     0.37978   0.50676   0.38964   0.00000  Uiso   1.00
C50    C     0.37344   0.39333   0.36256   0.00000  Uiso   1.00
C51    C     0.39538   0.20056   0.33355   0.00000  Uiso   1.00
C52    C     0.30367   0.77414   0.30542   0.00000  Uiso   1.00
C53    C     0.36923   0.85948   0.27282   0.00000  Uiso   1.00
C54    C     0.35806   0.90735   0.19232   0.00000  Uiso   1.00
C55    C     0.37106   0.01211   0.06480   0.00000  Uiso   1.00
C56    C     0.20111   0.72834   0.44365   0.00000  Uiso   1.00
C57    C     0.18042   0.77520   0.52727   0.00000  Uiso   1.00
C58    C     0.08289   0.78453   0.56315   0.00000  Uiso   1.00
C59    C     0.93664   0.81818   0.65026   0.00000  Uiso   1.00
C60    C     0.16614   0.64354   0.30708   0.00000  Uiso   1.00
C61    C     0.23531   0.54631   0.32272   0.00000  Uiso   1.00
C62    C     0.22886   0.43296   0.29561   0.00000  Uiso   1.00
C63    C     0.29922   0.35703   0.31632   0.00000  Uiso   1.00
C64    C     0.22959   0.73791   0.25925   0.00000  Uiso   1.00
C65    C     0.21831   0.78568   0.17879   0.00000  Uiso   1.00
C66    C     0.28384   0.87106   0.14607   0.00000  Uiso   1.00
C67    C     0.12701   0.69211   0.39749   0.00000  Uiso   1.00
C68    C     0.02950   0.70139   0.43324   0.00000  Uiso   1.00
C69    C     0.00867   0.74824   0.51690   0.00000  Uiso   1.00
H70    H     0.36023   0.73846   0.42800   0.00000  Uiso   1.00
H71    H     0.43711   0.53484   0.42536   0.00000  Uiso   1.00
H72    H     0.42655   0.88751   0.30856   0.00000  Uiso   1.00
H73    H     0.23777   0.80323   0.56297   0.00000  Uiso   1.00
H74    H     0.48969   0.29312   0.40204   0.00000  Uiso   1.00
H75    H     0.46741   0.03677   0.15578   0.00000  Uiso   1.00
H76    H     0.06933   0.85905   0.69226   0.00000  Uiso   1.00
H77    H     0.10846   0.61533   0.27114   0.00000  Uiso   1.00
H78    H     0.17152   0.40495   0.25989   0.00000  Uiso   1.00
H79    H     0.16096   0.75762   0.14308   0.00000  Uiso   1.00
H80    H     0.97218   0.67334   0.39750   0.00000  Uiso   1.00
H81    H     0.27413   0.18770   0.26773   0.00000  Uiso   1.00
H82    H     0.25184   0.93135   0.02147   0.00000  Uiso   1.00
H83    H     0.85377   0.75363   0.55795   0.00000  Uiso   1.00
O84    O     0.42795   0.10424   0.33029   0.00000  Uiso   1.00
O85    O     0.39871   0.07990   0.00721   0.00000  Uiso   1.00
O86    O     0.87644   0.84673   0.71106   0.00000  Uiso   1.00
N87    N     0.43029   0.29717   0.37199   0.00000  Uiso   1.00
N88    N     0.40947   0.99243   0.14174   0.00000  Uiso   1.00
N89    N     0.03730   0.82631   0.64330   0.00000  Uiso   1.00
N90    N     0.31430   0.24045   0.29972   0.00000  Uiso   1.00
N91    N     0.29348   0.93570   0.06947   0.00000  Uiso   1.00
N92    N     0.92130   0.76958   0.57103   0.00000  Uiso   1.00
C93    C     0.30255   0.28976   0.89207   0.00000  Uiso   1.00
C94    C     0.30940   0.41746   0.86889   0.00000  Uiso   1.00
C95    C     0.37978   0.49324   0.88964   0.00000  Uiso   1.00
C96    C     0.37344   0.60667   0.86256   0.00000  Uiso   1.00
C97    C     0.39538   0.79944   0.83355   0.00000  Uiso   1.00
C98    C     0.30367   0.22586   0.80542   0.00000  Uiso   1.00
C99    C     0.36923   0.14052   0.77282   0.00000  Uiso   1.00
C100   C     0.35806   0.09265   0.69232   0.00000  Uiso   1.00
C101   C     0.37106   0.98789   0.56480   0.00000  Uiso   1.00
C102   C     0.20111   0.27166   0.94365   0.00000  Uiso   1.00
C103   C     0.18042   0.22480   0.02727   0.00000  Uiso   1.00
C104   C     0.08289   0.21547   0.06315   0.00000  Uiso   1.00
C105   C     0.93664   0.18182   0.15026   0.00000  Uiso   1.00
C106   C     0.16614   0.35646   0.80708   0.00000  Uiso   1.00
C107   C     0.23531   0.45369   0.82272   0.00000  Uiso   1.00
C108   C     0.22886   0.56704   0.79561   0.00000  Uiso   1.00
C109   C     0.29922   0.64297   0.81632   0.00000  Uiso   1.00
C110   C     0.22959   0.26209   0.75925   0.00000  Uiso   1.00
C111   C     0.21831   0.21432   0.67879   0.00000  Uiso   1.00
C112   C     0.28384   0.12894   0.64607   0.00000  Uiso   1.00
C113   C     0.12701   0.30789   0.89749   0.00000  Uiso   1.00
C114   C     0.02950   0.29861   0.93324   0.00000  Uiso   1.00
C115   C     0.00867   0.25176   0.01690   0.00000  Uiso   1.00
H116   H     0.36023   0.26154   0.92800   0.00000  Uiso   1.00
H117   H     0.43711   0.46516   0.92536   0.00000  Uiso   1.00
H118   H     0.42655   0.11249   0.80856   0.00000  Uiso   1.00
H119   H     0.23777   0.19677   0.06297   0.00000  Uiso   1.00
H120   H     0.48969   0.70688   0.90204   0.00000  Uiso   1.00
H121   H     0.46741   0.96323   0.65578   0.00000  Uiso   1.00
H122   H     0.06933   0.14095   0.19226   0.00000  Uiso   1.00
H123   H     0.10846   0.38467   0.77114   0.00000  Uiso   1.00
H124   H     0.17152   0.59505   0.75989   0.00000  Uiso   1.00
H125   H     0.16096   0.24238   0.64308   0.00000  Uiso   1.00
H126   H     0.97218   0.32666   0.89750   0.00000  Uiso   1.00
H127   H     0.27413   0.81230   0.76773   0.00000  Uiso   1.00
H128   H     0.25184   0.06865   0.52147   0.00000  Uiso   1.00
H129   H     0.85377   0.24637   0.05795   0.00000  Uiso   1.00
O130   O     0.42795   0.89576   0.83029   0.00000  Uiso   1.00
O131   O     0.39871   0.92010   0.50721   0.00000  Uiso   1.00
O132   O     0.87644   0.15327   0.21106   0.00000  Uiso   1.00
N133   N     0.43029   0.70283   0.87199   0.00000  Uiso   1.00
N134   N     0.40947   0.00757   0.64174   0.00000  Uiso   1.00
N135   N     0.03730   0.17369   0.14330   0.00000  Uiso   1.00
N136   N     0.31430   0.75955   0.79972   0.00000  Uiso   1.00
N137   N     0.29348   0.06430   0.56947   0.00000  Uiso   1.00
N138   N     0.92130   0.23042   0.07103   0.00000  Uiso   1.00
C139   C     0.69745   0.28976   0.60793   0.00000  Uiso   1.00
C140   C     0.69060   0.41746   0.63111   0.00000  Uiso   1.00
C141   C     0.62022   0.49324   0.61036   0.00000  Uiso   1.00
C142   C     0.62656   0.60667   0.63744   0.00000  Uiso   1.00
C143   C     0.60462   0.79944   0.66645   0.00000  Uiso   1.00
C144   C     0.69633   0.22586   0.69458   0.00000  Uiso   1.00
C145   C     0.63077   0.14052   0.72718   0.00000  Uiso   1.00
C146   C     0.64194   0.09265   0.80768   0.00000  Uiso   1.00
C147   C     0.62894   0.98789   0.93520   0.00000  Uiso   1.00
C148   C     0.79889   0.27166   0.55635   0.00000  Uiso   1.00
C149   C     0.81958   0.22480   0.47273   0.00000  Uiso   1.00
C150   C     0.91711   0.21547   0.43685   0.00000  Uiso   1.00
C151   C     0.06336   0.18182   0.34974   0.00000  Uiso   1.00
C152   C     0.83386   0.35646   0.69292   0.00000  Uiso   1.00
C153   C     0.76469   0.45369   0.67728   0.00000  Uiso   1.00
C154   C     0.77114   0.56704   0.70439   0.00000  Uiso   1.00
C155   C     0.70078   0.64297   0.68368   0.00000  Uiso   1.00
C156   C     0.77041   0.26209   0.74075   0.00000  Uiso   1.00
C157   C     0.78169   0.21432   0.82121   0.00000  Uiso   1.00
C158   C     0.71616   0.12894   0.85393   0.00000  Uiso   1.00
C159   C     0.87299   0.30789   0.60251   0.00000  Uiso   1.00
C160   C     0.97050   0.29861   0.56676   0.00000  Uiso   1.00
C161   C     0.99133   0.25176   0.48310   0.00000  Uiso   1.00
H162   H     0.63977   0.26154   0.57200   0.00000  Uiso   1.00
H163   H     0.56289   0.46516   0.57464   0.00000  Uiso   1.00
H164   H     0.57345   0.11249   0.69144   0.00000  Uiso   1.00
H165   H     0.76223   0.19677   0.43703   0.00000  Uiso   1.00
H166   H     0.51031   0.70688   0.59796   0.00000  Uiso   1.00
H167   H     0.53259   0.96323   0.84422   0.00000  Uiso   1.00
H168   H     0.93067   0.14095   0.30774   0.00000  Uiso   1.00
H169   H     0.89154   0.38467   0.72886   0.00000  Uiso   1.00
H170   H     0.82848   0.59505   0.74011   0.00000  Uiso   1.00
H171   H     0.83904   0.24238   0.85692   0.00000  Uiso   1.00
H172   H     0.02782   0.32666   0.60250   0.00000  Uiso   1.00
H173   H     0.72587   0.81230   0.73227   0.00000  Uiso   1.00
H174   H     0.74816   0.06865   0.97853   0.00000  Uiso   1.00
H175   H     0.14623   0.24637   0.44205   0.00000  Uiso   1.00
O176   O     0.57205   0.89576   0.66971   0.00000  Uiso   1.00
O177   O     0.60129   0.92010   0.99279   0.00000  Uiso   1.00
O178   O     0.12356   0.15327   0.28894   0.00000  Uiso   1.00
N179   N     0.56971   0.70283   0.62801   0.00000  Uiso   1.00
N180   N     0.59053   0.00757   0.85826   0.00000  Uiso   1.00
N181   N     0.96270   0.17369   0.35670   0.00000  Uiso   1.00
N182   N     0.68570   0.75955   0.70028   0.00000  Uiso   1.00
N183   N     0.70652   0.06430   0.93053   0.00000  Uiso   1.00
N184   N     0.07870   0.23042   0.42897   0.00000  Uiso   1.00
