data_job_03972
_audit_creation_date              2018-12-19
_audit_creation_method            'Materials Studio'
_symmetry_space_group_name_H-M    'P1'
_symmetry_Int_Tables_number       1
_symmetry_cell_setting            triclinic
loop_
_symmetry_equiv_pos_as_xyz
  x,y,z
_cell_length_a                    18.2529
_cell_length_b                    9.6856
_cell_length_c                    29.8756
_cell_angle_alpha                 90.0000
_cell_angle_beta                  90.0000
_cell_angle_gamma                 90.0000
loop_
_atom_site_label
_atom_site_type_symbol
_atom_site_fract_x
_atom_site_fract_y
_atom_site_fract_z
_atom_site_U_iso_or_equiv
_atom_site_adp_type
_atom_site_occupancy
C1     C     0.46450   0.45794   0.33996   0.00000  Uiso   1.00
C2     C     0.40392   0.54923   0.32099   0.00000  Uiso   1.00
C3     C     0.39070   0.57325   0.27591   0.00000  Uiso   1.00
C4     C     0.33263   0.65996   0.26539   0.00000  Uiso   1.00
C5     C     0.24514   0.79245   0.23085   0.00000  Uiso   1.00
C6     C     0.42637   0.35144   0.36947   0.00000  Uiso   1.00
C7     C     0.43203   0.20916   0.36515   0.00000  Uiso   1.00
C8     C     0.39285   0.12938   0.39545   0.00000  Uiso   1.00
C9     C     0.34024   0.95480   0.43620   0.00000  Uiso   1.00
C10    C     0.50863   0.54941   0.37157   0.00000  Uiso   1.00
C11    C     0.58346   0.57357   0.36903   0.00000  Uiso   1.00
C12    C     0.61354   0.66044   0.40110   0.00000  Uiso   1.00
C13    C     0.68866   0.79325   0.44510   0.00000  Uiso   1.00
C14    C     0.38488   0.56923   0.40144   0.00000  Uiso   1.00
C15    C     0.36068   0.60967   0.35438   0.00000  Uiso   1.00
C16    C     0.30261   0.69637   0.34393   0.00000  Uiso   1.00
C17    C     0.28931   0.72052   0.29885   0.00000  Uiso   1.00
C18    C     0.38312   0.41188   0.40286   0.00000  Uiso   1.00
C19    C     0.34394   0.33229   0.43318   0.00000  Uiso   1.00
C20    C     0.34953   0.18993   0.42891   0.00000  Uiso   1.00
C21    C     0.46538   0.60986   0.40496   0.00000  Uiso   1.00
C22    C     0.49536   0.69670   0.43705   0.00000  Uiso   1.00
C23    C     0.57022   0.72100   0.43456   0.00000  Uiso   1.00
H24    H     0.49816   0.41087   0.31397   0.00000  Uiso   1.00
H25    H     0.42418   0.52644   0.25008   0.00000  Uiso   1.00
H26    H     0.46550   0.16242   0.33931   0.00000  Uiso   1.00
H27    H     0.61690   0.52678   0.34318   0.00000  Uiso   1.00
H28    H     0.32307   0.68118   0.19397   0.00000  Uiso   1.00
H29    H     0.41022   0.91362   0.38214   0.00000  Uiso   1.00
H30    H     0.72948   0.68193   0.39030   0.00000  Uiso   1.00
H31    H     0.35120   0.61629   0.42744   0.00000  Uiso   1.00
H32    H     0.26916   0.74313   0.36978   0.00000  Uiso   1.00
H33    H     0.31048   0.37910   0.45902   0.00000  Uiso   1.00
H34    H     0.46188   0.74346   0.46289   0.00000  Uiso   1.00
H35    H     0.19724   0.85705   0.29113   0.00000  Uiso   1.00
H36    H     0.28439   0.08949   0.47929   0.00000  Uiso   1.00
H37    H     0.60366   0.85781   0.48746   0.00000  Uiso   1.00
O38    O     0.20882   0.84882   0.20257   0.00000  Uiso   1.00
O39    O     0.32317   0.84181   0.44944   0.00000  Uiso   1.00
O40    O     0.74203   0.84982   0.46015   0.00000  Uiso   1.00
N41    N     0.30472   0.70519   0.22475   0.00000  Uiso   1.00
N42    N     0.38619   0.98756   0.40067   0.00000  Uiso   1.00
N43    N     0.68468   0.70584   0.40831   0.00000  Uiso   1.00
N44    N     0.23702   0.79983   0.27703   0.00000  Uiso   1.00
N45    N     0.31849   0.08220   0.45295   0.00000  Uiso   1.00
N46    N     0.61698   0.80048   0.46059   0.00000  Uiso   1.00
C47    C     0.03550   0.04206   0.83996   0.00000  Uiso   1.00
C48    C     0.09608   0.95077   0.82099   0.00000  Uiso   1.00
C49    C     0.10930   0.92675   0.77591   0.00000  Uiso   1.00
C50    C     0.16737   0.84004   0.76539   0.00000  Uiso   1.00
C51    C     0.25486   0.70755   0.73085   0.00000  Uiso   1.00
C52    C     0.07363   0.14856   0.86947   0.00000  Uiso   1.00
C53    C     0.06797   0.29084   0.86515   0.00000  Uiso   1.00
C54    C     0.10715   0.37062   0.89545   0.00000  Uiso   1.00
C55    C     0.15976   0.54520   0.93620   0.00000  Uiso   1.00
C56    C     0.99137   0.95059   0.87157   0.00000  Uiso   1.00
C57    C     0.91654   0.92643   0.86903   0.00000  Uiso   1.00
C58    C     0.88646   0.83956   0.90110   0.00000  Uiso   1.00
C59    C     0.81134   0.70675   0.94510   0.00000  Uiso   1.00
C60    C     0.11512   0.93077   0.90144   0.00000  Uiso   1.00
C61    C     0.13932   0.89033   0.85438   0.00000  Uiso   1.00
C62    C     0.19739   0.80363   0.84393   0.00000  Uiso   1.00
C63    C     0.21069   0.77948   0.79885   0.00000  Uiso   1.00
C64    C     0.11688   0.08812   0.90286   0.00000  Uiso   1.00
C65    C     0.15606   0.16771   0.93318   0.00000  Uiso   1.00
C66    C     0.15047   0.31007   0.92891   0.00000  Uiso   1.00
C67    C     0.03462   0.89014   0.90496   0.00000  Uiso   1.00
C68    C     0.00464   0.80330   0.93705   0.00000  Uiso   1.00
C69    C     0.92978   0.77900   0.93456   0.00000  Uiso   1.00
H70    H     0.00184   0.08913   0.81397   0.00000  Uiso   1.00
H71    H     0.07582   0.97356   0.75008   0.00000  Uiso   1.00
H72    H     0.03450   0.33758   0.83931   0.00000  Uiso   1.00
H73    H     0.88310   0.97322   0.84318   0.00000  Uiso   1.00
H74    H     0.17693   0.81882   0.69397   0.00000  Uiso   1.00
H75    H     0.08978   0.58638   0.88214   0.00000  Uiso   1.00
H76    H     0.77052   0.81807   0.89030   0.00000  Uiso   1.00
H77    H     0.14880   0.88371   0.92744   0.00000  Uiso   1.00
H78    H     0.23084   0.75687   0.86978   0.00000  Uiso   1.00
H79    H     0.18952   0.12090   0.95902   0.00000  Uiso   1.00
H80    H     0.03812   0.75654   0.96289   0.00000  Uiso   1.00
H81    H     0.30276   0.64295   0.79113   0.00000  Uiso   1.00
H82    H     0.21561   0.41051   0.97929   0.00000  Uiso   1.00
H83    H     0.89634   0.64219   0.98746   0.00000  Uiso   1.00
O84    O     0.29118   0.65118   0.70257   0.00000  Uiso   1.00
O85    O     0.17683   0.65819   0.94944   0.00000  Uiso   1.00
O86    O     0.75797   0.65018   0.96015   0.00000  Uiso   1.00
N87    N     0.19528   0.79481   0.72475   0.00000  Uiso   1.00
N88    N     0.11381   0.51244   0.90067   0.00000  Uiso   1.00
N89    N     0.81532   0.79416   0.90831   0.00000  Uiso   1.00
N90    N     0.26298   0.70017   0.77703   0.00000  Uiso   1.00
N91    N     0.18151   0.41780   0.95295   0.00000  Uiso   1.00
N92    N     0.88302   0.69952   0.96059   0.00000  Uiso   1.00
C93    C     0.53550   0.45794   0.16004   0.00000  Uiso   1.00
C94    C     0.59608   0.54923   0.17901   0.00000  Uiso   1.00
C95    C     0.60930   0.57325   0.22409   0.00000  Uiso   1.00
C96    C     0.66737   0.65996   0.23461   0.00000  Uiso   1.00
C97    C     0.75486   0.79245   0.26915   0.00000  Uiso   1.00
C98    C     0.57363   0.35144   0.13053   0.00000  Uiso   1.00
C99    C     0.56797   0.20916   0.13485   0.00000  Uiso   1.00
C100   C     0.60715   0.12938   0.10455   0.00000  Uiso   1.00
C101   C     0.65976   0.95480   0.06380   0.00000  Uiso   1.00
C102   C     0.49137   0.54941   0.12843   0.00000  Uiso   1.00
C103   C     0.41654   0.57357   0.13097   0.00000  Uiso   1.00
C104   C     0.38646   0.66044   0.09890   0.00000  Uiso   1.00
C105   C     0.31134   0.79325   0.05490   0.00000  Uiso   1.00
C106   C     0.61512   0.56923   0.09856   0.00000  Uiso   1.00
C107   C     0.63932   0.60967   0.14562   0.00000  Uiso   1.00
C108   C     0.69739   0.69637   0.15607   0.00000  Uiso   1.00
C109   C     0.71069   0.72052   0.20115   0.00000  Uiso   1.00
C110   C     0.61688   0.41188   0.09714   0.00000  Uiso   1.00
C111   C     0.65606   0.33229   0.06682   0.00000  Uiso   1.00
C112   C     0.65047   0.18993   0.07109   0.00000  Uiso   1.00
C113   C     0.53462   0.60986   0.09504   0.00000  Uiso   1.00
C114   C     0.50464   0.69670   0.06295   0.00000  Uiso   1.00
C115   C     0.42978   0.72100   0.06544   0.00000  Uiso   1.00
H116   H     0.50184   0.41087   0.18603   0.00000  Uiso   1.00
H117   H     0.57582   0.52644   0.24992   0.00000  Uiso   1.00
H118   H     0.53450   0.16242   0.16069   0.00000  Uiso   1.00
H119   H     0.38310   0.52678   0.15682   0.00000  Uiso   1.00
H120   H     0.67693   0.68118   0.30603   0.00000  Uiso   1.00
H121   H     0.58978   0.91362   0.11786   0.00000  Uiso   1.00
H122   H     0.27052   0.68193   0.10970   0.00000  Uiso   1.00
H123   H     0.64880   0.61629   0.07256   0.00000  Uiso   1.00
H124   H     0.73084   0.74313   0.13022   0.00000  Uiso   1.00
H125   H     0.68952   0.37910   0.04098   0.00000  Uiso   1.00
H126   H     0.53812   0.74346   0.03711   0.00000  Uiso   1.00
H127   H     0.80276   0.85705   0.20887   0.00000  Uiso   1.00
H128   H     0.71561   0.08949   0.02071   0.00000  Uiso   1.00
H129   H     0.39634   0.85781   0.01254   0.00000  Uiso   1.00
O130   O     0.79118   0.84882   0.29743   0.00000  Uiso   1.00
O131   O     0.67683   0.84181   0.05056   0.00000  Uiso   1.00
O132   O     0.25797   0.84982   0.03985   0.00000  Uiso   1.00
N133   N     0.69528   0.70519   0.27525   0.00000  Uiso   1.00
N134   N     0.61381   0.98756   0.09933   0.00000  Uiso   1.00
N135   N     0.31532   0.70584   0.09169   0.00000  Uiso   1.00
N136   N     0.76298   0.79983   0.22297   0.00000  Uiso   1.00
N137   N     0.68151   0.08220   0.04705   0.00000  Uiso   1.00
N138   N     0.38302   0.80048   0.03941   0.00000  Uiso   1.00
C139   C     0.96450   0.04206   0.66004   0.00000  Uiso   1.00
C140   C     0.90392   0.95077   0.67901   0.00000  Uiso   1.00
C141   C     0.89070   0.92675   0.72409   0.00000  Uiso   1.00
C142   C     0.83263   0.84004   0.73461   0.00000  Uiso   1.00
C143   C     0.74514   0.70755   0.76915   0.00000  Uiso   1.00
C144   C     0.92637   0.14856   0.63053   0.00000  Uiso   1.00
C145   C     0.93203   0.29084   0.63485   0.00000  Uiso   1.00
C146   C     0.89285   0.37062   0.60455   0.00000  Uiso   1.00
C147   C     0.84024   0.54520   0.56380   0.00000  Uiso   1.00
C148   C     0.00863   0.95059   0.62843   0.00000  Uiso   1.00
C149   C     0.08346   0.92643   0.63097   0.00000  Uiso   1.00
C150   C     0.11354   0.83956   0.59890   0.00000  Uiso   1.00
C151   C     0.18866   0.70675   0.55490   0.00000  Uiso   1.00
C152   C     0.88488   0.93077   0.59856   0.00000  Uiso   1.00
C153   C     0.86068   0.89033   0.64562   0.00000  Uiso   1.00
C154   C     0.80261   0.80363   0.65607   0.00000  Uiso   1.00
C155   C     0.78931   0.77948   0.70115   0.00000  Uiso   1.00
C156   C     0.88312   0.08812   0.59714   0.00000  Uiso   1.00
C157   C     0.84394   0.16771   0.56682   0.00000  Uiso   1.00
C158   C     0.84953   0.31007   0.57109   0.00000  Uiso   1.00
C159   C     0.96538   0.89014   0.59504   0.00000  Uiso   1.00
C160   C     0.99536   0.80330   0.56295   0.00000  Uiso   1.00
C161   C     0.07022   0.77900   0.56544   0.00000  Uiso   1.00
H162   H     0.99816   0.08913   0.68603   0.00000  Uiso   1.00
H163   H     0.92418   0.97356   0.74992   0.00000  Uiso   1.00
H164   H     0.96550   0.33758   0.66069   0.00000  Uiso   1.00
H165   H     0.11690   0.97322   0.65682   0.00000  Uiso   1.00
H166   H     0.82307   0.81882   0.80603   0.00000  Uiso   1.00
H167   H     0.91022   0.58638   0.61786   0.00000  Uiso   1.00
H168   H     0.22948   0.81807   0.60970   0.00000  Uiso   1.00
H169   H     0.85120   0.88371   0.57256   0.00000  Uiso   1.00
H170   H     0.76916   0.75687   0.63022   0.00000  Uiso   1.00
H171   H     0.81048   0.12090   0.54098   0.00000  Uiso   1.00
H172   H     0.96188   0.75654   0.53711   0.00000  Uiso   1.00
H173   H     0.69724   0.64295   0.70887   0.00000  Uiso   1.00
H174   H     0.78439   0.41051   0.52071   0.00000  Uiso   1.00
H175   H     0.10366   0.64219   0.51254   0.00000  Uiso   1.00
O176   O     0.70882   0.65118   0.79743   0.00000  Uiso   1.00
O177   O     0.82317   0.65819   0.55056   0.00000  Uiso   1.00
O178   O     0.24203   0.65018   0.53985   0.00000  Uiso   1.00
N179   N     0.80472   0.79481   0.77525   0.00000  Uiso   1.00
N180   N     0.88619   0.51244   0.59933   0.00000  Uiso   1.00
N181   N     0.18468   0.79416   0.59169   0.00000  Uiso   1.00
N182   N     0.73702   0.70017   0.72297   0.00000  Uiso   1.00
N183   N     0.81849   0.41780   0.54705   0.00000  Uiso   1.00
N184   N     0.11698   0.69952   0.53941   0.00000  Uiso   1.00
C185   C     0.53550   0.54206   0.66004   0.00000  Uiso   1.00
C186   C     0.59608   0.45077   0.67901   0.00000  Uiso   1.00
C187   C     0.60930   0.42675   0.72409   0.00000  Uiso   1.00
C188   C     0.66737   0.34004   0.73461   0.00000  Uiso   1.00
C189   C     0.75486   0.20755   0.76915   0.00000  Uiso   1.00
C190   C     0.57363   0.64856   0.63053   0.00000  Uiso   1.00
C191   C     0.56797   0.79084   0.63485   0.00000  Uiso   1.00
C192   C     0.60715   0.87062   0.60455   0.00000  Uiso   1.00
C193   C     0.65976   0.04520   0.56380   0.00000  Uiso   1.00
C194   C     0.49137   0.45059   0.62843   0.00000  Uiso   1.00
C195   C     0.41654   0.42643   0.63097   0.00000  Uiso   1.00
C196   C     0.38646   0.33956   0.59890   0.00000  Uiso   1.00
C197   C     0.31134   0.20675   0.55490   0.00000  Uiso   1.00
C198   C     0.61512   0.43077   0.59856   0.00000  Uiso   1.00
C199   C     0.63932   0.39033   0.64562   0.00000  Uiso   1.00
C200   C     0.69739   0.30363   0.65607   0.00000  Uiso   1.00
C201   C     0.71069   0.27948   0.70115   0.00000  Uiso   1.00
C202   C     0.61688   0.58812   0.59714   0.00000  Uiso   1.00
C203   C     0.65606   0.66771   0.56682   0.00000  Uiso   1.00
C204   C     0.65047   0.81007   0.57109   0.00000  Uiso   1.00
C205   C     0.53462   0.39014   0.59504   0.00000  Uiso   1.00
C206   C     0.50464   0.30330   0.56295   0.00000  Uiso   1.00
C207   C     0.42978   0.27900   0.56544   0.00000  Uiso   1.00
H208   H     0.50184   0.58913   0.68603   0.00000  Uiso   1.00
H209   H     0.57582   0.47356   0.74992   0.00000  Uiso   1.00
H210   H     0.53450   0.83758   0.66069   0.00000  Uiso   1.00
H211   H     0.38310   0.47322   0.65682   0.00000  Uiso   1.00
H212   H     0.67693   0.31882   0.80603   0.00000  Uiso   1.00
H213   H     0.58978   0.08638   0.61786   0.00000  Uiso   1.00
H214   H     0.27052   0.31807   0.60970   0.00000  Uiso   1.00
H215   H     0.64880   0.38371   0.57256   0.00000  Uiso   1.00
H216   H     0.73084   0.25687   0.63022   0.00000  Uiso   1.00
H217   H     0.68952   0.62090   0.54098   0.00000  Uiso   1.00
H218   H     0.53812   0.25654   0.53711   0.00000  Uiso   1.00
H219   H     0.80276   0.14295   0.70887   0.00000  Uiso   1.00
H220   H     0.71561   0.91051   0.52071   0.00000  Uiso   1.00
H221   H     0.39634   0.14219   0.51254   0.00000  Uiso   1.00
O222   O     0.79118   0.15118   0.79743   0.00000  Uiso   1.00
O223   O     0.67683   0.15819   0.55056   0.00000  Uiso   1.00
O224   O     0.25797   0.15018   0.53985   0.00000  Uiso   1.00
N225   N     0.69528   0.29481   0.77525   0.00000  Uiso   1.00
N226   N     0.61381   0.01244   0.59933   0.00000  Uiso   1.00
N227   N     0.31532   0.29416   0.59169   0.00000  Uiso   1.00
N228   N     0.76298   0.20017   0.72297   0.00000  Uiso   1.00
N229   N     0.68151   0.91780   0.54705   0.00000  Uiso   1.00
N230   N     0.38302   0.19952   0.53941   0.00000  Uiso   1.00
C231   C     0.96450   0.95794   0.16004   0.00000  Uiso   1.00
C232   C     0.90392   0.04923   0.17901   0.00000  Uiso   1.00
C233   C     0.89070   0.07325   0.22409   0.00000  Uiso   1.00
C234   C     0.83263   0.15996   0.23461   0.00000  Uiso   1.00
C235   C     0.74514   0.29245   0.26915   0.00000  Uiso   1.00
C236   C     0.92637   0.85144   0.13053   0.00000  Uiso   1.00
C237   C     0.93203   0.70916   0.13485   0.00000  Uiso   1.00
C238   C     0.89285   0.62938   0.10455   0.00000  Uiso   1.00
C239   C     0.84024   0.45480   0.06380   0.00000  Uiso   1.00
C240   C     0.00863   0.04941   0.12843   0.00000  Uiso   1.00
C241   C     0.08346   0.07357   0.13097   0.00000  Uiso   1.00
C242   C     0.11354   0.16044   0.09890   0.00000  Uiso   1.00
C243   C     0.18866   0.29325   0.05490   0.00000  Uiso   1.00
C244   C     0.88488   0.06923   0.09856   0.00000  Uiso   1.00
C245   C     0.86068   0.10967   0.14562   0.00000  Uiso   1.00
C246   C     0.80261   0.19637   0.15607   0.00000  Uiso   1.00
C247   C     0.78931   0.22052   0.20115   0.00000  Uiso   1.00
C248   C     0.88312   0.91188   0.09714   0.00000  Uiso   1.00
C249   C     0.84394   0.83229   0.06682   0.00000  Uiso   1.00
C250   C     0.84953   0.68993   0.07109   0.00000  Uiso   1.00
C251   C     0.96538   0.10986   0.09504   0.00000  Uiso   1.00
C252   C     0.99536   0.19670   0.06295   0.00000  Uiso   1.00
C253   C     0.07022   0.22100   0.06544   0.00000  Uiso   1.00
H254   H     0.99816   0.91087   0.18603   0.00000  Uiso   1.00
H255   H     0.92418   0.02644   0.24992   0.00000  Uiso   1.00
H256   H     0.96550   0.66242   0.16069   0.00000  Uiso   1.00
H257   H     0.11690   0.02678   0.15682   0.00000  Uiso   1.00
H258   H     0.82307   0.18118   0.30603   0.00000  Uiso   1.00
H259   H     0.91022   0.41362   0.11786   0.00000  Uiso   1.00
H260   H     0.22948   0.18193   0.10970   0.00000  Uiso   1.00
H261   H     0.85120   0.11629   0.07256   0.00000  Uiso   1.00
H262   H     0.76916   0.24313   0.13022   0.00000  Uiso   1.00
H263   H     0.81048   0.87910   0.04098   0.00000  Uiso   1.00
H264   H     0.96188   0.24346   0.03711   0.00000  Uiso   1.00
H265   H     0.69724   0.35705   0.20887   0.00000  Uiso   1.00
H266   H     0.78439   0.58949   0.02071   0.00000  Uiso   1.00
H267   H     0.10366   0.35781   0.01254   0.00000  Uiso   1.00
O268   O     0.70882   0.34882   0.29743   0.00000  Uiso   1.00
O269   O     0.82317   0.34181   0.05056   0.00000  Uiso   1.00
O270   O     0.24203   0.34982   0.03985   0.00000  Uiso   1.00
N271   N     0.80472   0.20519   0.27525   0.00000  Uiso   1.00
N272   N     0.88619   0.48756   0.09933   0.00000  Uiso   1.00
N273   N     0.18468   0.20584   0.09169   0.00000  Uiso   1.00
N274   N     0.73702   0.29983   0.22297   0.00000  Uiso   1.00
N275   N     0.81849   0.58220   0.04705   0.00000  Uiso   1.00
N276   N     0.11698   0.30048   0.03941   0.00000  Uiso   1.00
C277   C     0.46450   0.54206   0.83996   0.00000  Uiso   1.00
C278   C     0.40392   0.45077   0.82099   0.00000  Uiso   1.00
C279   C     0.39070   0.42675   0.77591   0.00000  Uiso   1.00
C280   C     0.33263   0.34004   0.76539   0.00000  Uiso   1.00
C281   C     0.24514   0.20755   0.73085   0.00000  Uiso   1.00
C282   C     0.42637   0.64856   0.86947   0.00000  Uiso   1.00
C283   C     0.43203   0.79084   0.86515   0.00000  Uiso   1.00
C284   C     0.39285   0.87062   0.89545   0.00000  Uiso   1.00
C285   C     0.34024   0.04520   0.93620   0.00000  Uiso   1.00
C286   C     0.50863   0.45059   0.87157   0.00000  Uiso   1.00
C287   C     0.58346   0.42643   0.86903   0.00000  Uiso   1.00
C288   C     0.61354   0.33956   0.90110   0.00000  Uiso   1.00
C289   C     0.68866   0.20675   0.94510   0.00000  Uiso   1.00
C290   C     0.38488   0.43077   0.90144   0.00000  Uiso   1.00
C291   C     0.36068   0.39033   0.85438   0.00000  Uiso   1.00
C292   C     0.30261   0.30363   0.84393   0.00000  Uiso   1.00
C293   C     0.28931   0.27948   0.79885   0.00000  Uiso   1.00
C294   C     0.38312   0.58812   0.90286   0.00000  Uiso   1.00
C295   C     0.34394   0.66771   0.93318   0.00000  Uiso   1.00
C296   C     0.34953   0.81007   0.92891   0.00000  Uiso   1.00
C297   C     0.46538   0.39014   0.90496   0.00000  Uiso   1.00
C298   C     0.49536   0.30330   0.93705   0.00000  Uiso   1.00
C299   C     0.57022   0.27900   0.93456   0.00000  Uiso   1.00
H300   H     0.49816   0.58913   0.81397   0.00000  Uiso   1.00
H301   H     0.42418   0.47356   0.75008   0.00000  Uiso   1.00
H302   H     0.46550   0.83758   0.83931   0.00000  Uiso   1.00
H303   H     0.61690   0.47322   0.84318   0.00000  Uiso   1.00
H304   H     0.32307   0.31882   0.69397   0.00000  Uiso   1.00
H305   H     0.41022   0.08638   0.88214   0.00000  Uiso   1.00
H306   H     0.72948   0.31807   0.89030   0.00000  Uiso   1.00
H307   H     0.35120   0.38371   0.92744   0.00000  Uiso   1.00
H308   H     0.26916   0.25687   0.86978   0.00000  Uiso   1.00
H309   H     0.31048   0.62090   0.95902   0.00000  Uiso   1.00
H310   H     0.46188   0.25654   0.96289   0.00000  Uiso   1.00
H311   H     0.19724   0.14295   0.79113   0.00000  Uiso   1.00
H312   H     0.28439   0.91051   0.97929   0.00000  Uiso   1.00
H313   H     0.60366   0.14219   0.98746   0.00000  Uiso   1.00
O314   O     0.20882   0.15118   0.70257   0.00000  Uiso   1.00
O315   O     0.32317   0.15819   0.94944   0.00000  Uiso   1.00
O316   O     0.74203   0.15018   0.96015   0.00000  Uiso   1.00
N317   N     0.30472   0.29481   0.72475   0.00000  Uiso   1.00
N318   N     0.38619   0.01244   0.90067   0.00000  Uiso   1.00
N319   N     0.68468   0.29416   0.90831   0.00000  Uiso   1.00
N320   N     0.23702   0.20017   0.77703   0.00000  Uiso   1.00
N321   N     0.31849   0.91780   0.95295   0.00000  Uiso   1.00
N322   N     0.61698   0.19952   0.96059   0.00000  Uiso   1.00
C323   C     0.03550   0.95794   0.33996   0.00000  Uiso   1.00
C324   C     0.09608   0.04923   0.32099   0.00000  Uiso   1.00
C325   C     0.10930   0.07325   0.27591   0.00000  Uiso   1.00
C326   C     0.16737   0.15996   0.26539   0.00000  Uiso   1.00
C327   C     0.25486   0.29245   0.23085   0.00000  Uiso   1.00
C328   C     0.07363   0.85144   0.36947   0.00000  Uiso   1.00
C329   C     0.06797   0.70916   0.36515   0.00000  Uiso   1.00
C330   C     0.10715   0.62938   0.39545   0.00000  Uiso   1.00
C331   C     0.15976   0.45480   0.43620   0.00000  Uiso   1.00
C332   C     0.99137   0.04941   0.37157   0.00000  Uiso   1.00
C333   C     0.91654   0.07357   0.36903   0.00000  Uiso   1.00
C334   C     0.88646   0.16044   0.40110   0.00000  Uiso   1.00
C335   C     0.81134   0.29325   0.44510   0.00000  Uiso   1.00
C336   C     0.11512   0.06923   0.40144   0.00000  Uiso   1.00
C337   C     0.13932   0.10967   0.35438   0.00000  Uiso   1.00
C338   C     0.19739   0.19637   0.34393   0.00000  Uiso   1.00
C339   C     0.21069   0.22052   0.29885   0.00000  Uiso   1.00
C340   C     0.11688   0.91188   0.40286   0.00000  Uiso   1.00
C341   C     0.15606   0.83229   0.43318   0.00000  Uiso   1.00
C342   C     0.15047   0.68993   0.42891   0.00000  Uiso   1.00
C343   C     0.03462   0.10986   0.40496   0.00000  Uiso   1.00
C344   C     0.00464   0.19670   0.43705   0.00000  Uiso   1.00
C345   C     0.92978   0.22100   0.43456   0.00000  Uiso   1.00
H346   H     0.00184   0.91087   0.31397   0.00000  Uiso   1.00
H347   H     0.07582   0.02644   0.25008   0.00000  Uiso   1.00
H348   H     0.03450   0.66242   0.33931   0.00000  Uiso   1.00
H349   H     0.88310   0.02678   0.34318   0.00000  Uiso   1.00
H350   H     0.17693   0.18118   0.19397   0.00000  Uiso   1.00
H351   H     0.08978   0.41362   0.38214   0.00000  Uiso   1.00
H352   H     0.77052   0.18193   0.39030   0.00000  Uiso   1.00
H353   H     0.14880   0.11629   0.42744   0.00000  Uiso   1.00
H354   H     0.23084   0.24313   0.36978   0.00000  Uiso   1.00
H355   H     0.18952   0.87910   0.45902   0.00000  Uiso   1.00
H356   H     0.03812   0.24346   0.46289   0.00000  Uiso   1.00
H357   H     0.30276   0.35705   0.29113   0.00000  Uiso   1.00
H358   H     0.21561   0.58949   0.47929   0.00000  Uiso   1.00
H359   H     0.89634   0.35781   0.48746   0.00000  Uiso   1.00
O360   O     0.29118   0.34882   0.20257   0.00000  Uiso   1.00
O361   O     0.17683   0.34181   0.44944   0.00000  Uiso   1.00
O362   O     0.75797   0.34982   0.46015   0.00000  Uiso   1.00
N363   N     0.19528   0.20519   0.22475   0.00000  Uiso   1.00
N364   N     0.11381   0.48756   0.40067   0.00000  Uiso   1.00
N365   N     0.81532   0.20584   0.40831   0.00000  Uiso   1.00
N366   N     0.26298   0.29983   0.27703   0.00000  Uiso   1.00
N367   N     0.18151   0.58220   0.45295   0.00000  Uiso   1.00
N368   N     0.88302   0.30048   0.46059   0.00000  Uiso   1.00
