data_job_03796
_audit_creation_date              2018-12-19
_audit_creation_method            'Materials Studio'
_symmetry_space_group_name_H-M    'P1'
_symmetry_Int_Tables_number       1
_symmetry_cell_setting            triclinic
loop_
_symmetry_equiv_pos_as_xyz
  x,y,z
_cell_length_a                    15.2910
_cell_length_b                    19.2417
_cell_length_c                    9.5336
_cell_angle_alpha                 90.0000
_cell_angle_beta                  112.0790
_cell_angle_gamma                 90.0000
loop_
_atom_site_label
_atom_site_type_symbol
_atom_site_fract_x
_atom_site_fract_y
_atom_site_fract_z
_atom_site_U_iso_or_equiv
_atom_site_adp_type
_atom_site_occupancy
C1     C     0.95636   0.18555   0.43305   0.00000  Uiso   1.00
C2     C     0.96942   0.18510   0.59970   0.00000  Uiso   1.00
C3     C     0.04866   0.16143   0.71844   0.00000  Uiso   1.00
C4     C     0.04686   0.16540   0.86274   0.00000  Uiso   1.00
C5     C     0.07904   0.16061   0.11776   0.00000  Uiso   1.00
C6     C     0.86626   0.14459   0.35012   0.00000  Uiso   1.00
C7     C     0.85876   0.08687   0.25901   0.00000  Uiso   1.00
C8     C     0.77011   0.05675   0.19321   0.00000  Uiso   1.00
C9     C     0.64211   0.98910   0.06067   0.00000  Uiso   1.00
C10    C     0.93463   0.26063   0.38024   0.00000  Uiso   1.00
C11    C     0.98460   0.30048   0.31442   0.00000  Uiso   1.00
C12    C     0.95349   0.36805   0.27393   0.00000  Uiso   1.00
C13    C     0.93164   0.48057   0.18816   0.00000  Uiso   1.00
C14    C     0.81224   0.23469   0.47816   0.00000  Uiso   1.00
C15    C     0.89114   0.21179   0.62419   0.00000  Uiso   1.00
C16    C     0.88922   0.21580   0.76835   0.00000  Uiso   1.00
C17    C     0.96845   0.19215   0.88729   0.00000  Uiso   1.00
C18    C     0.78798   0.17128   0.37462   0.00000  Uiso   1.00
C19    C     0.69932   0.14124   0.30892   0.00000  Uiso   1.00
C20    C     0.69169   0.08349   0.21775   0.00000  Uiso   1.00
C21    C     0.85635   0.28733   0.40475   0.00000  Uiso   1.00
C22    C     0.82515   0.35485   0.36434   0.00000  Uiso   1.00
C23    C     0.87507   0.39479   0.29847   0.00000  Uiso   1.00
H24    H     0.01730   0.16477   0.41397   0.00000  Uiso   1.00
H25    H     0.10923   0.14077   0.69943   0.00000  Uiso   1.00
H26    H     0.91935   0.06623   0.24006   0.00000  Uiso   1.00
H27    H     0.04517   0.27981   0.29547   0.00000  Uiso   1.00
H28    H     0.17661   0.12592   0.02672   0.00000  Uiso   1.00
H29    H     0.77624   0.96876   0.05808   0.00000  Uiso   1.00
H30    H     0.04155   0.41912   0.17491   0.00000  Uiso   1.00
H31    H     0.75129   0.25547   0.49723   0.00000  Uiso   1.00
H32    H     0.82863   0.23646   0.78728   0.00000  Uiso   1.00
H33    H     0.63876   0.16191   0.32790   0.00000  Uiso   1.00
H34    H     0.76457   0.37549   0.38331   0.00000  Uiso   1.00
H35    H     0.94887   0.20358   0.09802   0.00000  Uiso   1.00
H36    H     0.54850   0.04642   0.12936   0.00000  Uiso   1.00
H37    H     0.81381   0.49678   0.24621   0.00000  Uiso   1.00
O38    O     0.11840   0.15058   0.25166   0.00000  Uiso   1.00
O39    O     0.59313   0.94441   0.98081   0.00000  Uiso   1.00
O40    O     0.94122   0.53527   0.13411   0.00000  Uiso   1.00
N41    N     0.11241   0.14682   0.00370   0.00000  Uiso   1.00
N42    N     0.73809   0.99988   0.09809   0.00000  Uiso   1.00
N43    N     0.98612   0.42092   0.20729   0.00000  Uiso   1.00
N44    N     0.98986   0.18861   0.04206   0.00000  Uiso   1.00
N45    N     0.61555   0.04167   0.13646   0.00000  Uiso   1.00
N46    N     0.86357   0.46271   0.24565   0.00000  Uiso   1.00
C47    C     0.45636   0.68555   0.43305   0.00000  Uiso   1.00
C48    C     0.46942   0.68510   0.59970   0.00000  Uiso   1.00
C49    C     0.54866   0.66143   0.71844   0.00000  Uiso   1.00
C50    C     0.54686   0.66540   0.86274   0.00000  Uiso   1.00
C51    C     0.57904   0.66061   0.11776   0.00000  Uiso   1.00
C52    C     0.36626   0.64459   0.35012   0.00000  Uiso   1.00
C53    C     0.35876   0.58687   0.25901   0.00000  Uiso   1.00
C54    C     0.27011   0.55675   0.19321   0.00000  Uiso   1.00
C55    C     0.14211   0.48910   0.06067   0.00000  Uiso   1.00
C56    C     0.43463   0.76063   0.38024   0.00000  Uiso   1.00
C57    C     0.48460   0.80048   0.31442   0.00000  Uiso   1.00
C58    C     0.45349   0.86805   0.27393   0.00000  Uiso   1.00
C59    C     0.43164   0.98057   0.18816   0.00000  Uiso   1.00
C60    C     0.31224   0.73469   0.47816   0.00000  Uiso   1.00
C61    C     0.39114   0.71179   0.62419   0.00000  Uiso   1.00
C62    C     0.38922   0.71580   0.76835   0.00000  Uiso   1.00
C63    C     0.46845   0.69215   0.88729   0.00000  Uiso   1.00
C64    C     0.28798   0.67128   0.37462   0.00000  Uiso   1.00
C65    C     0.19932   0.64124   0.30892   0.00000  Uiso   1.00
C66    C     0.19169   0.58349   0.21775   0.00000  Uiso   1.00
C67    C     0.35635   0.78733   0.40475   0.00000  Uiso   1.00
C68    C     0.32515   0.85485   0.36434   0.00000  Uiso   1.00
C69    C     0.37507   0.89479   0.29847   0.00000  Uiso   1.00
H70    H     0.51730   0.66477   0.41397   0.00000  Uiso   1.00
H71    H     0.60923   0.64077   0.69943   0.00000  Uiso   1.00
H72    H     0.41935   0.56623   0.24006   0.00000  Uiso   1.00
H73    H     0.54517   0.77981   0.29547   0.00000  Uiso   1.00
H74    H     0.67661   0.62592   0.02672   0.00000  Uiso   1.00
H75    H     0.27624   0.46876   0.05808   0.00000  Uiso   1.00
H76    H     0.54155   0.91912   0.17491   0.00000  Uiso   1.00
H77    H     0.25129   0.75547   0.49723   0.00000  Uiso   1.00
H78    H     0.32863   0.73646   0.78728   0.00000  Uiso   1.00
H79    H     0.13876   0.66191   0.32790   0.00000  Uiso   1.00
H80    H     0.26457   0.87549   0.38331   0.00000  Uiso   1.00
H81    H     0.44887   0.70358   0.09802   0.00000  Uiso   1.00
H82    H     0.04850   0.54642   0.12936   0.00000  Uiso   1.00
H83    H     0.31381   0.99678   0.24621   0.00000  Uiso   1.00
O84    O     0.61840   0.65058   0.25166   0.00000  Uiso   1.00
O85    O     0.09313   0.44441   0.98081   0.00000  Uiso   1.00
O86    O     0.44122   0.03527   0.13411   0.00000  Uiso   1.00
N87    N     0.61241   0.64682   0.00370   0.00000  Uiso   1.00
N88    N     0.23809   0.49988   0.09809   0.00000  Uiso   1.00
N89    N     0.48612   0.92092   0.20729   0.00000  Uiso   1.00
N90    N     0.48986   0.68861   0.04206   0.00000  Uiso   1.00
N91    N     0.11555   0.54167   0.13646   0.00000  Uiso   1.00
N92    N     0.36357   0.96271   0.24565   0.00000  Uiso   1.00
C93    C     0.95636   0.81445   0.93305   0.00000  Uiso   1.00
C94    C     0.96942   0.81490   0.09970   0.00000  Uiso   1.00
C95    C     0.04866   0.83857   0.21844   0.00000  Uiso   1.00
C96    C     0.04686   0.83460   0.36274   0.00000  Uiso   1.00
C97    C     0.07904   0.83939   0.61776   0.00000  Uiso   1.00
C98    C     0.86626   0.85541   0.85012   0.00000  Uiso   1.00
C99    C     0.85876   0.91313   0.75901   0.00000  Uiso   1.00
C100   C     0.77011   0.94325   0.69321   0.00000  Uiso   1.00
C101   C     0.64211   0.01090   0.56067   0.00000  Uiso   1.00
C102   C     0.93463   0.73937   0.88024   0.00000  Uiso   1.00
C103   C     0.98460   0.69952   0.81442   0.00000  Uiso   1.00
C104   C     0.95349   0.63195   0.77393   0.00000  Uiso   1.00
C105   C     0.93164   0.51943   0.68816   0.00000  Uiso   1.00
C106   C     0.81224   0.76531   0.97816   0.00000  Uiso   1.00
C107   C     0.89114   0.78821   0.12419   0.00000  Uiso   1.00
C108   C     0.88922   0.78420   0.26835   0.00000  Uiso   1.00
C109   C     0.96845   0.80785   0.38729   0.00000  Uiso   1.00
C110   C     0.78798   0.82872   0.87462   0.00000  Uiso   1.00
C111   C     0.69932   0.85876   0.80892   0.00000  Uiso   1.00
C112   C     0.69169   0.91651   0.71775   0.00000  Uiso   1.00
C113   C     0.85635   0.71267   0.90475   0.00000  Uiso   1.00
C114   C     0.82515   0.64515   0.86434   0.00000  Uiso   1.00
C115   C     0.87507   0.60521   0.79847   0.00000  Uiso   1.00
H116   H     0.01730   0.83523   0.91397   0.00000  Uiso   1.00
H117   H     0.10923   0.85923   0.19943   0.00000  Uiso   1.00
H118   H     0.91935   0.93377   0.74006   0.00000  Uiso   1.00
H119   H     0.04517   0.72019   0.79547   0.00000  Uiso   1.00
H120   H     0.17661   0.87408   0.52672   0.00000  Uiso   1.00
H121   H     0.77624   0.03124   0.55808   0.00000  Uiso   1.00
H122   H     0.04155   0.58088   0.67491   0.00000  Uiso   1.00
H123   H     0.75129   0.74453   0.99723   0.00000  Uiso   1.00
H124   H     0.82863   0.76354   0.28728   0.00000  Uiso   1.00
H125   H     0.63876   0.83809   0.82790   0.00000  Uiso   1.00
H126   H     0.76457   0.62451   0.88331   0.00000  Uiso   1.00
H127   H     0.94887   0.79642   0.59802   0.00000  Uiso   1.00
H128   H     0.54850   0.95358   0.62936   0.00000  Uiso   1.00
H129   H     0.81381   0.50322   0.74621   0.00000  Uiso   1.00
O130   O     0.11840   0.84942   0.75166   0.00000  Uiso   1.00
O131   O     0.59313   0.05559   0.48081   0.00000  Uiso   1.00
O132   O     0.94122   0.46473   0.63411   0.00000  Uiso   1.00
N133   N     0.11241   0.85318   0.50370   0.00000  Uiso   1.00
N134   N     0.73809   0.00012   0.59809   0.00000  Uiso   1.00
N135   N     0.98612   0.57908   0.70729   0.00000  Uiso   1.00
N136   N     0.98986   0.81139   0.54206   0.00000  Uiso   1.00
N137   N     0.61555   0.95833   0.63646   0.00000  Uiso   1.00
N138   N     0.86357   0.53729   0.74565   0.00000  Uiso   1.00
C139   C     0.45636   0.31445   0.93305   0.00000  Uiso   1.00
C140   C     0.46942   0.31490   0.09970   0.00000  Uiso   1.00
C141   C     0.54866   0.33857   0.21844   0.00000  Uiso   1.00
C142   C     0.54686   0.33460   0.36274   0.00000  Uiso   1.00
C143   C     0.57904   0.33939   0.61776   0.00000  Uiso   1.00
C144   C     0.36626   0.35541   0.85012   0.00000  Uiso   1.00
C145   C     0.35876   0.41313   0.75901   0.00000  Uiso   1.00
C146   C     0.27011   0.44325   0.69321   0.00000  Uiso   1.00
C147   C     0.14211   0.51090   0.56067   0.00000  Uiso   1.00
C148   C     0.43463   0.23937   0.88024   0.00000  Uiso   1.00
C149   C     0.48460   0.19952   0.81442   0.00000  Uiso   1.00
C150   C     0.45349   0.13195   0.77393   0.00000  Uiso   1.00
C151   C     0.43164   0.01943   0.68816   0.00000  Uiso   1.00
C152   C     0.31224   0.26531   0.97816   0.00000  Uiso   1.00
C153   C     0.39114   0.28821   0.12419   0.00000  Uiso   1.00
C154   C     0.38922   0.28420   0.26835   0.00000  Uiso   1.00
C155   C     0.46845   0.30785   0.38729   0.00000  Uiso   1.00
C156   C     0.28798   0.32872   0.87462   0.00000  Uiso   1.00
C157   C     0.19932   0.35876   0.80892   0.00000  Uiso   1.00
C158   C     0.19169   0.41651   0.71775   0.00000  Uiso   1.00
C159   C     0.35635   0.21267   0.90475   0.00000  Uiso   1.00
C160   C     0.32515   0.14515   0.86434   0.00000  Uiso   1.00
C161   C     0.37507   0.10521   0.79847   0.00000  Uiso   1.00
H162   H     0.51730   0.33523   0.91397   0.00000  Uiso   1.00
H163   H     0.60923   0.35923   0.19943   0.00000  Uiso   1.00
H164   H     0.41935   0.43377   0.74006   0.00000  Uiso   1.00
H165   H     0.54517   0.22019   0.79547   0.00000  Uiso   1.00
H166   H     0.67661   0.37408   0.52672   0.00000  Uiso   1.00
H167   H     0.27624   0.53124   0.55808   0.00000  Uiso   1.00
H168   H     0.54155   0.08088   0.67491   0.00000  Uiso   1.00
H169   H     0.25129   0.24453   0.99723   0.00000  Uiso   1.00
H170   H     0.32863   0.26354   0.28728   0.00000  Uiso   1.00
H171   H     0.13876   0.33809   0.82790   0.00000  Uiso   1.00
H172   H     0.26457   0.12451   0.88331   0.00000  Uiso   1.00
H173   H     0.44887   0.29642   0.59802   0.00000  Uiso   1.00
H174   H     0.04850   0.45358   0.62936   0.00000  Uiso   1.00
H175   H     0.31381   0.00322   0.74621   0.00000  Uiso   1.00
O176   O     0.61840   0.34942   0.75166   0.00000  Uiso   1.00
O177   O     0.09313   0.55559   0.48081   0.00000  Uiso   1.00
O178   O     0.44122   0.96473   0.63411   0.00000  Uiso   1.00
N179   N     0.61241   0.35318   0.50370   0.00000  Uiso   1.00
N180   N     0.23809   0.50012   0.59809   0.00000  Uiso   1.00
N181   N     0.48612   0.07908   0.70729   0.00000  Uiso   1.00
N182   N     0.48986   0.31139   0.54206   0.00000  Uiso   1.00
N183   N     0.11555   0.45833   0.63646   0.00000  Uiso   1.00
N184   N     0.36357   0.03729   0.74565   0.00000  Uiso   1.00
