data_job_05259
_audit_creation_date              2018-12-19
_audit_creation_method            'Materials Studio'
_symmetry_space_group_name_H-M    'P1'
_symmetry_Int_Tables_number       1
_symmetry_cell_setting            triclinic
loop_
_symmetry_equiv_pos_as_xyz
  x,y,z
_cell_length_a                    23.1212
_cell_length_b                    7.4768
_cell_length_c                    22.3629
_cell_angle_alpha                 90.0000
_cell_angle_beta                  133.0755
_cell_angle_gamma                 90.0000
loop_
_atom_site_label
_atom_site_type_symbol
_atom_site_fract_x
_atom_site_fract_y
_atom_site_fract_z
_atom_site_U_iso_or_equiv
_atom_site_adp_type
_atom_site_occupancy
C1     C     0.36547   0.82758   0.22247   0.00000  Uiso   1.00
C2     C     0.28849   0.90635   0.19212   0.00000  Uiso   1.00
C3     C     0.22376   0.80924   0.16660   0.00000  Uiso   1.00
C4     C     0.15895   0.90618   0.14105   0.00000  Uiso   1.00
C5     C     0.37642   0.90635   0.16785   0.00000  Uiso   1.00
C6     C     0.38563   0.80924   0.12192   0.00000  Uiso   1.00
C7     C     0.39484   0.90618   0.07593   0.00000  Uiso   1.00
C8     C     0.43150   0.90635   0.30743   0.00000  Uiso   1.00
C9     C     0.48703   0.80924   0.37886   0.00000  Uiso   1.00
C10    C     0.54264   0.90618   0.45038   0.00000  Uiso   1.00
H11    H     0.36547   0.68176   0.22247   0.00000  Uiso   1.00
H12    H     0.22378   0.66429   0.16661   0.00000  Uiso   1.00
H13    H     0.38563   0.66430   0.12194   0.00000  Uiso   1.00
H14    H     0.48701   0.66430   0.37883   0.00000  Uiso   1.00
H15    H     0.06669   0.72753   0.10464   0.00000  Uiso   1.00
H16    H     0.40798   0.72753   0.01049   0.00000  Uiso   1.00
H17    H     0.62177   0.72753   0.55220   0.00000  Uiso   1.00
N18    N     0.08614   0.85338   0.11232   0.00000  Uiso   1.00
N19    N     0.40521   0.85338   0.02428   0.00000  Uiso   1.00
N20    N     0.60510   0.85338   0.53074   0.00000  Uiso   1.00
C21    C     0.86547   0.32758   0.22247   0.00000  Uiso   1.00
C22    C     0.78849   0.40635   0.19212   0.00000  Uiso   1.00
C23    C     0.72376   0.30924   0.16660   0.00000  Uiso   1.00
C24    C     0.65895   0.40618   0.14105   0.00000  Uiso   1.00
C25    C     0.87642   0.40635   0.16785   0.00000  Uiso   1.00
C26    C     0.88563   0.30924   0.12192   0.00000  Uiso   1.00
C27    C     0.89484   0.40618   0.07593   0.00000  Uiso   1.00
C28    C     0.93150   0.40635   0.30743   0.00000  Uiso   1.00
C29    C     0.98703   0.30924   0.37886   0.00000  Uiso   1.00
C30    C     0.04264   0.40618   0.45038   0.00000  Uiso   1.00
H31    H     0.86547   0.18176   0.22247   0.00000  Uiso   1.00
H32    H     0.72378   0.16429   0.16661   0.00000  Uiso   1.00
H33    H     0.88563   0.16430   0.12194   0.00000  Uiso   1.00
H34    H     0.98701   0.16430   0.37883   0.00000  Uiso   1.00
H35    H     0.56669   0.22753   0.10464   0.00000  Uiso   1.00
H36    H     0.90798   0.22753   0.01049   0.00000  Uiso   1.00
H37    H     0.12177   0.22753   0.55220   0.00000  Uiso   1.00
N38    N     0.58614   0.35338   0.11232   0.00000  Uiso   1.00
N39    N     0.90521   0.35338   0.02428   0.00000  Uiso   1.00
N40    N     0.10510   0.35338   0.53074   0.00000  Uiso   1.00
C41    C     0.63453   0.82758   0.77753   0.00000  Uiso   1.00
C42    C     0.71151   0.90635   0.80788   0.00000  Uiso   1.00
C43    C     0.77624   0.80924   0.83340   0.00000  Uiso   1.00
C44    C     0.84105   0.90618   0.85895   0.00000  Uiso   1.00
C45    C     0.62358   0.90635   0.83215   0.00000  Uiso   1.00
C46    C     0.61437   0.80924   0.87808   0.00000  Uiso   1.00
C47    C     0.60516   0.90618   0.92407   0.00000  Uiso   1.00
C48    C     0.56850   0.90635   0.69257   0.00000  Uiso   1.00
C49    C     0.51297   0.80924   0.62114   0.00000  Uiso   1.00
C50    C     0.45736   0.90618   0.54962   0.00000  Uiso   1.00
H51    H     0.63453   0.68176   0.77753   0.00000  Uiso   1.00
H52    H     0.77622   0.66429   0.83339   0.00000  Uiso   1.00
H53    H     0.61437   0.66430   0.87806   0.00000  Uiso   1.00
H54    H     0.51299   0.66430   0.62117   0.00000  Uiso   1.00
H55    H     0.93331   0.72753   0.89536   0.00000  Uiso   1.00
H56    H     0.59202   0.72753   0.98951   0.00000  Uiso   1.00
H57    H     0.37823   0.72753   0.44780   0.00000  Uiso   1.00
N58    N     0.91386   0.85338   0.88768   0.00000  Uiso   1.00
N59    N     0.59479   0.85338   0.97572   0.00000  Uiso   1.00
N60    N     0.39490   0.85338   0.46926   0.00000  Uiso   1.00
C61    C     0.13453   0.32758   0.77753   0.00000  Uiso   1.00
C62    C     0.21151   0.40635   0.80788   0.00000  Uiso   1.00
C63    C     0.27624   0.30924   0.83340   0.00000  Uiso   1.00
C64    C     0.34105   0.40618   0.85895   0.00000  Uiso   1.00
C65    C     0.12358   0.40635   0.83215   0.00000  Uiso   1.00
C66    C     0.11437   0.30924   0.87808   0.00000  Uiso   1.00
C67    C     0.10516   0.40618   0.92407   0.00000  Uiso   1.00
C68    C     0.06850   0.40635   0.69257   0.00000  Uiso   1.00
C69    C     0.01297   0.30924   0.62114   0.00000  Uiso   1.00
C70    C     0.95736   0.40618   0.54962   0.00000  Uiso   1.00
H71    H     0.13453   0.18176   0.77753   0.00000  Uiso   1.00
H72    H     0.27622   0.16429   0.83339   0.00000  Uiso   1.00
H73    H     0.11437   0.16430   0.87806   0.00000  Uiso   1.00
H74    H     0.01299   0.16430   0.62117   0.00000  Uiso   1.00
H75    H     0.43331   0.22753   0.89536   0.00000  Uiso   1.00
H76    H     0.09202   0.22753   0.98951   0.00000  Uiso   1.00
H77    H     0.87823   0.22753   0.44780   0.00000  Uiso   1.00
N78    N     0.41386   0.35338   0.88768   0.00000  Uiso   1.00
N79    N     0.09479   0.35338   0.97572   0.00000  Uiso   1.00
N80    N     0.89490   0.35338   0.46926   0.00000  Uiso   1.00
C81    C     0.63453   0.17242   0.77753   0.00000  Uiso   1.00
C82    C     0.71151   0.09365   0.80788   0.00000  Uiso   1.00
C83    C     0.77624   0.19076   0.83340   0.00000  Uiso   1.00
C84    C     0.84105   0.09382   0.85895   0.00000  Uiso   1.00
C85    C     0.62358   0.09365   0.83215   0.00000  Uiso   1.00
C86    C     0.61437   0.19076   0.87808   0.00000  Uiso   1.00
C87    C     0.60516   0.09382   0.92407   0.00000  Uiso   1.00
C88    C     0.56850   0.09365   0.69257   0.00000  Uiso   1.00
C89    C     0.51297   0.19076   0.62114   0.00000  Uiso   1.00
C90    C     0.45736   0.09382   0.54962   0.00000  Uiso   1.00
H91    H     0.63453   0.31824   0.77753   0.00000  Uiso   1.00
H92    H     0.77622   0.33571   0.83339   0.00000  Uiso   1.00
H93    H     0.61437   0.33570   0.87806   0.00000  Uiso   1.00
H94    H     0.51299   0.33570   0.62117   0.00000  Uiso   1.00
H95    H     0.93331   0.27247   0.89536   0.00000  Uiso   1.00
H96    H     0.59202   0.27247   0.98951   0.00000  Uiso   1.00
H97    H     0.37823   0.27247   0.44780   0.00000  Uiso   1.00
N98    N     0.91386   0.14662   0.88768   0.00000  Uiso   1.00
N99    N     0.59479   0.14662   0.97572   0.00000  Uiso   1.00
N100   N     0.39490   0.14662   0.46926   0.00000  Uiso   1.00
C101   C     0.13453   0.67242   0.77753   0.00000  Uiso   1.00
C102   C     0.21151   0.59365   0.80788   0.00000  Uiso   1.00
C103   C     0.27624   0.69076   0.83340   0.00000  Uiso   1.00
C104   C     0.34105   0.59382   0.85895   0.00000  Uiso   1.00
C105   C     0.12358   0.59365   0.83215   0.00000  Uiso   1.00
C106   C     0.11437   0.69076   0.87808   0.00000  Uiso   1.00
C107   C     0.10516   0.59382   0.92407   0.00000  Uiso   1.00
C108   C     0.06850   0.59365   0.69257   0.00000  Uiso   1.00
C109   C     0.01297   0.69076   0.62114   0.00000  Uiso   1.00
C110   C     0.95736   0.59382   0.54962   0.00000  Uiso   1.00
H111   H     0.13453   0.81824   0.77753   0.00000  Uiso   1.00
H112   H     0.27622   0.83571   0.83339   0.00000  Uiso   1.00
H113   H     0.11437   0.83570   0.87806   0.00000  Uiso   1.00
H114   H     0.01299   0.83570   0.62117   0.00000  Uiso   1.00
H115   H     0.43331   0.77247   0.89536   0.00000  Uiso   1.00
H116   H     0.09202   0.77247   0.98951   0.00000  Uiso   1.00
H117   H     0.87823   0.77247   0.44780   0.00000  Uiso   1.00
N118   N     0.41386   0.64662   0.88768   0.00000  Uiso   1.00
N119   N     0.09479   0.64662   0.97572   0.00000  Uiso   1.00
N120   N     0.89490   0.64662   0.46926   0.00000  Uiso   1.00
C121   C     0.36547   0.17242   0.22247   0.00000  Uiso   1.00
C122   C     0.28849   0.09365   0.19212   0.00000  Uiso   1.00
C123   C     0.22376   0.19076   0.16660   0.00000  Uiso   1.00
C124   C     0.15895   0.09382   0.14105   0.00000  Uiso   1.00
C125   C     0.37642   0.09365   0.16785   0.00000  Uiso   1.00
C126   C     0.38563   0.19076   0.12192   0.00000  Uiso   1.00
C127   C     0.39484   0.09382   0.07593   0.00000  Uiso   1.00
C128   C     0.43150   0.09365   0.30743   0.00000  Uiso   1.00
C129   C     0.48703   0.19076   0.37886   0.00000  Uiso   1.00
C130   C     0.54264   0.09382   0.45038   0.00000  Uiso   1.00
H131   H     0.36547   0.31824   0.22247   0.00000  Uiso   1.00
H132   H     0.22378   0.33571   0.16661   0.00000  Uiso   1.00
H133   H     0.38563   0.33570   0.12194   0.00000  Uiso   1.00
H134   H     0.48701   0.33570   0.37883   0.00000  Uiso   1.00
H135   H     0.06669   0.27247   0.10464   0.00000  Uiso   1.00
H136   H     0.40798   0.27247   0.01049   0.00000  Uiso   1.00
H137   H     0.62177   0.27247   0.55220   0.00000  Uiso   1.00
N138   N     0.08614   0.14662   0.11232   0.00000  Uiso   1.00
N139   N     0.40521   0.14662   0.02428   0.00000  Uiso   1.00
N140   N     0.60510   0.14662   0.53074   0.00000  Uiso   1.00
C141   C     0.86547   0.67242   0.22247   0.00000  Uiso   1.00
C142   C     0.78849   0.59365   0.19212   0.00000  Uiso   1.00
C143   C     0.72376   0.69076   0.16660   0.00000  Uiso   1.00
C144   C     0.65895   0.59382   0.14105   0.00000  Uiso   1.00
C145   C     0.87642   0.59365   0.16785   0.00000  Uiso   1.00
C146   C     0.88563   0.69076   0.12192   0.00000  Uiso   1.00
C147   C     0.89484   0.59382   0.07593   0.00000  Uiso   1.00
C148   C     0.93150   0.59365   0.30743   0.00000  Uiso   1.00
C149   C     0.98703   0.69076   0.37886   0.00000  Uiso   1.00
C150   C     0.04264   0.59382   0.45038   0.00000  Uiso   1.00
H151   H     0.86547   0.81824   0.22247   0.00000  Uiso   1.00
H152   H     0.72378   0.83571   0.16661   0.00000  Uiso   1.00
H153   H     0.88563   0.83570   0.12194   0.00000  Uiso   1.00
H154   H     0.98701   0.83570   0.37883   0.00000  Uiso   1.00
H155   H     0.56669   0.77247   0.10464   0.00000  Uiso   1.00
H156   H     0.90798   0.77247   0.01049   0.00000  Uiso   1.00
H157   H     0.12177   0.77247   0.55220   0.00000  Uiso   1.00
N158   N     0.58614   0.64662   0.11232   0.00000  Uiso   1.00
N159   N     0.90521   0.64662   0.02428   0.00000  Uiso   1.00
N160   N     0.10510   0.64662   0.53074   0.00000  Uiso   1.00
C161   C     0.03941  -0.00000   0.09389   0.00000  Uiso   1.00
C162   C     0.41187  -0.00000   0.99114   0.00000  Uiso   1.00
C163   C     0.64518  -0.00000   0.58230   0.00000  Uiso   1.00
O164   O     0.97347  -0.00000   0.06787   0.00000  Uiso   1.00
O165   O     0.42125  -0.00000   0.94435   0.00000  Uiso   1.00
O166   O     0.70173  -0.00000   0.65506   0.00000  Uiso   1.00
C167   C     0.53941   0.50000   0.09389   0.00000  Uiso   1.00
C168   C     0.91187   0.50000   0.99114   0.00000  Uiso   1.00
C169   C     0.14518   0.50000   0.58230   0.00000  Uiso   1.00
O170   O     0.47347   0.50000   0.06787   0.00000  Uiso   1.00
O171   O     0.92125   0.50000   0.94435   0.00000  Uiso   1.00
O172   O     0.20173   0.50000   0.65506   0.00000  Uiso   1.00
C173   C     0.96059  -0.00000   0.90611   0.00000  Uiso   1.00
C174   C     0.58813  -0.00000   0.00886   0.00000  Uiso   1.00
C175   C     0.35482  -0.00000   0.41770   0.00000  Uiso   1.00
O176   O     0.02653  -0.00000   0.93213   0.00000  Uiso   1.00
O177   O     0.57875  -0.00000   0.05565   0.00000  Uiso   1.00
O178   O     0.29827  -0.00000   0.34494   0.00000  Uiso   1.00
C179   C     0.46059   0.50000   0.90611   0.00000  Uiso   1.00
C180   C     0.08813   0.50000   0.00886   0.00000  Uiso   1.00
C181   C     0.85482   0.50000   0.41770   0.00000  Uiso   1.00
O182   O     0.52653   0.50000   0.93213   0.00000  Uiso   1.00
O183   O     0.07875   0.50000   0.05565   0.00000  Uiso   1.00
O184   O     0.79827   0.50000   0.34494   0.00000  Uiso   1.00
