data_job_03625
_audit_creation_date              2018-12-19
_audit_creation_method            'Materials Studio'
_symmetry_space_group_name_H-M    'P1'
_symmetry_Int_Tables_number       1
_symmetry_cell_setting            triclinic
loop_
_symmetry_equiv_pos_as_xyz
  x,y,z
_cell_length_a                    9.6463
_cell_length_b                    13.8659
_cell_length_c                    16.8801
_cell_angle_alpha                 90.0000
_cell_angle_beta                  90.0000
_cell_angle_gamma                 90.0000
loop_
_atom_site_label
_atom_site_type_symbol
_atom_site_fract_x
_atom_site_fract_y
_atom_site_fract_z
_atom_site_U_iso_or_equiv
_atom_site_adp_type
_atom_site_occupancy
C1     C     0.31085   0.31461   0.04927   0.00000  Uiso   1.00
C2     C     0.20886   0.33782   0.98293   0.00000  Uiso   1.00
C3     C     0.19623   0.28782   0.91208   0.00000  Uiso   1.00
C4     C     0.09668   0.32040   0.85905   0.00000  Uiso   1.00
C5     C     0.95112   0.34434   0.75340   0.00000  Uiso   1.00
C6     C     0.39434   0.40649   0.06303   0.00000  Uiso   1.00
C7     C     0.53765   0.41421   0.05953   0.00000  Uiso   1.00
C8     C     0.59423   0.50460   0.07393   0.00000  Uiso   1.00
C9     C     0.73663   0.63513   0.09268   0.00000  Uiso   1.00
C10    C     0.22360   0.30012   0.12365   0.00000  Uiso   1.00
C11    C     0.22338   0.21842   0.17115   0.00000  Uiso   1.00
C12    C     0.13622   0.21927   0.23661   0.00000  Uiso   1.00
C13    C     0.01352   0.18465   0.34949   0.00000  Uiso   1.00
C14    C     0.15651   0.46140   0.08109   0.00000  Uiso   1.00
C15    C     0.12503   0.41755   0.00021   0.00000  Uiso   1.00
C16    C     0.02547   0.45022   0.94728   0.00000  Uiso   1.00
C17    C     0.01269   0.40027   0.87636   0.00000  Uiso   1.00
C18    C     0.31051   0.48622   0.08031   0.00000  Uiso   1.00
C19    C     0.36689   0.57661   0.09472   0.00000  Uiso   1.00
C20    C     0.51025   0.58447   0.09124   0.00000  Uiso   1.00
C21    C     0.13976   0.37985   0.14093   0.00000  Uiso   1.00
C22    C     0.05261   0.38083   0.20634   0.00000  Uiso   1.00
C23    C     0.05224   0.29914   0.25392   0.00000  Uiso   1.00
H24    H     0.37613   0.25254   0.03582   0.00000  Uiso   1.00
H25    H     0.26114   0.22612   0.89873   0.00000  Uiso   1.00
H26    H     0.60250   0.35250   0.04616   0.00000  Uiso   1.00
H27    H     0.28826   0.15674   0.15776   0.00000  Uiso   1.00
H28    H     0.09672   0.23201   0.75435   0.00000  Uiso   1.00
H29    H     0.81650   0.49847   0.06524   0.00000  Uiso   1.00
H30    H     0.15388   0.08568   0.30057   0.00000  Uiso   1.00
H31    H     0.09124   0.52348   0.09454   0.00000  Uiso   1.00
H32    H     0.96061   0.51192   0.96067   0.00000  Uiso   1.00
H33    H     0.30198   0.63829   0.10810   0.00000  Uiso   1.00
H34    H     0.98775   0.44254   0.21969   0.00000  Uiso   1.00
H35    H     0.85280   0.46398   0.80462   0.00000  Uiso   1.00
H36    H     0.57260   0.73044   0.11551   0.00000  Uiso   1.00
H37    H     0.90997   0.31765   0.35083   0.00000  Uiso   1.00
O38    O     0.89400   0.33553   0.69035   0.00000  Uiso   1.00
O39    O     0.83834   0.68510   0.09824   0.00000  Uiso   1.00
O40    O     0.96898   0.14353   0.40698   0.00000  Uiso   1.00
N41    N     0.05722   0.28818   0.78456   0.00000  Uiso   1.00
N42    N     0.73018   0.53730   0.07521   0.00000  Uiso   1.00
N43    N     0.11071   0.15139   0.29523   0.00000  Uiso   1.00
N44    N     0.92597   0.41300   0.81161   0.00000  Uiso   1.00
N45    N     0.59893   0.66212   0.10226   0.00000  Uiso   1.00
N46    N     0.97946   0.27621   0.32228   0.00000  Uiso   1.00
C47    C     0.68915   0.68539   0.54927   0.00000  Uiso   1.00
C48    C     0.79114   0.66218   0.48293   0.00000  Uiso   1.00
C49    C     0.80377   0.71218   0.41208   0.00000  Uiso   1.00
C50    C     0.90332   0.67960   0.35905   0.00000  Uiso   1.00
C51    C     0.04888   0.65566   0.25340   0.00000  Uiso   1.00
C52    C     0.60566   0.59351   0.56303   0.00000  Uiso   1.00
C53    C     0.46235   0.58579   0.55953   0.00000  Uiso   1.00
C54    C     0.40577   0.49540   0.57393   0.00000  Uiso   1.00
C55    C     0.26337   0.36487   0.59268   0.00000  Uiso   1.00
C56    C     0.77640   0.69988   0.62365   0.00000  Uiso   1.00
C57    C     0.77662   0.78158   0.67115   0.00000  Uiso   1.00
C58    C     0.86378   0.78073   0.73661   0.00000  Uiso   1.00
C59    C     0.98648   0.81535   0.84949   0.00000  Uiso   1.00
C60    C     0.84349   0.53860   0.58109   0.00000  Uiso   1.00
C61    C     0.87497   0.58245   0.50021   0.00000  Uiso   1.00
C62    C     0.97453   0.54978   0.44728   0.00000  Uiso   1.00
C63    C     0.98731   0.59973   0.37636   0.00000  Uiso   1.00
C64    C     0.68949   0.51378   0.58031   0.00000  Uiso   1.00
C65    C     0.63311   0.42339   0.59472   0.00000  Uiso   1.00
C66    C     0.48975   0.41553   0.59124   0.00000  Uiso   1.00
C67    C     0.86024   0.62015   0.64093   0.00000  Uiso   1.00
C68    C     0.94739   0.61917   0.70634   0.00000  Uiso   1.00
C69    C     0.94776   0.70086   0.75392   0.00000  Uiso   1.00
H70    H     0.62387   0.74746   0.53582   0.00000  Uiso   1.00
H71    H     0.73886   0.77388   0.39873   0.00000  Uiso   1.00
H72    H     0.39750   0.64750   0.54616   0.00000  Uiso   1.00
H73    H     0.71174   0.84326   0.65776   0.00000  Uiso   1.00
H74    H     0.90328   0.76799   0.25435   0.00000  Uiso   1.00
H75    H     0.18350   0.50153   0.56524   0.00000  Uiso   1.00
H76    H     0.84612   0.91432   0.80057   0.00000  Uiso   1.00
H77    H     0.90876   0.47652   0.59454   0.00000  Uiso   1.00
H78    H     0.03939   0.48808   0.46067   0.00000  Uiso   1.00
H79    H     0.69802   0.36171   0.60810   0.00000  Uiso   1.00
H80    H     0.01225   0.55746   0.71969   0.00000  Uiso   1.00
H81    H     0.14720   0.53602   0.30462   0.00000  Uiso   1.00
H82    H     0.42740   0.26956   0.61551   0.00000  Uiso   1.00
H83    H     0.09003   0.68235   0.85083   0.00000  Uiso   1.00
O84    O     0.10600   0.66447   0.19035   0.00000  Uiso   1.00
O85    O     0.16166   0.31490   0.59824   0.00000  Uiso   1.00
O86    O     0.03102   0.85647   0.90698   0.00000  Uiso   1.00
N87    N     0.94278   0.71182   0.28456   0.00000  Uiso   1.00
N88    N     0.26982   0.46270   0.57521   0.00000  Uiso   1.00
N89    N     0.88929   0.84861   0.79523   0.00000  Uiso   1.00
N90    N     0.07403   0.58700   0.31161   0.00000  Uiso   1.00
N91    N     0.40107   0.33788   0.60226   0.00000  Uiso   1.00
N92    N     0.02054   0.72379   0.82228   0.00000  Uiso   1.00
C93    C     0.81085   0.18539   0.04927   0.00000  Uiso   1.00
C94    C     0.70886   0.16218   0.98293   0.00000  Uiso   1.00
C95    C     0.69623   0.21218   0.91208   0.00000  Uiso   1.00
C96    C     0.59668   0.17960   0.85905   0.00000  Uiso   1.00
C97    C     0.45112   0.15566   0.75340   0.00000  Uiso   1.00
C98    C     0.89434   0.09351   0.06303   0.00000  Uiso   1.00
C99    C     0.03765   0.08579   0.05953   0.00000  Uiso   1.00
C100   C     0.09423   0.99540   0.07393   0.00000  Uiso   1.00
C101   C     0.23663   0.86487   0.09268   0.00000  Uiso   1.00
C102   C     0.72360   0.19988   0.12365   0.00000  Uiso   1.00
C103   C     0.72338   0.28158   0.17115   0.00000  Uiso   1.00
C104   C     0.63622   0.28073   0.23661   0.00000  Uiso   1.00
C105   C     0.51352   0.31535   0.34949   0.00000  Uiso   1.00
C106   C     0.65651   0.03860   0.08109   0.00000  Uiso   1.00
C107   C     0.62503   0.08245   0.00021   0.00000  Uiso   1.00
C108   C     0.52547   0.04978   0.94728   0.00000  Uiso   1.00
C109   C     0.51269   0.09973   0.87636   0.00000  Uiso   1.00
C110   C     0.81051   0.01378   0.08031   0.00000  Uiso   1.00
C111   C     0.86689   0.92339   0.09472   0.00000  Uiso   1.00
C112   C     0.01025   0.91553   0.09124   0.00000  Uiso   1.00
C113   C     0.63976   0.12015   0.14093   0.00000  Uiso   1.00
C114   C     0.55261   0.11917   0.20634   0.00000  Uiso   1.00
C115   C     0.55224   0.20086   0.25392   0.00000  Uiso   1.00
H116   H     0.87613   0.24746   0.03582   0.00000  Uiso   1.00
H117   H     0.76114   0.27388   0.89873   0.00000  Uiso   1.00
H118   H     0.10250   0.14750   0.04616   0.00000  Uiso   1.00
H119   H     0.78826   0.34326   0.15776   0.00000  Uiso   1.00
H120   H     0.59672   0.26799   0.75435   0.00000  Uiso   1.00
H121   H     0.31650   0.00153   0.06524   0.00000  Uiso   1.00
H122   H     0.65388   0.41432   0.30057   0.00000  Uiso   1.00
H123   H     0.59124   0.97652   0.09454   0.00000  Uiso   1.00
H124   H     0.46061   0.98808   0.96067   0.00000  Uiso   1.00
H125   H     0.80198   0.86171   0.10810   0.00000  Uiso   1.00
H126   H     0.48775   0.05746   0.21969   0.00000  Uiso   1.00
H127   H     0.35280   0.03602   0.80462   0.00000  Uiso   1.00
H128   H     0.07260   0.76956   0.11551   0.00000  Uiso   1.00
H129   H     0.40997   0.18235   0.35083   0.00000  Uiso   1.00
O130   O     0.39400   0.16447   0.69035   0.00000  Uiso   1.00
O131   O     0.33834   0.81490   0.09824   0.00000  Uiso   1.00
O132   O     0.46898   0.35647   0.40698   0.00000  Uiso   1.00
N133   N     0.55722   0.21182   0.78456   0.00000  Uiso   1.00
N134   N     0.23018   0.96270   0.07521   0.00000  Uiso   1.00
N135   N     0.61071   0.34861   0.29523   0.00000  Uiso   1.00
N136   N     0.42597   0.08700   0.81161   0.00000  Uiso   1.00
N137   N     0.09893   0.83788   0.10226   0.00000  Uiso   1.00
N138   N     0.47946   0.22379   0.32228   0.00000  Uiso   1.00
C139   C     0.18915   0.81461   0.54927   0.00000  Uiso   1.00
C140   C     0.29114   0.83782   0.48293   0.00000  Uiso   1.00
C141   C     0.30377   0.78782   0.41208   0.00000  Uiso   1.00
C142   C     0.40332   0.82040   0.35905   0.00000  Uiso   1.00
C143   C     0.54888   0.84434   0.25340   0.00000  Uiso   1.00
C144   C     0.10566   0.90649   0.56303   0.00000  Uiso   1.00
C145   C     0.96235   0.91421   0.55953   0.00000  Uiso   1.00
C146   C     0.90577   0.00460   0.57393   0.00000  Uiso   1.00
C147   C     0.76337   0.13513   0.59268   0.00000  Uiso   1.00
C148   C     0.27640   0.80012   0.62365   0.00000  Uiso   1.00
C149   C     0.27662   0.71842   0.67115   0.00000  Uiso   1.00
C150   C     0.36378   0.71927   0.73661   0.00000  Uiso   1.00
C151   C     0.48648   0.68465   0.84949   0.00000  Uiso   1.00
C152   C     0.34349   0.96140   0.58109   0.00000  Uiso   1.00
C153   C     0.37497   0.91755   0.50021   0.00000  Uiso   1.00
C154   C     0.47453   0.95022   0.44728   0.00000  Uiso   1.00
C155   C     0.48731   0.90027   0.37636   0.00000  Uiso   1.00
C156   C     0.18949   0.98622   0.58031   0.00000  Uiso   1.00
C157   C     0.13311   0.07661   0.59472   0.00000  Uiso   1.00
C158   C     0.98975   0.08447   0.59124   0.00000  Uiso   1.00
C159   C     0.36024   0.87985   0.64093   0.00000  Uiso   1.00
C160   C     0.44739   0.88083   0.70634   0.00000  Uiso   1.00
C161   C     0.44776   0.79914   0.75392   0.00000  Uiso   1.00
H162   H     0.12387   0.75254   0.53582   0.00000  Uiso   1.00
H163   H     0.23886   0.72612   0.39873   0.00000  Uiso   1.00
H164   H     0.89750   0.85250   0.54616   0.00000  Uiso   1.00
H165   H     0.21174   0.65674   0.65776   0.00000  Uiso   1.00
H166   H     0.40328   0.73201   0.25435   0.00000  Uiso   1.00
H167   H     0.68350   0.99847   0.56524   0.00000  Uiso   1.00
H168   H     0.34612   0.58568   0.80057   0.00000  Uiso   1.00
H169   H     0.40876   0.02348   0.59454   0.00000  Uiso   1.00
H170   H     0.53939   0.01192   0.46067   0.00000  Uiso   1.00
H171   H     0.19802   0.13829   0.60810   0.00000  Uiso   1.00
H172   H     0.51225   0.94254   0.71969   0.00000  Uiso   1.00
H173   H     0.64720   0.96398   0.30462   0.00000  Uiso   1.00
H174   H     0.92740   0.23044   0.61551   0.00000  Uiso   1.00
H175   H     0.59003   0.81765   0.85083   0.00000  Uiso   1.00
O176   O     0.60600   0.83553   0.19035   0.00000  Uiso   1.00
O177   O     0.66166   0.18510   0.59824   0.00000  Uiso   1.00
O178   O     0.53102   0.64353   0.90698   0.00000  Uiso   1.00
N179   N     0.44278   0.78818   0.28456   0.00000  Uiso   1.00
N180   N     0.76982   0.03730   0.57521   0.00000  Uiso   1.00
N181   N     0.38929   0.65139   0.79523   0.00000  Uiso   1.00
N182   N     0.57403   0.91300   0.31161   0.00000  Uiso   1.00
N183   N     0.90107   0.16212   0.60226   0.00000  Uiso   1.00
N184   N     0.52054   0.77621   0.82228   0.00000  Uiso   1.00
