data_job_06367
_audit_creation_date              2018-12-19
_audit_creation_method            'Materials Studio'
_symmetry_space_group_name_H-M    'P1'
_symmetry_Int_Tables_number       1
_symmetry_cell_setting            triclinic
loop_
_symmetry_equiv_pos_as_xyz
  x,y,z
_cell_length_a                    16.1187
_cell_length_b                    16.1286
_cell_length_c                    16.1382
_cell_angle_alpha                 98.3734
_cell_angle_beta                  98.3828
_cell_angle_gamma                 98.3911
loop_
_atom_site_label
_atom_site_type_symbol
_atom_site_fract_x
_atom_site_fract_y
_atom_site_fract_z
_atom_site_U_iso_or_equiv
_atom_site_adp_type
_atom_site_occupancy
C1     C     0.82193   0.11745   0.25934   0.00000  Uiso   1.00
C2     C     0.90398   0.18240   0.28370   0.00000  Uiso   1.00
C3     C     0.92052   0.25737   0.25176   0.00000  Uiso   1.00
C4     C     0.99944   0.30823   0.28208   0.00000  Uiso   1.00
C5     C     0.11771   0.41262   0.31072   0.00000  Uiso   1.00
C6     C     0.84813   0.03286   0.22795   0.00000  Uiso   1.00
C7     C     0.81768   0.98209   0.14915   0.00000  Uiso   1.00
C8     C     0.84957   0.90706   0.13255   0.00000  Uiso   1.00
C9     C     0.88108   0.77925   0.07467   0.00000  Uiso   1.00
C10    C     0.78958   0.10763   0.34219   0.00000  Uiso   1.00
C11    C     0.70991   0.11969   0.35943   0.00000  Uiso   1.00
C12    C     0.69250   0.10759   0.43900   0.00000  Uiso   1.00
C13    C     0.63311   0.09586   0.55849   0.00000  Uiso   1.00
C14    C     0.93269   0.07447   0.36998   0.00000  Uiso   1.00
C15    C     0.96414   0.15906   0.34379   0.00000  Uiso   1.00
C16    C     0.04306   0.20982   0.37417   0.00000  Uiso   1.00
C17    C     0.05970   0.28485   0.34228   0.00000  Uiso   1.00
C18    C     0.90828   0.00952   0.28804   0.00000  Uiso   1.00
C19    C     0.94022   0.93454   0.27155   0.00000  Uiso   1.00
C20    C     0.90984   0.88367   0.19274   0.00000  Uiso   1.00
C21    C     0.84974   0.08429   0.40228   0.00000  Uiso   1.00
C22    C     0.83245   0.07215   0.48184   0.00000  Uiso   1.00
C23    C     0.75277   0.08420   0.49920   0.00000  Uiso   1.00
H24    H     0.77509   0.13561   0.21255   0.00000  Uiso   1.00
H25    H     0.87394   0.27540   0.20525   0.00000  Uiso   1.00
H26    H     0.77112   0.00016   0.10266   0.00000  Uiso   1.00
H27    H     0.66337   0.13775   0.31291   0.00000  Uiso   1.00
H28    H     0.01008   0.42008   0.22363   0.00000  Uiso   1.00
H29    H     0.79325   0.83970   0.00733   0.00000  Uiso   1.00
H30    H     0.56603   0.12983   0.45068   0.00000  Uiso   1.00
H31    H     0.97953   0.05630   0.41676   0.00000  Uiso   1.00
H32    H     0.08960   0.19174   0.42067   0.00000  Uiso   1.00
H33    H     0.98678   0.91650   0.31807   0.00000  Uiso   1.00
H34    H     0.87902   0.05409   0.52832   0.00000  Uiso   1.00
H35    H     0.18512   0.35217   0.39847   0.00000  Uiso   1.00
H36    H     0.96828   0.77179   0.18216   0.00000  Uiso   1.00
H37    H     0.74107   0.06193   0.62552   0.00000  Uiso   1.00
O38    O     0.16633   0.47664   0.30991   0.00000  Uiso   1.00
O39    O     0.88185   0.71520   0.02613   0.00000  Uiso   1.00
O40    O     0.58374   0.09586   0.60780   0.00000  Uiso   1.00
N41    N     0.03617   0.38552   0.26426   0.00000  Uiso   1.00
N42    N     0.83345   0.84291   0.06202   0.00000  Uiso   1.00
N43    N     0.62101   0.11413   0.47651   0.00000  Uiso   1.00
N44    N     0.13035   0.34898   0.35834   0.00000  Uiso   1.00
N45    N     0.92764   0.80637   0.15609   0.00000  Uiso   1.00
N46    N     0.71520   0.07760   0.57059   0.00000  Uiso   1.00
C47    C     0.25943   0.82197   0.11753   0.00000  Uiso   1.00
C48    C     0.28381   0.90396   0.18243   0.00000  Uiso   1.00
C49    C     0.25184   0.92047   0.25734   0.00000  Uiso   1.00
C50    C     0.28219   0.99933   0.30816   0.00000  Uiso   1.00
C51    C     0.31087   0.11752   0.41247   0.00000  Uiso   1.00
C52    C     0.22800   0.84815   0.03298   0.00000  Uiso   1.00
C53    C     0.14910   0.81772   0.98223   0.00000  Uiso   1.00
C54    C     0.13247   0.84961   0.90724   0.00000  Uiso   1.00
C55    C     0.07452   0.88110   0.77949   0.00000  Uiso   1.00
C56    C     0.34238   0.78966   0.10773   0.00000  Uiso   1.00
C57    C     0.35965   0.71003   0.11980   0.00000  Uiso   1.00
C58    C     0.43932   0.69266   0.10773   0.00000  Uiso   1.00
C59    C     0.55896   0.63333   0.09604   0.00000  Uiso   1.00
C60    C     0.37020   0.93268   0.07458   0.00000  Uiso   1.00
C61    C     0.34398   0.96410   0.15910   0.00000  Uiso   1.00
C62    C     0.37439   0.04296   0.20983   0.00000  Uiso   1.00
C63    C     0.34247   0.05958   0.28480   0.00000  Uiso   1.00
C64    C     0.28816   0.90829   0.00965   0.00000  Uiso   1.00
C65    C     0.27165   0.94022   0.93472   0.00000  Uiso   1.00
C66    C     0.19275   0.90985   0.88387   0.00000  Uiso   1.00
C67    C     0.40255   0.84979   0.08441   0.00000  Uiso   1.00
C68    C     0.48220   0.83253   0.07230   0.00000  Uiso   1.00
C69    C     0.49959   0.75290   0.08435   0.00000  Uiso   1.00
H70    H     0.21258   0.77515   0.13568   0.00000  Uiso   1.00
H71    H     0.20527   0.87391   0.27537   0.00000  Uiso   1.00
H72    H     0.10255   0.77118   0.00030   0.00000  Uiso   1.00
H73    H     0.31307   0.66351   0.13786   0.00000  Uiso   1.00
H74    H     0.22367   0.00995   0.41993   0.00000  Uiso   1.00
H75    H     0.00710   0.79331   0.83991   0.00000  Uiso   1.00
H76    H     0.45101   0.56626   0.12998   0.00000  Uiso   1.00
H77    H     0.41704   0.97950   0.05642   0.00000  Uiso   1.00
H78    H     0.42095   0.08948   0.19176   0.00000  Uiso   1.00
H79    H     0.31823   0.98675   0.91668   0.00000  Uiso   1.00
H80    H     0.52875   0.87908   0.05424   0.00000  Uiso   1.00
H81    H     0.39872   0.18491   0.35207   0.00000  Uiso   1.00
H82    H     0.18215   0.96827   0.77205   0.00000  Uiso   1.00
H83    H     0.62606   0.74123   0.06212   0.00000  Uiso   1.00
O84    O     0.31006   0.16610   0.47645   0.00000  Uiso   1.00
O85    O     0.02593   0.88187   0.71548   0.00000  Uiso   1.00
O86    O     0.60833   0.58399   0.09605   0.00000  Uiso   1.00
N87    N     0.26434   0.03602   0.38540   0.00000  Uiso   1.00
N88    N     0.06185   0.83349   0.84312   0.00000  Uiso   1.00
N89    N     0.47687   0.62121   0.11429   0.00000  Uiso   1.00
N90    N     0.35854   0.13017   0.34888   0.00000  Uiso   1.00
N91    N     0.15605   0.92764   0.80660   0.00000  Uiso   1.00
N92    N     0.57107   0.71536   0.07777   0.00000  Uiso   1.00
C93    C     0.11739   0.25939   0.82199   0.00000  Uiso   1.00
C94    C     0.18238   0.28376   0.90394   0.00000  Uiso   1.00
C95    C     0.25738   0.25181   0.92045   0.00000  Uiso   1.00
C96    C     0.30827   0.28214   0.99927   0.00000  Uiso   1.00
C97    C     0.41271   0.31080   0.11740   0.00000  Uiso   1.00
C98    C     0.03274   0.22796   0.84815   0.00000  Uiso   1.00
C99    C     0.98193   0.14911   0.81774   0.00000  Uiso   1.00
C100   C     0.90684   0.13248   0.84960   0.00000  Uiso   1.00
C101   C     0.77893   0.07454   0.88106   0.00000  Uiso   1.00
C102   C     0.10758   0.34229   0.78968   0.00000  Uiso   1.00
C103   C     0.11967   0.35956   0.71011   0.00000  Uiso   1.00
C104   C     0.10758   0.43918   0.69273   0.00000  Uiso   1.00
C105   C     0.09587   0.55875   0.63341   0.00000  Uiso   1.00
C106   C     0.07439   0.37007   0.93261   0.00000  Uiso   1.00
C107   C     0.15902   0.34387   0.96402   0.00000  Uiso   1.00
C108   C     0.20980   0.37426   0.04284   0.00000  Uiso   1.00
C109   C     0.28487   0.34237   0.05947   0.00000  Uiso   1.00
C110   C     0.00938   0.28807   0.90823   0.00000  Uiso   1.00
C111   C     0.93435   0.27156   0.94013   0.00000  Uiso   1.00
C112   C     0.88344   0.19270   0.90979   0.00000  Uiso   1.00
C113   C     0.08422   0.40241   0.84977   0.00000  Uiso   1.00
C114   C     0.07210   0.48201   0.83250   0.00000  Uiso   1.00
C115   C     0.08417   0.49940   0.75292   0.00000  Uiso   1.00
H116   H     0.13557   0.21258   0.77521   0.00000  Uiso   1.00
H117   H     0.27543   0.20528   0.87394   0.00000  Uiso   1.00
H118   H     0.00001   0.10260   0.77124   0.00000  Uiso   1.00
H119   H     0.13774   0.31303   0.66363   0.00000  Uiso   1.00
H120   H     0.42018   0.22367   0.00991   0.00000  Uiso   1.00
H121   H     0.83943   0.00718   0.79334   0.00000  Uiso   1.00
H122   H     0.12986   0.45089   0.56642   0.00000  Uiso   1.00
H123   H     0.05620   0.41687   0.97939   0.00000  Uiso   1.00
H124   H     0.19171   0.42078   0.08933   0.00000  Uiso   1.00
H125   H     0.91629   0.31809   0.98662   0.00000  Uiso   1.00
H126   H     0.05402   0.52852   0.87901   0.00000  Uiso   1.00
H127   H     0.35223   0.39858   0.18473   0.00000  Uiso   1.00
H128   H     0.77148   0.18208   0.96815   0.00000  Uiso   1.00
H129   H     0.06191   0.62580   0.74123   0.00000  Uiso   1.00
O130   O     0.47676   0.30999   0.16597   0.00000  Uiso   1.00
O131   O     0.71484   0.02596   0.88182   0.00000  Uiso   1.00
O132   O     0.09588   0.60810   0.58410   0.00000  Uiso   1.00
N133   N     0.38560   0.26431   0.03596   0.00000  Uiso   1.00
N134   N     0.84264   0.06190   0.83349   0.00000  Uiso   1.00
N135   N     0.11414   0.47672   0.62133   0.00000  Uiso   1.00
N136   N     0.34903   0.35843   0.13003   0.00000  Uiso   1.00
N137   N     0.80608   0.15601   0.92756   0.00000  Uiso   1.00
N138   N     0.07758   0.57084   0.71539   0.00000  Uiso   1.00
C139   C     0.32193   0.75938   0.61752   0.00000  Uiso   1.00
C140   C     0.40398   0.78375   0.68243   0.00000  Uiso   1.00
C141   C     0.42050   0.75180   0.75735   0.00000  Uiso   1.00
C142   C     0.49942   0.78213   0.80817   0.00000  Uiso   1.00
C143   C     0.61769   0.81079   0.91249   0.00000  Uiso   1.00
C144   C     0.34814   0.72798   0.53298   0.00000  Uiso   1.00
C145   C     0.31769   0.64913   0.48223   0.00000  Uiso   1.00
C146   C     0.34959   0.63252   0.40725   0.00000  Uiso   1.00
C147   C     0.38110   0.57462   0.27951   0.00000  Uiso   1.00
C148   C     0.28960   0.84228   0.60771   0.00000  Uiso   1.00
C149   C     0.20992   0.85953   0.61977   0.00000  Uiso   1.00
C150   C     0.19253   0.93915   0.60768   0.00000  Uiso   1.00
C151   C     0.13315   0.05871   0.59597   0.00000  Uiso   1.00
C152   C     0.43271   0.87009   0.57457   0.00000  Uiso   1.00
C153   C     0.46415   0.84388   0.65910   0.00000  Uiso   1.00
C154   C     0.54306   0.87428   0.70983   0.00000  Uiso   1.00
C155   C     0.55970   0.84237   0.78481   0.00000  Uiso   1.00
C156   C     0.40830   0.78811   0.50965   0.00000  Uiso   1.00
C157   C     0.44025   0.77162   0.43472   0.00000  Uiso   1.00
C158   C     0.40986   0.69276   0.38388   0.00000  Uiso   1.00
C159   C     0.34976   0.90241   0.58438   0.00000  Uiso   1.00
C160   C     0.33249   0.98202   0.57226   0.00000  Uiso   1.00
C161   C     0.25280   0.99939   0.58431   0.00000  Uiso   1.00
H162   H     0.27509   0.71256   0.63567   0.00000  Uiso   1.00
H163   H     0.37393   0.70525   0.77537   0.00000  Uiso   1.00
H164   H     0.27112   0.60261   0.50030   0.00000  Uiso   1.00
H165   H     0.16338   0.81298   0.63782   0.00000  Uiso   1.00
H166   H     0.51005   0.72364   0.91995   0.00000  Uiso   1.00
H167   H     0.29326   0.50723   0.33993   0.00000  Uiso   1.00
H168   H     0.06606   0.95083   0.62992   0.00000  Uiso   1.00
H169   H     0.47955   0.91691   0.55641   0.00000  Uiso   1.00
H170   H     0.58961   0.92082   0.69176   0.00000  Uiso   1.00
H171   H     0.48681   0.81817   0.41669   0.00000  Uiso   1.00
H172   H     0.37906   0.02854   0.55421   0.00000  Uiso   1.00
H173   H     0.68511   0.89860   0.85209   0.00000  Uiso   1.00
H174   H     0.46832   0.68218   0.27207   0.00000  Uiso   1.00
H175   H     0.24112   0.12578   0.56206   0.00000  Uiso   1.00
O176   O     0.66630   0.80998   0.97647   0.00000  Uiso   1.00
O177   O     0.38187   0.52606   0.21551   0.00000  Uiso   1.00
O178   O     0.08379   0.10805   0.59597   0.00000  Uiso   1.00
N179   N     0.53614   0.76430   0.88541   0.00000  Uiso   1.00
N180   N     0.33346   0.56195   0.34313   0.00000  Uiso   1.00
N181   N     0.12104   0.97667   0.61423   0.00000  Uiso   1.00
N182   N     0.63034   0.85844   0.84890   0.00000  Uiso   1.00
N183   N     0.42766   0.65609   0.30662   0.00000  Uiso   1.00
N184   N     0.21524   0.07082   0.57772   0.00000  Uiso   1.00
C185   C     0.75943   0.61746   0.32199   0.00000  Uiso   1.00
C186   C     0.78381   0.68241   0.40394   0.00000  Uiso   1.00
C187   C     0.75184   0.75736   0.42044   0.00000  Uiso   1.00
C188   C     0.78220   0.80821   0.49926   0.00000  Uiso   1.00
C189   C     0.81087   0.91258   0.61738   0.00000  Uiso   1.00
C190   C     0.72799   0.53286   0.34816   0.00000  Uiso   1.00
C191   C     0.64909   0.48208   0.31775   0.00000  Uiso   1.00
C192   C     0.63245   0.40704   0.34961   0.00000  Uiso   1.00
C193   C     0.57448   0.27921   0.38108   0.00000  Uiso   1.00
C194   C     0.84238   0.60767   0.28970   0.00000  Uiso   1.00
C195   C     0.85966   0.61975   0.21012   0.00000  Uiso   1.00
C196   C     0.93933   0.60767   0.19275   0.00000  Uiso   1.00
C197   C     0.05898   0.59599   0.13345   0.00000  Uiso   1.00
C198   C     0.87019   0.57449   0.43263   0.00000  Uiso   1.00
C199   C     0.84397   0.65906   0.46403   0.00000  Uiso   1.00
C200   C     0.87438   0.70981   0.54285   0.00000  Uiso   1.00
C201   C     0.84246   0.78483   0.55946   0.00000  Uiso   1.00
C202   C     0.78814   0.50952   0.40825   0.00000  Uiso   1.00
C203   C     0.77162   0.43453   0.44016   0.00000  Uiso   1.00
C204   C     0.69272   0.38365   0.40981   0.00000  Uiso   1.00
C205   C     0.90254   0.58433   0.34979   0.00000  Uiso   1.00
C206   C     0.98220   0.57221   0.33254   0.00000  Uiso   1.00
C207   C     0.99960   0.58429   0.25295   0.00000  Uiso   1.00
H208   H     0.71259   0.63563   0.27521   0.00000  Uiso   1.00
H209   H     0.70528   0.77540   0.37392   0.00000  Uiso   1.00
H210   H     0.60255   0.50016   0.27124   0.00000  Uiso   1.00
H211   H     0.81309   0.63782   0.16364   0.00000  Uiso   1.00
H212   H     0.72369   0.92004   0.50988   0.00000  Uiso   1.00
H213   H     0.50707   0.33967   0.29335   0.00000  Uiso   1.00
H214   H     0.95104   0.62995   0.06644   0.00000  Uiso   1.00
H215   H     0.91702   0.55631   0.47942   0.00000  Uiso   1.00
H216   H     0.92094   0.69173   0.58934   0.00000  Uiso   1.00
H217   H     0.81820   0.41649   0.48666   0.00000  Uiso   1.00
H218   H     0.02874   0.55415   0.37906   0.00000  Uiso   1.00
H219   H     0.89871   0.85214   0.68472   0.00000  Uiso   1.00
H220   H     0.68210   0.27176   0.46819   0.00000  Uiso   1.00
H221   H     0.12607   0.56204   0.24128   0.00000  Uiso   1.00
O222   O     0.81006   0.97659   0.66594   0.00000  Uiso   1.00
O223   O     0.52588   0.21516   0.38185   0.00000  Uiso   1.00
O224   O     0.10836   0.59600   0.08415   0.00000  Uiso   1.00
N225   N     0.76435   0.88549   0.53593   0.00000  Uiso   1.00
N226   N     0.56183   0.34288   0.33350   0.00000  Uiso   1.00
N227   N     0.97689   0.61424   0.12136   0.00000  Uiso   1.00
N228   N     0.85854   0.84895   0.63002   0.00000  Uiso   1.00
N229   N     0.65601   0.30634   0.42759   0.00000  Uiso   1.00
N230   N     0.07108   0.57770   0.21544   0.00000  Uiso   1.00
C231   C     0.61738   0.32196   0.75934   0.00000  Uiso   1.00
C232   C     0.68238   0.40396   0.78370   0.00000  Uiso   1.00
C233   C     0.75738   0.42049   0.75177   0.00000  Uiso   1.00
C234   C     0.80828   0.49936   0.78208   0.00000  Uiso   1.00
C235   C     0.91273   0.61756   0.81073   0.00000  Uiso   1.00
C236   C     0.53274   0.34813   0.72794   0.00000  Uiso   1.00
C237   C     0.48193   0.31771   0.64914   0.00000  Uiso   1.00
C238   C     0.40685   0.34958   0.63252   0.00000  Uiso   1.00
C239   C     0.27895   0.38106   0.57462   0.00000  Uiso   1.00
C240   C     0.60756   0.28963   0.84219   0.00000  Uiso   1.00
C241   C     0.61964   0.21000   0.85945   0.00000  Uiso   1.00
C242   C     0.60754   0.19260   0.93902   0.00000  Uiso   1.00
C243   C     0.59581   0.13325   0.05851   0.00000  Uiso   1.00
C244   C     0.57438   0.43264   0.86996   0.00000  Uiso   1.00
C245   C     0.65902   0.46408   0.84378   0.00000  Uiso   1.00
C246   C     0.70981   0.54294   0.87415   0.00000  Uiso   1.00
C247   C     0.78488   0.55959   0.84228   0.00000  Uiso   1.00
C248   C     0.50938   0.40825   0.78802   0.00000  Uiso   1.00
C249   C     0.43435   0.44017   0.77152   0.00000  Uiso   1.00
C250   C     0.38345   0.40980   0.69271   0.00000  Uiso   1.00
C251   C     0.58421   0.34974   0.90228   0.00000  Uiso   1.00
C252   C     0.57207   0.33246   0.98183   0.00000  Uiso   1.00
C253   C     0.58413   0.25283   0.99921   0.00000  Uiso   1.00
H254   H     0.63556   0.27515   0.71257   0.00000  Uiso   1.00
H255   H     0.77544   0.37395   0.70527   0.00000  Uiso   1.00
H256   H     0.50002   0.27118   0.60266   0.00000  Uiso   1.00
H257   H     0.63772   0.16350   0.81294   0.00000  Uiso   1.00
H258   H     0.92019   0.51001   0.72365   0.00000  Uiso   1.00
H259   H     0.33945   0.29330   0.50730   0.00000  Uiso   1.00
H260   H     0.62980   0.06622   0.95071   0.00000  Uiso   1.00
H261   H     0.55619   0.47944   0.91674   0.00000  Uiso   1.00
H262   H     0.69172   0.58945   0.92065   0.00000  Uiso   1.00
H263   H     0.41630   0.48668   0.81803   0.00000  Uiso   1.00
H264   H     0.55399   0.37900   0.02831   0.00000  Uiso   1.00
H265   H     0.85224   0.68492   0.89846   0.00000  Uiso   1.00
H266   H     0.27149   0.46820   0.68211   0.00000  Uiso   1.00
H267   H     0.56185   0.24113   0.12552   0.00000  Uiso   1.00
O268   O     0.97678   0.66616   0.80992   0.00000  Uiso   1.00
O269   O     0.21486   0.38182   0.52608   0.00000  Uiso   1.00
O270   O     0.59581   0.08390   0.10783   0.00000  Uiso   1.00
N271   N     0.88561   0.53607   0.76427   0.00000  Uiso   1.00
N272   N     0.34266   0.33347   0.56199   0.00000  Uiso   1.00
N273   N     0.61409   0.12116   0.97653   0.00000  Uiso   1.00
N274   N     0.84905   0.63019   0.85833   0.00000  Uiso   1.00
N275   N     0.30609   0.42758   0.65605   0.00000  Uiso   1.00
N276   N     0.57753   0.21527   0.07060   0.00000  Uiso   1.00
