data_job_06579
_audit_creation_date              2018-12-19
_audit_creation_method            'Materials Studio'
_symmetry_space_group_name_H-M    'P1'
_symmetry_Int_Tables_number       1
_symmetry_cell_setting            triclinic
loop_
_symmetry_equiv_pos_as_xyz
  x,y,z
_cell_length_a                    16.2883
_cell_length_b                    22.5344
_cell_length_c                    22.2148
_cell_angle_alpha                 107.7780
_cell_angle_beta                  78.7236
_cell_angle_gamma                 97.4571
loop_
_atom_site_label
_atom_site_type_symbol
_atom_site_fract_x
_atom_site_fract_y
_atom_site_fract_z
_atom_site_U_iso_or_equiv
_atom_site_adp_type
_atom_site_occupancy
C1     C     0.19157   0.13080   0.53478   0.00000  Uiso   1.00
C2     C     0.10989   0.10522   0.50909   0.00000  Uiso   1.00
C3     C     0.10318   0.07252   0.44603   0.00000  Uiso   1.00
C4     C     0.02280   0.05308   0.43217   0.00000  Uiso   1.00
C5     C     0.90677   0.01143   0.38503   0.00000  Uiso   1.00
C6     C     0.18376   0.20064   0.56605   0.00000  Uiso   1.00
C7     C     0.23917   0.24818   0.55089   0.00000  Uiso   1.00
C8     C     0.22097   0.30908   0.58498   0.00000  Uiso   1.00
C9     C     0.21967   0.41557   0.62631   0.00000  Uiso   1.00
C10    C     0.19140   0.10275   0.58919   0.00000  Uiso   1.00
C11    C     0.25326   0.06799   0.59349   0.00000  Uiso   1.00
C12    C     0.24151   0.04647   0.64708   0.00000  Uiso   1.00
C13    C     0.25207   0.00097   0.72433   0.00000  Uiso   1.00
C14    C     0.06073   0.15443   0.62231   0.00000  Uiso   1.00
C15    C     0.03882   0.11805   0.55663   0.00000  Uiso   1.00
C16    C     0.95842   0.09866   0.54286   0.00000  Uiso   1.00
C17    C     0.95160   0.06594   0.47979   0.00000  Uiso   1.00
C18    C     0.11269   0.21348   0.61359   0.00000  Uiso   1.00
C19    C     0.09441   0.27432   0.64772   0.00000  Uiso   1.00
C20    C     0.14978   0.32193   0.63260   0.00000  Uiso   1.00
C21    C     0.12033   0.11558   0.63673   0.00000  Uiso   1.00
C22    C     0.10849   0.09412   0.69032   0.00000  Uiso   1.00
C23    C     0.17031   0.05933   0.69470   0.00000  Uiso   1.00
H24    H     0.24690   0.12082   0.49778   0.00000  Uiso   1.00
H25    H     0.15820   0.06260   0.40925   0.00000  Uiso   1.00
H26    H     0.29417   0.23824   0.51410   0.00000  Uiso   1.00
H27    H     0.30825   0.05807   0.55669   0.00000  Uiso   1.00
H28    H     0.02851   0.00374   0.33207   0.00000  Uiso   1.00
H29    H     0.31523   0.37407   0.55316   0.00000  Uiso   1.00
H30    H     0.34492   0.99415   0.64298   0.00000  Uiso   1.00
H31    H     0.00540   0.16442   0.65932   0.00000  Uiso   1.00
H32    H     0.90343   0.10860   0.57966   0.00000  Uiso   1.00
H33    H     0.03941   0.28423   0.68450   0.00000  Uiso   1.00
H34    H     0.05348   0.10406   0.72710   0.00000  Uiso   1.00
H35    H     0.82173   0.04107   0.47037   0.00000  Uiso   1.00
H36    H     0.10846   0.41140   0.69146   0.00000  Uiso   1.00
H37    H     0.13814   0.03148   0.78128   0.00000  Uiso   1.00
O38    O     0.86240   0.98491   0.34590   0.00000  Uiso   1.00
O39    O     0.23858   0.47077   0.63597   0.00000  Uiso   1.00
O40    O     0.27752   0.97232   0.75381   0.00000  Uiso   1.00
N41    N     0.99384   0.02018   0.37555   0.00000  Uiso   1.00
N42    N     0.26190   0.36641   0.58225   0.00000  Uiso   1.00
N43    N     0.28966   0.01123   0.66623   0.00000  Uiso   1.00
N44    N     0.88257   0.04026   0.44998   0.00000  Uiso   1.00
N45    N     0.15063   0.38650   0.65667   0.00000  Uiso   1.00
N46    N     0.17840   0.03132   0.74066   0.00000  Uiso   1.00
C47    C     0.46059   0.19492   0.31878   0.00000  Uiso   1.00
C48    C     0.39297   0.14308   0.29804   0.00000  Uiso   1.00
C49    C     0.30891   0.15118   0.30177   0.00000  Uiso   1.00
C50    C     0.25708   0.09785   0.28036   0.00000  Uiso   1.00
C51    C     0.14734   0.02638   0.25188   0.00000  Uiso   1.00
C52    C     0.49912   0.17705   0.36751   0.00000  Uiso   1.00
C53    C     0.50432   0.21371   0.42964   0.00000  Uiso   1.00
C54    C     0.54186   0.18898   0.46670   0.00000  Uiso   1.00
C55    C     0.59697   0.17026   0.54606   0.00000  Uiso   1.00
C56    C     0.52903   0.18986   0.26018   0.00000  Uiso   1.00
C57    C     0.55939   0.23728   0.23207   0.00000  Uiso   1.00
C58    C     0.62213   0.22334   0.17877   0.00000  Uiso   1.00
C59    C     0.72368   0.22450   0.09148   0.00000  Uiso   1.00
C60    C     0.51802   0.08582   0.27411   0.00000  Uiso   1.00
C61    C     0.42417   0.08383   0.27378   0.00000  Uiso   1.00
C62    C     0.37246   0.03048   0.25235   0.00000  Uiso   1.00
C63    C     0.28833   0.03849   0.25605   0.00000  Uiso   1.00
C64    C     0.53031   0.11780   0.34325   0.00000  Uiso   1.00
C65    C     0.56786   0.09301   0.38022   0.00000  Uiso   1.00
C66    C     0.57311   0.12962   0.44240   0.00000  Uiso   1.00
C67    C     0.56022   0.13060   0.23591   0.00000  Uiso   1.00
C68    C     0.62293   0.11658   0.18265   0.00000  Uiso   1.00
C69    C     0.65339   0.16397   0.15447   0.00000  Uiso   1.00
H70    H     0.43630   0.24105   0.33767   0.00000  Uiso   1.00
H71    H     0.28479   0.19704   0.32056   0.00000  Uiso   1.00
H72    H     0.48018   0.25957   0.44840   0.00000  Uiso   1.00
H73    H     0.53524   0.28313   0.25086   0.00000  Uiso   1.00
H74    H     0.13057   0.12211   0.29091   0.00000  Uiso   1.00
H75    H     0.54257   0.25396   0.56047   0.00000  Uiso   1.00
H76    H     0.65869   0.30365   0.14392   0.00000  Uiso   1.00
H77    H     0.54231   0.03969   0.25522   0.00000  Uiso   1.00
H78    H     0.39661   0.98463   0.23358   0.00000  Uiso   1.00
H79    H     0.59200   0.04716   0.36143   0.00000  Uiso   1.00
H80    H     0.64706   0.07072   0.16389   0.00000  Uiso   1.00
H81    H     0.22133   0.94971   0.22032   0.00000  Uiso   1.00
H82    H     0.63334   0.08156   0.48989   0.00000  Uiso   1.00
H83    H     0.74944   0.13125   0.07333   0.00000  Uiso   1.00
O84    O     0.07819   0.00332   0.24289   0.00000  Uiso   1.00
O85    O     0.61873   0.17631   0.59654   0.00000  Uiso   1.00
O86    O     0.77106   0.24150   0.05003   0.00000  Uiso   1.00
N87    N     0.17193   0.08909   0.27725   0.00000  Uiso   1.00
N88    N     0.55711   0.21236   0.52928   0.00000  Uiso   1.00
N89    N     0.66568   0.25883   0.13985   0.00000  Uiso   1.00
N90    N     0.22076   0.99633   0.23927   0.00000  Uiso   1.00
N91    N     0.60595   0.11959   0.49130   0.00000  Uiso   1.00
N92    N     0.71452   0.16606   0.10187   0.00000  Uiso   1.00
C93    C     0.08292   0.43143   0.35003   0.00000  Uiso   1.00
C94    C     0.12143   0.43151   0.28172   0.00000  Uiso   1.00
C95    C     0.14890   0.37986   0.23220   0.00000  Uiso   1.00
C96    C     0.18225   0.38962   0.17321   0.00000  Uiso   1.00
C97    C     0.24122   0.38073   0.06853   0.00000  Uiso   1.00
C98    C     0.13684   0.47955   0.39353   0.00000  Uiso   1.00
C99    C     0.17725   0.46828   0.43802   0.00000  Uiso   1.00
C100   C     0.22356   0.51849   0.47316   0.00000  Uiso   1.00
C101   C     0.30640   0.58418   0.54210   0.00000  Uiso   1.00
C102   C     0.99762   0.45807   0.36339   0.00000  Uiso   1.00
C103   C     0.92098   0.42876   0.38257   0.00000  Uiso   1.00
C104   C     0.85009   0.46089   0.39234   0.00000  Uiso   1.00
C105   C     0.71678   0.49324   0.41449   0.00000  Uiso   1.00
C106   C     0.09330   0.54064   0.33331   0.00000  Uiso   1.00
C107   C     0.12707   0.49083   0.27264   0.00000  Uiso   1.00
C108   C     0.16038   0.50068   0.21371   0.00000  Uiso   1.00
C109   C     0.18789   0.44904   0.16411   0.00000  Uiso   1.00
C110   C     0.14248   0.53886   0.38445   0.00000  Uiso   1.00
C111   C     0.18873   0.58910   0.41953   0.00000  Uiso   1.00
C112   C     0.22921   0.57791   0.46406   0.00000  Uiso   1.00
C113   C     0.00326   0.51739   0.35431   0.00000  Uiso   1.00
C114   C     0.93247   0.54957   0.36407   0.00000  Uiso   1.00
C115   C     0.85574   0.52031   0.38325   0.00000  Uiso   1.00
H116   H     0.07853   0.38526   0.35710   0.00000  Uiso   1.00
H117   H     0.14453   0.33396   0.23925   0.00000  Uiso   1.00
H118   H     0.17287   0.42238   0.44505   0.00000  Uiso   1.00
H119   H     0.91665   0.38286   0.38959   0.00000  Uiso   1.00
H120   H     0.22021   0.30326   0.10460   0.00000  Uiso   1.00
H121   H     0.27994   0.48968   0.53853   0.00000  Uiso   1.00
H122   H     0.73965   0.40635   0.42160   0.00000  Uiso   1.00
H123   H     0.09769   0.58682   0.32624   0.00000  Uiso   1.00
H124   H     0.16474   0.54658   0.20669   0.00000  Uiso   1.00
H125   H     0.19308   0.63499   0.41249   0.00000  Uiso   1.00
H126   H     0.93686   0.59547   0.35703   0.00000  Uiso   1.00
H127   H     0.23662   0.47583   0.07817   0.00000  Uiso   1.00
H128   H     0.29635   0.66225   0.51211   0.00000  Uiso   1.00
H129   H     0.75605   0.57892   0.39518   0.00000  Uiso   1.00
O130   O     0.27220   0.35945   0.01330   0.00000  Uiso   1.00
O131   O     0.35055   0.60403   0.58262   0.00000  Uiso   1.00
O132   O     0.64170   0.49469   0.42920   0.00000  Uiso   1.00
N133   N     0.21486   0.34939   0.11478   0.00000  Uiso   1.00
N134   N     0.27071   0.52368   0.52048   0.00000  Uiso   1.00
N135   N     0.76558   0.44578   0.41117   0.00000  Uiso   1.00
N136   N     0.22368   0.44225   0.10056   0.00000  Uiso   1.00
N137   N     0.27954   0.61654   0.50626   0.00000  Uiso   1.00
N138   N     0.77441   0.53864   0.39695   0.00000  Uiso   1.00
C139   C     0.65868   0.96022   0.80606   0.00000  Uiso   1.00
C140   C     0.56863   0.96320   0.84187   0.00000  Uiso   1.00
C141   C     0.51620   0.91280   0.85343   0.00000  Uiso   1.00
C142   C     0.43603   0.92523   0.88707   0.00000  Uiso   1.00
C143   C     0.30027   0.92064   0.93946   0.00000  Uiso   1.00
C144   C     0.71234   0.00565   0.85183   0.00000  Uiso   1.00
C145   C     0.78075   0.99093   0.87176   0.00000  Uiso   1.00
C146   C     0.82156   0.03909   0.91377   0.00000  Uiso   1.00
C147   C     0.90896   0.10040   0.98159   0.00000  Uiso   1.00
C148   C     0.66139   0.98837   0.75132   0.00000  Uiso   1.00
C149   C     0.68698   0.95913   0.68675   0.00000  Uiso   1.00
C150   C     0.68491   0.99276   0.64414   0.00000  Uiso   1.00
C151   C     0.69321   0.02724   0.55592   0.00000  Uiso   1.00
C152   C     0.60953   0.07193   0.84523   0.00000  Uiso   1.00
C153   C     0.54193   0.02388   0.86314   0.00000  Uiso   1.00
C154   C     0.46182   0.03639   0.89677   0.00000  Uiso   1.00
C155   C     0.40928   0.98601   0.90838   0.00000  Uiso   1.00
C156   C     0.68564   0.06632   0.87310   0.00000  Uiso   1.00
C157   C     0.72637   0.11452   0.91510   0.00000  Uiso   1.00
C158   C     0.79482   0.09988   0.93509   0.00000  Uiso   1.00
C159   C     0.63469   0.04904   0.77260   0.00000  Uiso   1.00
C160   C     0.63259   0.08272   0.73009   0.00000  Uiso   1.00
C161   C     0.65817   0.05354   0.66546   0.00000  Uiso   1.00
H162   H     0.67947   0.91299   0.78949   0.00000  Uiso   1.00
H163   H     0.53688   0.86585   0.83696   0.00000  Uiso   1.00
H164   H     0.80140   0.94397   0.85528   0.00000  Uiso   1.00
H165   H     0.70763   0.91218   0.67030   0.00000  Uiso   1.00
H166   H     0.36704   0.84036   0.89899   0.00000  Uiso   1.00
H167   H     0.92480   0.00508   0.93760   0.00000  Uiso   1.00
H168   H     0.72709   0.93804   0.54753   0.00000  Uiso   1.00
H169   H     0.58874   0.11917   0.86179   0.00000  Uiso   1.00
H170   H     0.44118   0.08335   0.91323   0.00000  Uiso   1.00
H171   H     0.70569   0.16147   0.93155   0.00000  Uiso   1.00
H172   H     0.61193   0.12967   0.74657   0.00000  Uiso   1.00
H173   H     0.28936   0.01689   0.96090   0.00000  Uiso   1.00
H174   H     0.84713   0.18161   0.99950   0.00000  Uiso   1.00
H175   H     0.64941   0.11457   0.60944   0.00000  Uiso   1.00
O176   O     0.23278   0.90134   0.96249   0.00000  Uiso   1.00
O177   O     0.96454   0.11745   0.01313   0.00000  Uiso   1.00
O178   O     0.70514   0.02949   0.50138   0.00000  Uiso   1.00
N179   N     0.36901   0.88682   0.90649   0.00000  Uiso   1.00
N180   N     0.89047   0.04082   0.94259   0.00000  Uiso   1.00
N181   N     0.70565   0.97815   0.57792   0.00000  Uiso   1.00
N182   N     0.32721   0.98181   0.93980   0.00000  Uiso   1.00
N183   N     0.84867   0.13581   0.97590   0.00000  Uiso   1.00
N184   N     0.66385   0.07314   0.61123   0.00000  Uiso   1.00
C185   C     0.85837   0.64341   0.99023   0.00000  Uiso   1.00
C186   C     0.84873   0.62509   0.91984   0.00000  Uiso   1.00
C187   C     0.77324   0.61325   0.89669   0.00000  Uiso   1.00
C188   C     0.77775   0.59717   0.83067   0.00000  Uiso   1.00
C189   C     0.75102   0.56937   0.72766   0.00000  Uiso   1.00
C190   C     0.91266   0.70497   0.00244   0.00000  Uiso   1.00
C191   C     0.89094   0.76029   0.04874   0.00000  Uiso   1.00
C192   C     0.94928   0.81145   0.05226   0.00000  Uiso   1.00
C193   C     0.02183   0.90765   0.07751   0.00000  Uiso   1.00
C194   C     0.91121   0.59504   0.99629   0.00000  Uiso   1.00
C195   C     0.88827   0.55794   0.03744   0.00000  Uiso   1.00
C196   C     0.94539   0.51656   0.03580   0.00000  Uiso   1.00
C197   C     0.01568   0.44208   0.05151   0.00000  Uiso   1.00
C198   C     0.00061   0.63591   0.91417   0.00000  Uiso   1.00
C199   C     0.92599   0.62102   0.87853   0.00000  Uiso   1.00
C200   C     0.93061   0.60495   0.81253   0.00000  Uiso   1.00
C201   C     0.85515   0.59308   0.78928   0.00000  Uiso   1.00
C202   C     0.98992   0.70090   0.96113   0.00000  Uiso   1.00
C203   C     0.04831   0.75199   0.96458   0.00000  Uiso   1.00
C204   C     0.02667   0.80737   0.01087   0.00000  Uiso   1.00
C205   C     0.98846   0.59097   0.95498   0.00000  Uiso   1.00
C206   C     0.04564   0.54964   0.95328   0.00000  Uiso   1.00
C207   C     0.02279   0.51247   0.99441   0.00000  Uiso   1.00
H208   H     0.79823   0.64659   0.02240   0.00000  Uiso   1.00
H209   H     0.71346   0.61641   0.92867   0.00000  Uiso   1.00
H210   H     0.83115   0.76343   0.08071   0.00000  Uiso   1.00
H211   H     0.82848   0.56111   0.06940   0.00000  Uiso   1.00
H212   H     0.65356   0.58118   0.80654   0.00000  Uiso   1.00
H213   H     0.90171   0.89116   0.12713   0.00000  Uiso   1.00
H214   H     0.89608   0.46453   0.10329   0.00000  Uiso   1.00
H215   H     0.06077   0.63274   0.88201   0.00000  Uiso   1.00
H216   H     0.99041   0.60180   0.78057   0.00000  Uiso   1.00
H217   H     0.10809   0.74881   0.93261   0.00000  Uiso   1.00
H218   H     0.10542   0.54649   0.92130   0.00000  Uiso   1.00
H219   H     0.87834   0.56932   0.68634   0.00000  Uiso   1.00
H220   H     0.12649   0.87930   0.00693   0.00000  Uiso   1.00
H221   H     0.12086   0.45267   0.98309   0.00000  Uiso   1.00
O222   O     0.71493   0.55517   0.68225   0.00000  Uiso   1.00
O223   O     0.04050   0.96184   0.10285   0.00000  Uiso   1.00
O224   O     0.03311   0.40212   0.07158   0.00000  Uiso   1.00
N225   N     0.71612   0.58263   0.79217   0.00000  Uiso   1.00
N226   N     0.94812   0.87244   0.09189   0.00000  Uiso   1.00
N227   N     0.94286   0.47359   0.06962   0.00000  Uiso   1.00
N228   N     0.83707   0.57624   0.72749   0.00000  Uiso   1.00
N229   N     0.06907   0.86606   0.02721   0.00000  Uiso   1.00
N230   N     0.06381   0.46721   0.00494   0.00000  Uiso   1.00
C231   C     0.54982   0.64963   0.11620   0.00000  Uiso   1.00
C232   C     0.52276   0.58432   0.07667   0.00000  Uiso   1.00
C233   C     0.55664   0.55541   0.01360   0.00000  Uiso   1.00
C234   C     0.52325   0.49554   0.98592   0.00000  Uiso   1.00
C235   C     0.49114   0.39864   0.91934   0.00000  Uiso   1.00
C236   C     0.57395   0.64158   0.17606   0.00000  Uiso   1.00
C237   C     0.65086   0.66083   0.19654   0.00000  Uiso   1.00
C238   C     0.66056   0.64917   0.25252   0.00000  Uiso   1.00
C239   C     0.70791   0.64122   0.34027   0.00000  Uiso   1.00
C240   C     0.47083   0.68537   0.13906   0.00000  Uiso   1.00
C241   C     0.46105   0.74144   0.12846   0.00000  Uiso   1.00
C242   C     0.38394   0.76666   0.15331   0.00000  Uiso   1.00
C243   C     0.27118   0.82670   0.18361   0.00000  Uiso   1.00
C244   C     0.43028   0.59472   0.17921   0.00000  Uiso   1.00
C245   C     0.45783   0.55449   0.11090   0.00000  Uiso   1.00
C246   C     0.42438   0.49466   0.08331   0.00000  Uiso   1.00
C247   C     0.45821   0.46566   0.02020   0.00000  Uiso   1.00
C248   C     0.50902   0.61176   0.21028   0.00000  Uiso   1.00
C249   C     0.51861   0.60008   0.26625   0.00000  Uiso   1.00
C250   C     0.59552   0.61929   0.28681   0.00000  Uiso   1.00
C251   C     0.40590   0.65554   0.17328   0.00000  Uiso   1.00
C252   C     0.32879   0.68069   0.19816   0.00000  Uiso   1.00
C253   C     0.31889   0.73678   0.18760   0.00000  Uiso   1.00
H254   H     0.60037   0.67285   0.08956   0.00000  Uiso   1.00
H255   H     0.60689   0.57850   0.98713   0.00000  Uiso   1.00
H256   H     0.70110   0.68391   0.17005   0.00000  Uiso   1.00
H257   H     0.51131   0.76450   0.10197   0.00000  Uiso   1.00
H258   H     0.58551   0.46073   0.88867   0.00000  Uiso   1.00
H259   H     0.78413   0.68301   0.27437   0.00000  Uiso   1.00
H260   H     0.38394   0.85297   0.13082   0.00000  Uiso   1.00
H261   H     0.37973   0.57150   0.20586   0.00000  Uiso   1.00
H262   H     0.37414   0.47159   0.10980   0.00000  Uiso   1.00
H263   H     0.46835   0.57700   0.29272   0.00000  Uiso   1.00
H264   H     0.27856   0.65759   0.22464   0.00000  Uiso   1.00
H265   H     0.39660   0.37396   0.98823   0.00000  Uiso   1.00
H266   H     0.59523   0.59624   0.37394   0.00000  Uiso   1.00
H267   H     0.19503   0.76619   0.23038   0.00000  Uiso   1.00
O268   O     0.49138   0.35344   0.87317   0.00000  Uiso   1.00
O269   O     0.75196   0.64507   0.37920   0.00000  Uiso   1.00
O270   O     0.22691   0.86804   0.19087   0.00000  Uiso   1.00
N271   N     0.54180   0.45403   0.92528   0.00000  Uiso   1.00
N272   N     0.72751   0.66184   0.28588   0.00000  Uiso   1.00
N273   N     0.35337   0.82074   0.15169   0.00000  Uiso   1.00
N274   N     0.44015   0.40733   0.97885   0.00000  Uiso   1.00
N275   N     0.62586   0.61514   0.33946   0.00000  Uiso   1.00
N276   N     0.25172   0.77405   0.20526   0.00000  Uiso   1.00
C277   C     0.54885   0.72784   0.72042   0.00000  Uiso   1.00
C278   C     0.63968   0.73668   0.73153   0.00000  Uiso   1.00
C279   C     0.66561   0.75006   0.79047   0.00000  Uiso   1.00
C280   C     0.75153   0.75638   0.79051   0.00000  Uiso   1.00
C281   C     0.88377   0.77112   0.81640   0.00000  Uiso   1.00
C282   C     0.53919   0.66341   0.67261   0.00000  Uiso   1.00
C283   C     0.48062   0.61518   0.68201   0.00000  Uiso   1.00
C284   C     0.48194   0.55982   0.63245   0.00000  Uiso   1.00
C285   C     0.45812   0.46082   0.56685   0.00000  Uiso   1.00
C286   C     0.54065   0.77481   0.68537   0.00000  Uiso   1.00
C287   C     0.48330   0.82024   0.70549   0.00000  Uiso   1.00
C288   C     0.48583   0.85866   0.66666   0.00000  Uiso   1.00
C289   C     0.46428   0.93262   0.62088   0.00000  Uiso   1.00
C290   C     0.65532   0.71528   0.61570   0.00000  Uiso   1.00
C291   C     0.69751   0.72986   0.67464   0.00000  Uiso   1.00
C292   C     0.78341   0.73616   0.67460   0.00000  Uiso   1.00
C293   C     0.80947   0.74955   0.73353   0.00000  Uiso   1.00
C294   C     0.59701   0.65658   0.61572   0.00000  Uiso   1.00
C295   C     0.59842   0.60128   0.56614   0.00000  Uiso   1.00
C296   C     0.53988   0.55299   0.57546   0.00000  Uiso   1.00
C297   C     0.59848   0.76799   0.62848   0.00000  Uiso   1.00
C298   C     0.60110   0.80634   0.58962   0.00000  Uiso   1.00
C299   C     0.54377   0.85182   0.60968   0.00000  Uiso   1.00
H300   H     0.50382   0.73315   0.76471   0.00000  Uiso   1.00
H301   H     0.62084   0.75533   0.83448   0.00000  Uiso   1.00
H302   H     0.43587   0.62048   0.72603   0.00000  Uiso   1.00
H303   H     0.43855   0.82551   0.74951   0.00000  Uiso   1.00
H304   H     0.77607   0.77690   0.88674   0.00000  Uiso   1.00
H305   H     0.38604   0.49256   0.65807   0.00000  Uiso   1.00
H306   H     0.39169   0.92489   0.70757   0.00000  Uiso   1.00
H307   H     0.70034   0.70996   0.57141   0.00000  Uiso   1.00
H308   H     0.82815   0.73088   0.63057   0.00000  Uiso   1.00
H309   H     0.64318   0.59602   0.52213   0.00000  Uiso   1.00
H310   H     0.64586   0.80105   0.54560   0.00000  Uiso   1.00
H311   H     0.94433   0.75705   0.72124   0.00000  Uiso   1.00
H312   H     0.55430   0.47271   0.49257   0.00000  Uiso   1.00
H313   H     0.55995   0.90504   0.54208   0.00000  Uiso   1.00
O314   O     0.94073   0.78113   0.84639   0.00000  Uiso   1.00
O315   O     0.42901   0.40809   0.54638   0.00000  Uiso   1.00
O316   O     0.43643   0.97531   0.61134   0.00000  Uiso   1.00
N317   N     0.79813   0.76937   0.83967   0.00000  Uiso   1.00
N318   N     0.43348   0.50353   0.62588   0.00000  Uiso   1.00
N319   N     0.43875   0.90771   0.67216   0.00000  Uiso   1.00
N320   N     0.88867   0.75869   0.75062   0.00000  Uiso   1.00
N321   N     0.52402   0.49284   0.53683   0.00000  Uiso   1.00
N322   N     0.52929   0.89703   0.58311   0.00000  Uiso   1.00
C323   C     0.33135   0.64039   0.92295   0.00000  Uiso   1.00
C324   C     0.40435   0.68830   0.94072   0.00000  Uiso   1.00
C325   C     0.48667   0.67500   0.93574   0.00000  Uiso   1.00
C326   C     0.54421   0.72538   0.95442   0.00000  Uiso   1.00
C327   C     0.66123   0.79042   0.97851   0.00000  Uiso   1.00
C328   C     0.29498   0.65960   0.87402   0.00000  Uiso   1.00
C329   C     0.28533   0.62216   0.81297   0.00000  Uiso   1.00
C330   C     0.25079   0.64838   0.77550   0.00000  Uiso   1.00
C331   C     0.19795   0.66886   0.69606   0.00000  Uiso   1.00
C332   C     0.26442   0.65079   0.98291   0.00000  Uiso   1.00
C333   C     0.22906   0.60595   0.01340   0.00000  Uiso   1.00
C334   C     0.16877   0.62475   0.06761   0.00000  Uiso   1.00
C335   C     0.06849   0.63155   0.15723   0.00000  Uiso   1.00
C336   C     0.28715   0.75351   0.96498   0.00000  Uiso   1.00
C337   C     0.38034   0.74974   0.96355   0.00000  Uiso   1.00
C338   C     0.43777   0.80015   0.98225   0.00000  Uiso   1.00
C339   C     0.52016   0.78693   0.97730   0.00000  Uiso   1.00
C340   C     0.27098   0.72104   0.89685   0.00000  Uiso   1.00
C341   C     0.23644   0.74732   0.85947   0.00000  Uiso   1.00
C342   C     0.22674   0.70993   0.79838   0.00000  Uiso   1.00
C343   C     0.24042   0.71223   0.00574   0.00000  Uiso   1.00
C344   C     0.18017   0.73110   0.05991   0.00000  Uiso   1.00
C345   C     0.14472   0.68630   0.09048   0.00000  Uiso   1.00
H346   H     0.35003   0.59256   0.90517   0.00000  Uiso   1.00
H347   H     0.50522   0.62744   0.91807   0.00000  Uiso   1.00
H348   H     0.30391   0.57462   0.79531   0.00000  Uiso   1.00
H349   H     0.24765   0.55841   0.99572   0.00000  Uiso   1.00
H350   H     0.66670   0.69322   0.94241   0.00000  Uiso   1.00
H351   H     0.24219   0.58183   0.68358   0.00000  Uiso   1.00
H352   H     0.12356   0.54765   0.10618   0.00000  Uiso   1.00
H353   H     0.26846   0.80134   0.98276   0.00000  Uiso   1.00
H354   H     0.41918   0.84769   0.99991   0.00000  Uiso   1.00
H355   H     0.21786   0.79486   0.87716   0.00000  Uiso   1.00
H356   H     0.16160   0.77865   0.07756   0.00000  Uiso   1.00
H357   H     0.59686   0.87198   0.00883   0.00000  Uiso   1.00
H358   H     0.17235   0.76059   0.75001   0.00000  Uiso   1.00
H359   H     0.05372   0.72641   0.17261   0.00000  Uiso   1.00
O360   O     0.73240   0.80933   0.98548   0.00000  Uiso   1.00
O361   O     0.17545   0.66318   0.64592   0.00000  Uiso   1.00
O362   O     0.01981   0.61833   0.20036   0.00000  Uiso   1.00
N363   N     0.62958   0.72893   0.95570   0.00000  Uiso   1.00
N364   N     0.23270   0.62479   0.71371   0.00000  Uiso   1.00
N365   N     0.12177   0.59283   0.10879   0.00000  Uiso   1.00
N366   N     0.59200   0.82512   0.99144   0.00000  Uiso   1.00
N367   N     0.19512   0.72098   0.74945   0.00000  Uiso   1.00
N368   N     0.08419   0.68902   0.14454   0.00000  Uiso   1.00
C369   C     0.82460   0.42744   0.85922   0.00000  Uiso   1.00
C370   C     0.77197   0.41844   0.92101   0.00000  Uiso   1.00
C371   C     0.74619   0.46585   0.97592   0.00000  Uiso   1.00
C372   C     0.69840   0.44796   0.02739   0.00000  Uiso   1.00
C373   C     0.61987   0.44356   0.12384   0.00000  Uiso   1.00
C374   C     0.77370   0.39391   0.80612   0.00000  Uiso   1.00
C375   C     0.74940   0.42070   0.76442   0.00000  Uiso   1.00
C376   C     0.70308   0.38216   0.71916   0.00000  Uiso   1.00
C377   C     0.62728   0.33968   0.63721   0.00000  Uiso   1.00
C378   C     0.90137   0.39043   0.84624   0.00000  Uiso   1.00
C379   C     0.98442   0.41429   0.83826   0.00000  Uiso   1.00
C380   C     0.04559   0.37282   0.82677   0.00000  Uiso   1.00
C381   C     0.16802   0.32494   0.80713   0.00000  Uiso   1.00
C382   C     0.78556   0.31136   0.85298   0.00000  Uiso   1.00
C383   C     0.75076   0.35538   0.91762   0.00000  Uiso   1.00
C384   C     0.70300   0.33742   0.96902   0.00000  Uiso   1.00
C385   C     0.67716   0.38479   0.02400   0.00000  Uiso   1.00
C386   C     0.75249   0.33086   0.80273   0.00000  Uiso   1.00
C387   C     0.70620   0.29227   0.75752   0.00000  Uiso   1.00
C388   C     0.68183   0.31899   0.71576   0.00000  Uiso   1.00
C389   C     0.88016   0.32738   0.84286   0.00000  Uiso   1.00
C390   C     0.94122   0.28586   0.83137   0.00000  Uiso   1.00
C391   C     0.02434   0.30966   0.82338   0.00000  Uiso   1.00
H392   H     0.84111   0.47653   0.86185   0.00000  Uiso   1.00
H393   H     0.76261   0.51464   0.97852   0.00000  Uiso   1.00
H394   H     0.76583   0.46949   0.76705   0.00000  Uiso   1.00
H395   H     0.00081   0.46309   0.84089   0.00000  Uiso   1.00
H396   H     0.66621   0.52908   0.10637   0.00000  Uiso   1.00
H397   H     0.67301   0.43389   0.66045   0.00000  Uiso   1.00
H398   H     0.16851   0.42038   0.81616   0.00000  Uiso   1.00
H399   H     0.76904   0.26227   0.85034   0.00000  Uiso   1.00
H400   H     0.68659   0.28862   0.96638   0.00000  Uiso   1.00
H401   H     0.68980   0.24348   0.75491   0.00000  Uiso   1.00
H402   H     0.92478   0.23707   0.82875   0.00000  Uiso   1.00
H403   H     0.60451   0.34564   0.09652   0.00000  Uiso   1.00
H404   H     0.61130   0.25044   0.65059   0.00000  Uiso   1.00
H405   H     0.10681   0.23694   0.80631   0.00000  Uiso   1.00
O406   O     0.58240   0.45856   0.17798   0.00000  Uiso   1.00
O407   O     0.59133   0.33367   0.59295   0.00000  Uiso   1.00
O408   O     0.24142   0.31595   0.79723   0.00000  Uiso   1.00
N409   N     0.66302   0.48229   0.08813   0.00000  Uiso   1.00
N410   N     0.66936   0.39329   0.67123   0.00000  Uiso   1.00
N411   N     0.13262   0.38066   0.81679   0.00000  Uiso   1.00
N412   N     0.62982   0.38358   0.08283   0.00000  Uiso   1.00
N413   N     0.63616   0.29458   0.66593   0.00000  Uiso   1.00
N414   N     0.09941   0.28195   0.81148   0.00000  Uiso   1.00
C415   C     0.16468   0.89336   0.43895   0.00000  Uiso   1.00
C416   C     0.25341   0.88759   0.40085   0.00000  Uiso   1.00
C417   C     0.30828   0.93663   0.38862   0.00000  Uiso   1.00
C418   C     0.38668   0.92167   0.35282   0.00000  Uiso   1.00
C419   C     0.52100   0.92212   0.29708   0.00000  Uiso   1.00
C420   C     0.10712   0.85058   0.39461   0.00000  Uiso   1.00
C421   C     0.03898   0.86851   0.37714   0.00000  Uiso   1.00
C422   C     0.99422   0.82240   0.33608   0.00000  Uiso   1.00
C423   C     0.90139   0.76538   0.27069   0.00000  Uiso   1.00
C424   C     0.16205   0.86393   0.49273   0.00000  Uiso   1.00
C425   C     0.14008   0.89307   0.55777   0.00000  Uiso   1.00
C426   C     0.14155   0.85818   0.59933   0.00000  Uiso   1.00
C427   C     0.13400   0.82187   0.68629   0.00000  Uiso   1.00
C428   C     0.20634   0.77958   0.39712   0.00000  Uiso   1.00
C429   C     0.27604   0.82579   0.37812   0.00000  Uiso   1.00
C430   C     0.35437   0.81075   0.34233   0.00000  Uiso   1.00
C431   C     0.40935   0.85976   0.33005   0.00000  Uiso   1.00
C432   C     0.12974   0.78879   0.37188   0.00000  Uiso   1.00
C433   C     0.08507   0.74263   0.33085   0.00000  Uiso   1.00
C434   C     0.01689   0.76049   0.31332   0.00000  Uiso   1.00
C435   C     0.18468   0.80213   0.47001   0.00000  Uiso   1.00
C436   C     0.18617   0.76718   0.51147   0.00000  Uiso   1.00
C437   C     0.16421   0.79627   0.57656   0.00000  Uiso   1.00
H438   H     0.14706   0.94147   0.45664   0.00000  Uiso   1.00
H439   H     0.29074   0.98445   0.40621   0.00000  Uiso   1.00
H440   H     0.02148   0.91634   0.39474   0.00000  Uiso   1.00
H441   H     0.12257   0.94089   0.57533   0.00000  Uiso   1.00
H442   H     0.46001   0.00485   0.34025   0.00000  Uiso   1.00
H443   H     0.89225   0.86123   0.31608   0.00000  Uiso   1.00
H444   H     0.10540   0.91300   0.69690   0.00000  Uiso   1.00
H445   H     0.22395   0.73146   0.37942   0.00000  Uiso   1.00
H446   H     0.37186   0.76292   0.32475   0.00000  Uiso   1.00
H447   H     0.10260   0.69481   0.31328   0.00000  Uiso   1.00
H448   H     0.20368   0.71936   0.49387   0.00000  Uiso   1.00
H449   H     0.52585   0.82505   0.27413   0.00000  Uiso   1.00
H450   H     0.95808   0.68143   0.24996   0.00000  Uiso   1.00
H451   H     0.17124   0.73319   0.63078   0.00000  Uiso   1.00
O452   O     0.58883   0.93943   0.27260   0.00000  Uiso   1.00
O453   O     0.84393   0.75100   0.24090   0.00000  Uiso   1.00
O454   O     0.12360   0.81892   0.74053   0.00000  Uiso   1.00
N455   N     0.45522   0.95822   0.33221   0.00000  Uiso   1.00
N456   N     0.92439   0.82394   0.30959   0.00000  Uiso   1.00
N457   N     0.12366   0.87233   0.66563   0.00000  Uiso   1.00
N458   N     0.49064   0.86147   0.29663   0.00000  Uiso   1.00
N459   N     0.95982   0.72719   0.27402   0.00000  Uiso   1.00
N460   N     0.15908   0.77559   0.63006   0.00000  Uiso   1.00
C461   C     0.94482   0.24169   0.30188   0.00000  Uiso   1.00
C462   C     0.92767   0.26530   0.37488   0.00000  Uiso   1.00
C463   C     0.98812   0.28556   0.41441   0.00000  Uiso   1.00
C464   C     0.95964   0.30534   0.47996   0.00000  Uiso   1.00
C465   C     0.94606   0.34204   0.58950   0.00000  Uiso   1.00
C466   C     0.90006   0.17652   0.28400   0.00000  Uiso   1.00
C467   C     0.93731   0.12214   0.24711   0.00000  Uiso   1.00
C468   C     0.88558   0.06719   0.23615   0.00000  Uiso   1.00
C469   C     0.82913   0.96607   0.20456   0.00000  Uiso   1.00
C470   C     0.89841   0.28263   0.27837   0.00000  Uiso   1.00
C471   C     0.93426   0.31747   0.23673   0.00000  Uiso   1.00
C472   C     0.88114   0.35185   0.22102   0.00000  Uiso   1.00
C473   C     0.82213   0.41549   0.18068   0.00000  Uiso   1.00
C474   C     0.78674   0.24078   0.34800   0.00000  Uiso   1.00
C475   C     0.84180   0.26480   0.39993   0.00000  Uiso   1.00
C476   C     0.81322   0.28456   0.46544   0.00000  Uiso   1.00
C477   C     0.87362   0.30485   0.50506   0.00000  Uiso   1.00
C478   C     0.81420   0.17602   0.30905   0.00000  Uiso   1.00
C479   C     0.76241   0.12114   0.29814   0.00000  Uiso   1.00
C480   C     0.79956   0.06670   0.26125   0.00000  Uiso   1.00
C481   C     0.81255   0.28214   0.30342   0.00000  Uiso   1.00
C482   C     0.75936   0.31647   0.28776   0.00000  Uiso   1.00
C483   C     0.79512   0.35136   0.24611   0.00000  Uiso   1.00
H484   H     0.01167   0.24207   0.28237   0.00000  Uiso   1.00
H485   H     0.05456   0.28593   0.39500   0.00000  Uiso   1.00
H486   H     0.00375   0.12254   0.22773   0.00000  Uiso   1.00
H487   H     0.00071   0.31784   0.21735   0.00000  Uiso   1.00
H488   H     0.06425   0.33432   0.53092   0.00000  Uiso   1.00
H489   H     0.95711   0.98981   0.17819   0.00000  Uiso   1.00
H490   H     0.95069   0.40163   0.15631   0.00000  Uiso   1.00
H491   H     0.71989   0.24040   0.36750   0.00000  Uiso   1.00
H492   H     0.74677   0.28417   0.48481   0.00000  Uiso   1.00
H493   H     0.69596   0.12078   0.31753   0.00000  Uiso   1.00
H494   H     0.69292   0.31608   0.30715   0.00000  Uiso   1.00
H495   H     0.81443   0.33289   0.60381   0.00000  Uiso   1.00
H496   H     0.70729   0.98837   0.25108   0.00000  Uiso   1.00
H497   H     0.70088   0.40020   0.22920   0.00000  Uiso   1.00
O498   O     0.96229   0.36241   0.64300   0.00000  Uiso   1.00
O499   O     0.82172   0.91042   0.18022   0.00000  Uiso   1.00
O500   O     0.81331   0.45073   0.15152   0.00000  Uiso   1.00
N501   N     0.00177   0.32799   0.53198   0.00000  Uiso   1.00
N502   N     0.90160   0.00589   0.20221   0.00000  Uiso   1.00
N503   N     0.89560   0.39089   0.18173   0.00000  Uiso   1.00
N504   N     0.86734   0.32722   0.57120   0.00000  Uiso   1.00
N505   N     0.76717   0.00512   0.24143   0.00000  Uiso   1.00
N506   N     0.76117   0.39012   0.22096   0.00000  Uiso   1.00
C507   C     0.29605   0.18091   0.11484   0.00000  Uiso   1.00
C508   C     0.32903   0.24632   0.14993   0.00000  Uiso   1.00
C509   C     0.29971   0.27933   0.21274   0.00000  Uiso   1.00
C510   C     0.33815   0.33853   0.23603   0.00000  Uiso   1.00
C511   C     0.37938   0.43627   0.29632   0.00000  Uiso   1.00
C512   C     0.26994   0.18664   0.05468   0.00000  Uiso   1.00
C513   C     0.19095   0.16946   0.03739   0.00000  Uiso   1.00
C514   C     0.17967   0.17840   0.98049   0.00000  Uiso   1.00
C515   C     0.12919   0.18344   0.89287   0.00000  Uiso   1.00
C516   C     0.37169   0.14159   0.09173   0.00000  Uiso   1.00
C517   C     0.37825   0.08652   0.10557   0.00000  Uiso   1.00
C518   C     0.45263   0.05753   0.07986   0.00000  Uiso   1.00
C519   C     0.56013   0.99262   0.04977   0.00000  Uiso   1.00
C520   C     0.41648   0.22732   0.04453   0.00000  Uiso   1.00
C521   C     0.39444   0.27153   0.11174   0.00000  Uiso   1.00
C522   C     0.43294   0.33069   0.13495   0.00000  Uiso   1.00
C523   C     0.40368   0.36378   0.19778   0.00000  Uiso   1.00
C524   C     0.33535   0.21184   0.01649   0.00000  Uiso   1.00
C525   C     0.32419   0.22081   0.95961   0.00000  Uiso   1.00
C526   C     0.24520   0.20366   0.94224   0.00000  Uiso   1.00
C527   C     0.43711   0.16680   0.05354   0.00000  Uiso   1.00
C528   C     0.51149   0.13788   0.02779   0.00000  Uiso   1.00
C529   C     0.51815   0.08278   0.04160   0.00000  Uiso   1.00
H530   H     0.24512   0.16128   0.14456   0.00000  Uiso   1.00
H531   H     0.24908   0.25981   0.24227   0.00000  Uiso   1.00
H532   H     0.14034   0.14995   0.06694   0.00000  Uiso   1.00
H533   H     0.32761   0.06703   0.13513   0.00000  Uiso   1.00
H534   H     0.28229   0.38017   0.33375   0.00000  Uiso   1.00
H535   H     0.05303   0.14850   0.96405   0.00000  Uiso   1.00
H536   H     0.44792   0.97364   0.10782   0.00000  Uiso   1.00
H537   H     0.46740   0.24695   0.01480   0.00000  Uiso   1.00
H538   H     0.48356   0.35018   0.10539   0.00000  Uiso   1.00
H539   H     0.37482   0.24032   0.93007   0.00000  Uiso   1.00
H540   H     0.56209   0.15740   0.99825   0.00000  Uiso   1.00
H541   H     0.47260   0.45352   0.22265   0.00000  Uiso   1.00
H542   H     0.24334   0.22184   0.85295   0.00000  Uiso   1.00
H543   H     0.63823   0.04699   0.99673   0.00000  Uiso   1.00
O544   O     0.38405   0.48322   0.34013   0.00000  Uiso   1.00
O545   O     0.08327   0.17926   0.85510   0.00000  Uiso   1.00
O546   O     0.60136   0.94986   0.04372   0.00000  Uiso   1.00
N547   N     0.32487   0.38326   0.29517   0.00000  Uiso   1.00
N548   N     0.11052   0.16667   0.94954   0.00000  Uiso   1.00
N549   N     0.47971   0.00319   0.08394   0.00000  Uiso   1.00
N550   N     0.42728   0.42273   0.23539   0.00000  Uiso   1.00
N551   N     0.21293   0.20614   0.88976   0.00000  Uiso   1.00
N552   N     0.58211   0.04266   0.02416   0.00000  Uiso   1.00
