data_job_02513
_audit_creation_date              2018-12-19
_audit_creation_method            'Materials Studio'
_symmetry_space_group_name_H-M    'P1'
_symmetry_Int_Tables_number       1
_symmetry_cell_setting            triclinic
loop_
_symmetry_equiv_pos_as_xyz
  x,y,z
_cell_length_a                    30.3971
_cell_length_b                    7.5243
_cell_length_c                    39.9942
_cell_angle_alpha                 90.0000
_cell_angle_beta                  96.6721
_cell_angle_gamma                 90.0000
loop_
_atom_site_label
_atom_site_type_symbol
_atom_site_fract_x
_atom_site_fract_y
_atom_site_fract_z
_atom_site_U_iso_or_equiv
_atom_site_adp_type
_atom_site_occupancy
C1     C     0.47205   0.35389   0.83211   0.00000  Uiso   1.00
C2     C     0.49892   0.21008   0.81686   0.00000  Uiso   1.00
C3     C     0.53688   0.23775   0.80136   0.00000  Uiso   1.00
C4     C     0.55662   0.08883   0.78902   0.00000  Uiso   1.00
C5     C     0.60100   0.89146   0.76487   0.00000  Uiso   1.00
C6     C     0.42488   0.33680   0.81469   0.00000  Uiso   1.00
C7     C     0.40060   0.47102   0.79736   0.00000  Uiso   1.00
C8     C     0.35801   0.42876   0.78319   0.00000  Uiso   1.00
C9     C     0.28745   0.42816   0.75568   0.00000  Uiso   1.00
C10    C     0.47009   0.29984   0.86865   0.00000  Uiso   1.00
C11    C     0.48381   0.40300   0.89670   0.00000  Uiso   1.00
C12    C     0.47927   0.32964   0.92797   0.00000  Uiso   1.00
C13    C     0.47891   0.27166   0.98425   0.00000  Uiso   1.00
C14    C     0.43958   0.04021   0.83777   0.00000  Uiso   1.00
C15    C     0.48128   0.03971   0.81994   0.00000  Uiso   1.00
C16    C     0.50096   0.89070   0.80762   0.00000  Uiso   1.00
C17    C     0.53895   0.91814   0.79210   0.00000  Uiso   1.00
C18    C     0.40725   0.16643   0.81776   0.00000  Uiso   1.00
C19    C     0.36468   0.12397   0.80362   0.00000  Uiso   1.00
C20    C     0.34034   0.25808   0.78627   0.00000  Uiso   1.00
C21    C     0.45246   0.12946   0.87173   0.00000  Uiso   1.00
C22    C     0.44789   0.05594   0.90296   0.00000  Uiso   1.00
C23    C     0.46161   0.15896   0.93105   0.00000  Uiso   1.00
H24    H     0.48577   0.48654   0.82972   0.00000  Uiso   1.00
H25    H     0.55052   0.36963   0.79898   0.00000  Uiso   1.00
H26    H     0.41426   0.60285   0.79499   0.00000  Uiso   1.00
H27    H     0.49746   0.53484   0.89431   0.00000  Uiso   1.00
H28    H     0.61451   0.16488   0.76626   0.00000  Uiso   1.00
H29    H     0.32719   0.65667   0.75784   0.00000  Uiso   1.00
H30    H     0.50263   0.51325   0.96729   0.00000  Uiso   1.00
H31    H     0.42585   0.90756   0.84016   0.00000  Uiso   1.00
H32    H     0.48731   0.75887   0.81000   0.00000  Uiso   1.00
H33    H     0.35104   0.99211   0.80600   0.00000  Uiso   1.00
H34    H     0.43424   0.92409   0.90533   0.00000  Uiso   1.00
H35    H     0.56320   0.66917   0.77520   0.00000  Uiso   1.00
H36    H     0.27588   0.16097   0.76678   0.00000  Uiso   1.00
H37    H     0.45133   0.01754   0.97623   0.00000  Uiso   1.00
O38    O     0.63036   0.82966   0.75069   0.00000  Uiso   1.00
O39    O     0.25340   0.47489   0.73965   0.00000  Uiso   1.00
O40    O     0.48358   0.28672   0.01444   0.00000  Uiso   1.00
N41    N     0.59401   0.06861   0.77251   0.00000  Uiso   1.00
N42    N     0.32538   0.52841   0.76463   0.00000  Uiso   1.00
N43    N     0.48940   0.39434   0.96045   0.00000  Uiso   1.00
N44    N     0.56640   0.80187   0.77732   0.00000  Uiso   1.00
N45    N     0.29778   0.26167   0.76944   0.00000  Uiso   1.00
N46    N     0.46179   0.12760   0.96526   0.00000  Uiso   1.00
C47    C     0.97205   0.85389   0.83211   0.00000  Uiso   1.00
C48    C     0.99892   0.71008   0.81686   0.00000  Uiso   1.00
C49    C     0.03688   0.73775   0.80136   0.00000  Uiso   1.00
C50    C     0.05662   0.58883   0.78902   0.00000  Uiso   1.00
C51    C     0.10100   0.39146   0.76487   0.00000  Uiso   1.00
C52    C     0.92488   0.83680   0.81469   0.00000  Uiso   1.00
C53    C     0.90060   0.97102   0.79736   0.00000  Uiso   1.00
C54    C     0.85801   0.92876   0.78319   0.00000  Uiso   1.00
C55    C     0.78745   0.92816   0.75568   0.00000  Uiso   1.00
C56    C     0.97009   0.79984   0.86865   0.00000  Uiso   1.00
C57    C     0.98381   0.90300   0.89670   0.00000  Uiso   1.00
C58    C     0.97927   0.82964   0.92797   0.00000  Uiso   1.00
C59    C     0.97891   0.77166   0.98425   0.00000  Uiso   1.00
C60    C     0.93958   0.54021   0.83777   0.00000  Uiso   1.00
C61    C     0.98128   0.53971   0.81994   0.00000  Uiso   1.00
C62    C     0.00096   0.39070   0.80762   0.00000  Uiso   1.00
C63    C     0.03895   0.41814   0.79210   0.00000  Uiso   1.00
C64    C     0.90725   0.66643   0.81776   0.00000  Uiso   1.00
C65    C     0.86468   0.62397   0.80362   0.00000  Uiso   1.00
C66    C     0.84034   0.75808   0.78627   0.00000  Uiso   1.00
C67    C     0.95246   0.62946   0.87173   0.00000  Uiso   1.00
C68    C     0.94789   0.55594   0.90296   0.00000  Uiso   1.00
C69    C     0.96161   0.65896   0.93105   0.00000  Uiso   1.00
H70    H     0.98577   0.98654   0.82972   0.00000  Uiso   1.00
H71    H     0.05052   0.86963   0.79898   0.00000  Uiso   1.00
H72    H     0.91426   0.10285   0.79499   0.00000  Uiso   1.00
H73    H     0.99746   0.03484   0.89431   0.00000  Uiso   1.00
H74    H     0.11451   0.66488   0.76626   0.00000  Uiso   1.00
H75    H     0.82719   0.15667   0.75784   0.00000  Uiso   1.00
H76    H     0.00263   0.01325   0.96729   0.00000  Uiso   1.00
H77    H     0.92585   0.40756   0.84016   0.00000  Uiso   1.00
H78    H     0.98731   0.25887   0.81000   0.00000  Uiso   1.00
H79    H     0.85104   0.49211   0.80600   0.00000  Uiso   1.00
H80    H     0.93424   0.42409   0.90533   0.00000  Uiso   1.00
H81    H     0.06320   0.16917   0.77520   0.00000  Uiso   1.00
H82    H     0.77588   0.66097   0.76678   0.00000  Uiso   1.00
H83    H     0.95133   0.51754   0.97623   0.00000  Uiso   1.00
O84    O     0.13036   0.32966   0.75069   0.00000  Uiso   1.00
O85    O     0.75340   0.97489   0.73965   0.00000  Uiso   1.00
O86    O     0.98358   0.78672   0.01444   0.00000  Uiso   1.00
N87    N     0.09401   0.56861   0.77251   0.00000  Uiso   1.00
N88    N     0.82538   0.02841   0.76463   0.00000  Uiso   1.00
N89    N     0.98940   0.89434   0.96045   0.00000  Uiso   1.00
N90    N     0.06640   0.30187   0.77732   0.00000  Uiso   1.00
N91    N     0.79778   0.76167   0.76944   0.00000  Uiso   1.00
N92    N     0.96179   0.62760   0.96526   0.00000  Uiso   1.00
C93    C     0.52795   0.35389   0.66789   0.00000  Uiso   1.00
C94    C     0.50108   0.21008   0.68314   0.00000  Uiso   1.00
C95    C     0.46312   0.23775   0.69864   0.00000  Uiso   1.00
C96    C     0.44338   0.08883   0.71098   0.00000  Uiso   1.00
C97    C     0.39900   0.89146   0.73513   0.00000  Uiso   1.00
C98    C     0.57512   0.33680   0.68531   0.00000  Uiso   1.00
C99    C     0.59940   0.47102   0.70264   0.00000  Uiso   1.00
C100   C     0.64199   0.42876   0.71681   0.00000  Uiso   1.00
C101   C     0.71255   0.42816   0.74432   0.00000  Uiso   1.00
C102   C     0.52991   0.29984   0.63135   0.00000  Uiso   1.00
C103   C     0.51619   0.40300   0.60330   0.00000  Uiso   1.00
C104   C     0.52073   0.32964   0.57203   0.00000  Uiso   1.00
C105   C     0.52109   0.27166   0.51575   0.00000  Uiso   1.00
C106   C     0.56042   0.04021   0.66223   0.00000  Uiso   1.00
C107   C     0.51872   0.03971   0.68006   0.00000  Uiso   1.00
C108   C     0.49904   0.89070   0.69238   0.00000  Uiso   1.00
C109   C     0.46105   0.91814   0.70790   0.00000  Uiso   1.00
C110   C     0.59275   0.16643   0.68224   0.00000  Uiso   1.00
C111   C     0.63532   0.12397   0.69638   0.00000  Uiso   1.00
C112   C     0.65966   0.25808   0.71373   0.00000  Uiso   1.00
C113   C     0.54754   0.12946   0.62827   0.00000  Uiso   1.00
C114   C     0.55211   0.05594   0.59704   0.00000  Uiso   1.00
C115   C     0.53839   0.15896   0.56895   0.00000  Uiso   1.00
H116   H     0.51423   0.48654   0.67028   0.00000  Uiso   1.00
H117   H     0.44948   0.36963   0.70102   0.00000  Uiso   1.00
H118   H     0.58574   0.60285   0.70501   0.00000  Uiso   1.00
H119   H     0.50254   0.53484   0.60569   0.00000  Uiso   1.00
H120   H     0.38549   0.16488   0.73374   0.00000  Uiso   1.00
H121   H     0.67281   0.65667   0.74216   0.00000  Uiso   1.00
H122   H     0.49737   0.51325   0.53271   0.00000  Uiso   1.00
H123   H     0.57415   0.90756   0.65984   0.00000  Uiso   1.00
H124   H     0.51269   0.75887   0.69000   0.00000  Uiso   1.00
H125   H     0.64896   0.99211   0.69400   0.00000  Uiso   1.00
H126   H     0.56576   0.92409   0.59467   0.00000  Uiso   1.00
H127   H     0.43680   0.66917   0.72480   0.00000  Uiso   1.00
H128   H     0.72412   0.16097   0.73322   0.00000  Uiso   1.00
H129   H     0.54867   0.01754   0.52377   0.00000  Uiso   1.00
O130   O     0.36964   0.82966   0.74931   0.00000  Uiso   1.00
O131   O     0.74660   0.47489   0.76035   0.00000  Uiso   1.00
O132   O     0.51642   0.28672   0.48556   0.00000  Uiso   1.00
N133   N     0.40599   0.06861   0.72749   0.00000  Uiso   1.00
N134   N     0.67462   0.52841   0.73537   0.00000  Uiso   1.00
N135   N     0.51060   0.39434   0.53955   0.00000  Uiso   1.00
N136   N     0.43360   0.80187   0.72268   0.00000  Uiso   1.00
N137   N     0.70222   0.26167   0.73056   0.00000  Uiso   1.00
N138   N     0.53821   0.12760   0.53474   0.00000  Uiso   1.00
C139   C     0.02795   0.85389   0.66789   0.00000  Uiso   1.00
C140   C     0.00108   0.71008   0.68314   0.00000  Uiso   1.00
C141   C     0.96312   0.73775   0.69864   0.00000  Uiso   1.00
C142   C     0.94338   0.58883   0.71098   0.00000  Uiso   1.00
C143   C     0.89900   0.39146   0.73513   0.00000  Uiso   1.00
C144   C     0.07512   0.83680   0.68531   0.00000  Uiso   1.00
C145   C     0.09940   0.97102   0.70264   0.00000  Uiso   1.00
C146   C     0.14199   0.92876   0.71681   0.00000  Uiso   1.00
C147   C     0.21255   0.92816   0.74432   0.00000  Uiso   1.00
C148   C     0.02991   0.79984   0.63135   0.00000  Uiso   1.00
C149   C     0.01619   0.90300   0.60330   0.00000  Uiso   1.00
C150   C     0.02073   0.82964   0.57203   0.00000  Uiso   1.00
C151   C     0.02109   0.77166   0.51575   0.00000  Uiso   1.00
C152   C     0.06042   0.54021   0.66223   0.00000  Uiso   1.00
C153   C     0.01872   0.53971   0.68006   0.00000  Uiso   1.00
C154   C     0.99904   0.39070   0.69238   0.00000  Uiso   1.00
C155   C     0.96105   0.41814   0.70790   0.00000  Uiso   1.00
C156   C     0.09275   0.66643   0.68224   0.00000  Uiso   1.00
C157   C     0.13532   0.62397   0.69638   0.00000  Uiso   1.00
C158   C     0.15966   0.75808   0.71373   0.00000  Uiso   1.00
C159   C     0.04754   0.62946   0.62827   0.00000  Uiso   1.00
C160   C     0.05211   0.55594   0.59704   0.00000  Uiso   1.00
C161   C     0.03839   0.65896   0.56895   0.00000  Uiso   1.00
H162   H     0.01423   0.98654   0.67028   0.00000  Uiso   1.00
H163   H     0.94948   0.86963   0.70102   0.00000  Uiso   1.00
H164   H     0.08574   0.10285   0.70501   0.00000  Uiso   1.00
H165   H     0.00254   0.03484   0.60569   0.00000  Uiso   1.00
H166   H     0.88549   0.66488   0.73374   0.00000  Uiso   1.00
H167   H     0.17281   0.15667   0.74216   0.00000  Uiso   1.00
H168   H     0.99737   0.01325   0.53271   0.00000  Uiso   1.00
H169   H     0.07415   0.40756   0.65984   0.00000  Uiso   1.00
H170   H     0.01269   0.25887   0.69000   0.00000  Uiso   1.00
H171   H     0.14896   0.49211   0.69400   0.00000  Uiso   1.00
H172   H     0.06576   0.42409   0.59467   0.00000  Uiso   1.00
H173   H     0.93680   0.16917   0.72480   0.00000  Uiso   1.00
H174   H     0.22412   0.66097   0.73322   0.00000  Uiso   1.00
H175   H     0.04867   0.51754   0.52377   0.00000  Uiso   1.00
O176   O     0.86964   0.32966   0.74931   0.00000  Uiso   1.00
O177   O     0.24660   0.97489   0.76035   0.00000  Uiso   1.00
O178   O     0.01642   0.78672   0.48556   0.00000  Uiso   1.00
N179   N     0.90599   0.56861   0.72749   0.00000  Uiso   1.00
N180   N     0.17462   0.02841   0.73537   0.00000  Uiso   1.00
N181   N     0.01060   0.89434   0.53955   0.00000  Uiso   1.00
N182   N     0.93360   0.30187   0.72268   0.00000  Uiso   1.00
N183   N     0.20222   0.76167   0.73056   0.00000  Uiso   1.00
N184   N     0.03821   0.62760   0.53474   0.00000  Uiso   1.00
C185   C     0.52795   0.64611   0.16789   0.00000  Uiso   1.00
C186   C     0.50108   0.78992   0.18314   0.00000  Uiso   1.00
C187   C     0.46312   0.76225   0.19864   0.00000  Uiso   1.00
C188   C     0.44338   0.91117   0.21098   0.00000  Uiso   1.00
C189   C     0.39900   0.10854   0.23513   0.00000  Uiso   1.00
C190   C     0.57512   0.66320   0.18531   0.00000  Uiso   1.00
C191   C     0.59940   0.52898   0.20264   0.00000  Uiso   1.00
C192   C     0.64199   0.57124   0.21681   0.00000  Uiso   1.00
C193   C     0.71255   0.57184   0.24432   0.00000  Uiso   1.00
C194   C     0.52991   0.70016   0.13135   0.00000  Uiso   1.00
C195   C     0.51619   0.59700   0.10330   0.00000  Uiso   1.00
C196   C     0.52073   0.67036   0.07203   0.00000  Uiso   1.00
C197   C     0.52109   0.72834   0.01575   0.00000  Uiso   1.00
C198   C     0.56042   0.95979   0.16223   0.00000  Uiso   1.00
C199   C     0.51872   0.96029   0.18006   0.00000  Uiso   1.00
C200   C     0.49904   0.10930   0.19238   0.00000  Uiso   1.00
C201   C     0.46105   0.08186   0.20790   0.00000  Uiso   1.00
C202   C     0.59275   0.83357   0.18224   0.00000  Uiso   1.00
C203   C     0.63532   0.87603   0.19638   0.00000  Uiso   1.00
C204   C     0.65966   0.74192   0.21373   0.00000  Uiso   1.00
C205   C     0.54754   0.87054   0.12827   0.00000  Uiso   1.00
C206   C     0.55211   0.94406   0.09704   0.00000  Uiso   1.00
C207   C     0.53839   0.84104   0.06895   0.00000  Uiso   1.00
H208   H     0.51423   0.51346   0.17028   0.00000  Uiso   1.00
H209   H     0.44948   0.63037   0.20102   0.00000  Uiso   1.00
H210   H     0.58574   0.39715   0.20501   0.00000  Uiso   1.00
H211   H     0.50254   0.46516   0.10569   0.00000  Uiso   1.00
H212   H     0.38549   0.83512   0.23374   0.00000  Uiso   1.00
H213   H     0.67281   0.34333   0.24216   0.00000  Uiso   1.00
H214   H     0.49737   0.48675   0.03271   0.00000  Uiso   1.00
H215   H     0.57415   0.09244   0.15984   0.00000  Uiso   1.00
H216   H     0.51269   0.24113   0.19000   0.00000  Uiso   1.00
H217   H     0.64896   0.00789   0.19400   0.00000  Uiso   1.00
H218   H     0.56576   0.07591   0.09467   0.00000  Uiso   1.00
H219   H     0.43680   0.33083   0.22480   0.00000  Uiso   1.00
H220   H     0.72412   0.83903   0.23322   0.00000  Uiso   1.00
H221   H     0.54867   0.98246   0.02377   0.00000  Uiso   1.00
O222   O     0.36964   0.17034   0.24931   0.00000  Uiso   1.00
O223   O     0.74660   0.52511   0.26035   0.00000  Uiso   1.00
O224   O     0.51642   0.71328   0.98556   0.00000  Uiso   1.00
N225   N     0.40599   0.93139   0.22749   0.00000  Uiso   1.00
N226   N     0.67462   0.47159   0.23537   0.00000  Uiso   1.00
N227   N     0.51060   0.60566   0.03955   0.00000  Uiso   1.00
N228   N     0.43360   0.19813   0.22268   0.00000  Uiso   1.00
N229   N     0.70222   0.73833   0.23056   0.00000  Uiso   1.00
N230   N     0.53821   0.87240   0.03474   0.00000  Uiso   1.00
C231   C     0.02795   0.14611   0.16789   0.00000  Uiso   1.00
C232   C     0.00108   0.28992   0.18314   0.00000  Uiso   1.00
C233   C     0.96312   0.26225   0.19864   0.00000  Uiso   1.00
C234   C     0.94338   0.41117   0.21098   0.00000  Uiso   1.00
C235   C     0.89900   0.60854   0.23513   0.00000  Uiso   1.00
C236   C     0.07512   0.16320   0.18531   0.00000  Uiso   1.00
C237   C     0.09940   0.02898   0.20264   0.00000  Uiso   1.00
C238   C     0.14199   0.07124   0.21681   0.00000  Uiso   1.00
C239   C     0.21255   0.07184   0.24432   0.00000  Uiso   1.00
C240   C     0.02991   0.20016   0.13135   0.00000  Uiso   1.00
C241   C     0.01619   0.09700   0.10330   0.00000  Uiso   1.00
C242   C     0.02073   0.17036   0.07203   0.00000  Uiso   1.00
C243   C     0.02109   0.22834   0.01575   0.00000  Uiso   1.00
C244   C     0.06042   0.45979   0.16223   0.00000  Uiso   1.00
C245   C     0.01872   0.46029   0.18006   0.00000  Uiso   1.00
C246   C     0.99904   0.60930   0.19238   0.00000  Uiso   1.00
C247   C     0.96105   0.58186   0.20790   0.00000  Uiso   1.00
C248   C     0.09275   0.33357   0.18224   0.00000  Uiso   1.00
C249   C     0.13532   0.37603   0.19638   0.00000  Uiso   1.00
C250   C     0.15966   0.24192   0.21373   0.00000  Uiso   1.00
C251   C     0.04754   0.37054   0.12827   0.00000  Uiso   1.00
C252   C     0.05211   0.44406   0.09704   0.00000  Uiso   1.00
C253   C     0.03839   0.34104   0.06895   0.00000  Uiso   1.00
H254   H     0.01423   0.01346   0.17028   0.00000  Uiso   1.00
H255   H     0.94948   0.13037   0.20102   0.00000  Uiso   1.00
H256   H     0.08574   0.89715   0.20501   0.00000  Uiso   1.00
H257   H     0.00254   0.96516   0.10569   0.00000  Uiso   1.00
H258   H     0.88549   0.33512   0.23374   0.00000  Uiso   1.00
H259   H     0.17281   0.84333   0.24216   0.00000  Uiso   1.00
H260   H     0.99737   0.98675   0.03271   0.00000  Uiso   1.00
H261   H     0.07415   0.59244   0.15984   0.00000  Uiso   1.00
H262   H     0.01269   0.74113   0.19000   0.00000  Uiso   1.00
H263   H     0.14896   0.50789   0.19400   0.00000  Uiso   1.00
H264   H     0.06576   0.57591   0.09467   0.00000  Uiso   1.00
H265   H     0.93680   0.83083   0.22480   0.00000  Uiso   1.00
H266   H     0.22412   0.33903   0.23322   0.00000  Uiso   1.00
H267   H     0.04867   0.48246   0.02377   0.00000  Uiso   1.00
O268   O     0.86964   0.67034   0.24931   0.00000  Uiso   1.00
O269   O     0.24660   0.02511   0.26035   0.00000  Uiso   1.00
O270   O     0.01642   0.21328   0.98556   0.00000  Uiso   1.00
N271   N     0.90599   0.43139   0.22749   0.00000  Uiso   1.00
N272   N     0.17462   0.97159   0.23537   0.00000  Uiso   1.00
N273   N     0.01060   0.10566   0.03955   0.00000  Uiso   1.00
N274   N     0.93360   0.69813   0.22268   0.00000  Uiso   1.00
N275   N     0.20222   0.23833   0.23056   0.00000  Uiso   1.00
N276   N     0.03821   0.37240   0.03474   0.00000  Uiso   1.00
C277   C     0.47205   0.64611   0.33211   0.00000  Uiso   1.00
C278   C     0.49892   0.78992   0.31686   0.00000  Uiso   1.00
C279   C     0.53688   0.76225   0.30136   0.00000  Uiso   1.00
C280   C     0.55662   0.91117   0.28902   0.00000  Uiso   1.00
C281   C     0.60100   0.10854   0.26487   0.00000  Uiso   1.00
C282   C     0.42488   0.66320   0.31469   0.00000  Uiso   1.00
C283   C     0.40060   0.52898   0.29736   0.00000  Uiso   1.00
C284   C     0.35801   0.57124   0.28319   0.00000  Uiso   1.00
C285   C     0.28745   0.57184   0.25568   0.00000  Uiso   1.00
C286   C     0.47009   0.70016   0.36865   0.00000  Uiso   1.00
C287   C     0.48381   0.59700   0.39670   0.00000  Uiso   1.00
C288   C     0.47927   0.67036   0.42797   0.00000  Uiso   1.00
C289   C     0.47891   0.72834   0.48425   0.00000  Uiso   1.00
C290   C     0.43958   0.95979   0.33777   0.00000  Uiso   1.00
C291   C     0.48128   0.96029   0.31994   0.00000  Uiso   1.00
C292   C     0.50096   0.10930   0.30762   0.00000  Uiso   1.00
C293   C     0.53895   0.08186   0.29210   0.00000  Uiso   1.00
C294   C     0.40725   0.83357   0.31776   0.00000  Uiso   1.00
C295   C     0.36468   0.87603   0.30362   0.00000  Uiso   1.00
C296   C     0.34034   0.74192   0.28627   0.00000  Uiso   1.00
C297   C     0.45246   0.87054   0.37173   0.00000  Uiso   1.00
C298   C     0.44789   0.94406   0.40296   0.00000  Uiso   1.00
C299   C     0.46161   0.84104   0.43105   0.00000  Uiso   1.00
H300   H     0.48577   0.51346   0.32972   0.00000  Uiso   1.00
H301   H     0.55052   0.63037   0.29898   0.00000  Uiso   1.00
H302   H     0.41426   0.39715   0.29499   0.00000  Uiso   1.00
H303   H     0.49746   0.46516   0.39431   0.00000  Uiso   1.00
H304   H     0.61451   0.83512   0.26626   0.00000  Uiso   1.00
H305   H     0.32719   0.34333   0.25784   0.00000  Uiso   1.00
H306   H     0.50263   0.48675   0.46729   0.00000  Uiso   1.00
H307   H     0.42585   0.09244   0.34016   0.00000  Uiso   1.00
H308   H     0.48731   0.24113   0.31000   0.00000  Uiso   1.00
H309   H     0.35104   0.00789   0.30600   0.00000  Uiso   1.00
H310   H     0.43424   0.07591   0.40533   0.00000  Uiso   1.00
H311   H     0.56320   0.33083   0.27520   0.00000  Uiso   1.00
H312   H     0.27588   0.83903   0.26678   0.00000  Uiso   1.00
H313   H     0.45133   0.98246   0.47623   0.00000  Uiso   1.00
O314   O     0.63036   0.17034   0.25069   0.00000  Uiso   1.00
O315   O     0.25340   0.52511   0.23965   0.00000  Uiso   1.00
O316   O     0.48358   0.71328   0.51444   0.00000  Uiso   1.00
N317   N     0.59401   0.93139   0.27251   0.00000  Uiso   1.00
N318   N     0.32538   0.47159   0.26463   0.00000  Uiso   1.00
N319   N     0.48940   0.60566   0.46045   0.00000  Uiso   1.00
N320   N     0.56640   0.19813   0.27732   0.00000  Uiso   1.00
N321   N     0.29778   0.73833   0.26944   0.00000  Uiso   1.00
N322   N     0.46179   0.87240   0.46526   0.00000  Uiso   1.00
C323   C     0.97205   0.14611   0.33211   0.00000  Uiso   1.00
C324   C     0.99892   0.28992   0.31686   0.00000  Uiso   1.00
C325   C     0.03688   0.26225   0.30136   0.00000  Uiso   1.00
C326   C     0.05662   0.41117   0.28902   0.00000  Uiso   1.00
C327   C     0.10100   0.60854   0.26487   0.00000  Uiso   1.00
C328   C     0.92488   0.16320   0.31469   0.00000  Uiso   1.00
C329   C     0.90060   0.02898   0.29736   0.00000  Uiso   1.00
C330   C     0.85801   0.07124   0.28319   0.00000  Uiso   1.00
C331   C     0.78745   0.07184   0.25568   0.00000  Uiso   1.00
C332   C     0.97009   0.20016   0.36865   0.00000  Uiso   1.00
C333   C     0.98381   0.09700   0.39670   0.00000  Uiso   1.00
C334   C     0.97927   0.17036   0.42797   0.00000  Uiso   1.00
C335   C     0.97891   0.22834   0.48425   0.00000  Uiso   1.00
C336   C     0.93958   0.45979   0.33777   0.00000  Uiso   1.00
C337   C     0.98128   0.46029   0.31994   0.00000  Uiso   1.00
C338   C     0.00096   0.60930   0.30762   0.00000  Uiso   1.00
C339   C     0.03895   0.58186   0.29210   0.00000  Uiso   1.00
C340   C     0.90725   0.33357   0.31776   0.00000  Uiso   1.00
C341   C     0.86468   0.37603   0.30362   0.00000  Uiso   1.00
C342   C     0.84034   0.24192   0.28627   0.00000  Uiso   1.00
C343   C     0.95246   0.37054   0.37173   0.00000  Uiso   1.00
C344   C     0.94789   0.44406   0.40296   0.00000  Uiso   1.00
C345   C     0.96161   0.34104   0.43105   0.00000  Uiso   1.00
H346   H     0.98577   0.01346   0.32972   0.00000  Uiso   1.00
H347   H     0.05052   0.13037   0.29898   0.00000  Uiso   1.00
H348   H     0.91426   0.89715   0.29499   0.00000  Uiso   1.00
H349   H     0.99746   0.96516   0.39431   0.00000  Uiso   1.00
H350   H     0.11451   0.33512   0.26626   0.00000  Uiso   1.00
H351   H     0.82719   0.84333   0.25784   0.00000  Uiso   1.00
H352   H     0.00263   0.98675   0.46729   0.00000  Uiso   1.00
H353   H     0.92585   0.59244   0.34016   0.00000  Uiso   1.00
H354   H     0.98731   0.74113   0.31000   0.00000  Uiso   1.00
H355   H     0.85104   0.50789   0.30600   0.00000  Uiso   1.00
H356   H     0.93424   0.57591   0.40533   0.00000  Uiso   1.00
H357   H     0.06320   0.83083   0.27520   0.00000  Uiso   1.00
H358   H     0.77588   0.33903   0.26678   0.00000  Uiso   1.00
H359   H     0.95133   0.48246   0.47623   0.00000  Uiso   1.00
O360   O     0.13036   0.67034   0.25069   0.00000  Uiso   1.00
O361   O     0.75340   0.02511   0.23965   0.00000  Uiso   1.00
O362   O     0.98358   0.21328   0.51444   0.00000  Uiso   1.00
N363   N     0.09401   0.43139   0.27251   0.00000  Uiso   1.00
N364   N     0.82538   0.97159   0.26463   0.00000  Uiso   1.00
N365   N     0.98940   0.10566   0.46045   0.00000  Uiso   1.00
N366   N     0.06640   0.69813   0.27732   0.00000  Uiso   1.00
N367   N     0.79778   0.23833   0.26944   0.00000  Uiso   1.00
N368   N     0.96179   0.37240   0.46526   0.00000  Uiso   1.00
