data_job_03530
_audit_creation_date              2018-12-19
_audit_creation_method            'Materials Studio'
_symmetry_space_group_name_H-M    'P1'
_symmetry_Int_Tables_number       1
_symmetry_cell_setting            triclinic
loop_
_symmetry_equiv_pos_as_xyz
  x,y,z
_cell_length_a                    20.0086
_cell_length_b                    12.5643
_cell_length_c                    19.7058
_cell_angle_alpha                 90.0000
_cell_angle_beta                  90.0000
_cell_angle_gamma                 90.0000
loop_
_atom_site_label
_atom_site_type_symbol
_atom_site_fract_x
_atom_site_fract_y
_atom_site_fract_z
_atom_site_U_iso_or_equiv
_atom_site_adp_type
_atom_site_occupancy
C1     C     0.71563   0.00006   0.21375   0.00000  Uiso   1.00
C2     C     0.67889   0.10433   0.22705   0.00000  Uiso   1.00
C3     C     0.68514   0.16689   0.28474   0.00000  Uiso   1.00
C4     C     0.64724   0.25937   0.28724   0.00000  Uiso   1.00
C5     C     0.59665   0.41686   0.31602   0.00000  Uiso   1.00
C6     C     0.66165   0.91707   0.20016   0.00000  Uiso   1.00
C7     C     0.65342   0.82218   0.23523   0.00000  Uiso   1.00
C8     C     0.60101   0.75702   0.21507   0.00000  Uiso   1.00
C9     C     0.52368   0.62376   0.20207   0.00000  Uiso   1.00
C10    C     0.75260   0.01508   0.14676   0.00000  Uiso   1.00
C11    C     0.82083   0.00258   0.13693   0.00000  Uiso   1.00
C12    C     0.84499   0.01992   0.07181   0.00000  Uiso   1.00
C13    C     0.90888   0.03884   0.97590   0.00000  Uiso   1.00
C14    C     0.63721   0.05305   0.11558   0.00000  Uiso   1.00
C15    C     0.63629   0.13310   0.17373   0.00000  Uiso   1.00
C16    C     0.59837   0.22551   0.17613   0.00000  Uiso   1.00
C17    C     0.60457   0.28820   0.23382   0.00000  Uiso   1.00
C18    C     0.61906   0.94585   0.14684   0.00000  Uiso   1.00
C19    C     0.56665   0.88081   0.12662   0.00000  Uiso   1.00
C20    C     0.55833   0.78585   0.16165   0.00000  Uiso   1.00
C21    C     0.71001   0.04387   0.09344   0.00000  Uiso   1.00
C22    C     0.73407   0.06121   0.02832   0.00000  Uiso   1.00
C23    C     0.80232   0.04875   0.01839   0.00000  Uiso   1.00
H24    H     0.74879   0.97764   0.25526   0.00000  Uiso   1.00
H25    H     0.71811   0.14458   0.32600   0.00000  Uiso   1.00
H26    H     0.68639   0.79993   0.27648   0.00000  Uiso   1.00
H27    H     0.85378   0.98031   0.17820   0.00000  Uiso   1.00
H28    H     0.66528   0.34234   0.38093   0.00000  Uiso   1.00
H29    H     0.59843   0.61559   0.27651   0.00000  Uiso   1.00
H30    H     0.95140   0.99595   0.06926   0.00000  Uiso   1.00
H31    H     0.60404   0.07545   0.07407   0.00000  Uiso   1.00
H32    H     0.56542   0.24776   0.13486   0.00000  Uiso   1.00
H33    H     0.53370   0.90310   0.08535   0.00000  Uiso   1.00
H34    H     0.70109   0.08348   0.98707   0.00000  Uiso   1.00
H35    H     0.54135   0.42608   0.22580   0.00000  Uiso   1.00
H36    H     0.47449   0.69933   0.12137   0.00000  Uiso   1.00
H37    H     0.82746   0.07970   0.91413   0.00000  Uiso   1.00
O38    O     0.58050   0.49578   0.34663   0.00000  Uiso   1.00
O39    O     0.49280   0.54231   0.20963   0.00000  Uiso   1.00
O40    O     0.95588   0.04134   0.93773   0.00000  Uiso   1.00
N41    N     0.64143   0.33841   0.33607   0.00000  Uiso   1.00
N42    N     0.57891   0.65895   0.23845   0.00000  Uiso   1.00
N43    N     0.90891   0.01453   0.04469   0.00000  Uiso   1.00
N44    N     0.57474   0.38347   0.25259   0.00000  Uiso   1.00
N45    N     0.51223   0.70402   0.15497   0.00000  Uiso   1.00
N46    N     0.84222   0.05960   0.96121   0.00000  Uiso   1.00
C47    C     0.78437   0.49994   0.21375   0.00000  Uiso   1.00
C48    C     0.82111   0.39567   0.22705   0.00000  Uiso   1.00
C49    C     0.81486   0.33311   0.28474   0.00000  Uiso   1.00
C50    C     0.85276   0.24063   0.28724   0.00000  Uiso   1.00
C51    C     0.90335   0.08314   0.31602   0.00000  Uiso   1.00
C52    C     0.83835   0.58293   0.20016   0.00000  Uiso   1.00
C53    C     0.84658   0.67782   0.23523   0.00000  Uiso   1.00
C54    C     0.89899   0.74298   0.21507   0.00000  Uiso   1.00
C55    C     0.97632   0.87624   0.20207   0.00000  Uiso   1.00
C56    C     0.74740   0.48492   0.14676   0.00000  Uiso   1.00
C57    C     0.67917   0.49742   0.13693   0.00000  Uiso   1.00
C58    C     0.65501   0.48008   0.07181   0.00000  Uiso   1.00
C59    C     0.59112   0.46116   0.97590   0.00000  Uiso   1.00
C60    C     0.86279   0.44695   0.11558   0.00000  Uiso   1.00
C61    C     0.86371   0.36690   0.17373   0.00000  Uiso   1.00
C62    C     0.90163   0.27449   0.17613   0.00000  Uiso   1.00
C63    C     0.89543   0.21180   0.23382   0.00000  Uiso   1.00
C64    C     0.88094   0.55415   0.14684   0.00000  Uiso   1.00
C65    C     0.93335   0.61919   0.12662   0.00000  Uiso   1.00
C66    C     0.94167   0.71415   0.16165   0.00000  Uiso   1.00
C67    C     0.78999   0.45613   0.09344   0.00000  Uiso   1.00
C68    C     0.76593   0.43879   0.02832   0.00000  Uiso   1.00
C69    C     0.69768   0.45125   0.01839   0.00000  Uiso   1.00
H70    H     0.75121   0.52236   0.25526   0.00000  Uiso   1.00
H71    H     0.78189   0.35542   0.32600   0.00000  Uiso   1.00
H72    H     0.81361   0.70007   0.27648   0.00000  Uiso   1.00
H73    H     0.64622   0.51969   0.17820   0.00000  Uiso   1.00
H74    H     0.83472   0.15766   0.38093   0.00000  Uiso   1.00
H75    H     0.90157   0.88441   0.27651   0.00000  Uiso   1.00
H76    H     0.54860   0.50405   0.06926   0.00000  Uiso   1.00
H77    H     0.89596   0.42455   0.07407   0.00000  Uiso   1.00
H78    H     0.93459   0.25224   0.13486   0.00000  Uiso   1.00
H79    H     0.96630   0.59690   0.08535   0.00000  Uiso   1.00
H80    H     0.79891   0.41652   0.98707   0.00000  Uiso   1.00
H81    H     0.95865   0.07392   0.22580   0.00000  Uiso   1.00
H82    H     0.02551   0.80067   0.12137   0.00000  Uiso   1.00
H83    H     0.67254   0.42030   0.91413   0.00000  Uiso   1.00
O84    O     0.91950   0.00422   0.34663   0.00000  Uiso   1.00
O85    O     0.00720   0.95769   0.20963   0.00000  Uiso   1.00
O86    O     0.54412   0.45866   0.93773   0.00000  Uiso   1.00
N87    N     0.85857   0.16159   0.33607   0.00000  Uiso   1.00
N88    N     0.92109   0.84105   0.23845   0.00000  Uiso   1.00
N89    N     0.59109   0.48547   0.04469   0.00000  Uiso   1.00
N90    N     0.92526   0.11653   0.25259   0.00000  Uiso   1.00
N91    N     0.98777   0.79598   0.15497   0.00000  Uiso   1.00
N92    N     0.65778   0.44040   0.96121   0.00000  Uiso   1.00
C93    C     0.28437   0.50006   0.28625   0.00000  Uiso   1.00
C94    C     0.32111   0.60433   0.27295   0.00000  Uiso   1.00
C95    C     0.31486   0.66689   0.21526   0.00000  Uiso   1.00
C96    C     0.35276   0.75937   0.21276   0.00000  Uiso   1.00
C97    C     0.40335   0.91686   0.18398   0.00000  Uiso   1.00
C98    C     0.33835   0.41707   0.29984   0.00000  Uiso   1.00
C99    C     0.34658   0.32218   0.26477   0.00000  Uiso   1.00
C100   C     0.39899   0.25702   0.28493   0.00000  Uiso   1.00
C101   C     0.47632   0.12376   0.29793   0.00000  Uiso   1.00
C102   C     0.24740   0.51508   0.35324   0.00000  Uiso   1.00
C103   C     0.17917   0.50258   0.36307   0.00000  Uiso   1.00
C104   C     0.15501   0.51992   0.42819   0.00000  Uiso   1.00
C105   C     0.09112   0.53884   0.52410   0.00000  Uiso   1.00
C106   C     0.36279   0.55305   0.38442   0.00000  Uiso   1.00
C107   C     0.36371   0.63310   0.32627   0.00000  Uiso   1.00
C108   C     0.40163   0.72551   0.32387   0.00000  Uiso   1.00
C109   C     0.39543   0.78820   0.26618   0.00000  Uiso   1.00
C110   C     0.38094   0.44585   0.35316   0.00000  Uiso   1.00
C111   C     0.43335   0.38081   0.37338   0.00000  Uiso   1.00
C112   C     0.44167   0.28585   0.33835   0.00000  Uiso   1.00
C113   C     0.28999   0.54387   0.40656   0.00000  Uiso   1.00
C114   C     0.26593   0.56121   0.47168   0.00000  Uiso   1.00
C115   C     0.19768   0.54875   0.48161   0.00000  Uiso   1.00
H116   H     0.25121   0.47764   0.24474   0.00000  Uiso   1.00
H117   H     0.28189   0.64458   0.17400   0.00000  Uiso   1.00
H118   H     0.31361   0.29993   0.22352   0.00000  Uiso   1.00
H119   H     0.14622   0.48031   0.32180   0.00000  Uiso   1.00
H120   H     0.33472   0.84234   0.11907   0.00000  Uiso   1.00
H121   H     0.40157   0.11559   0.22349   0.00000  Uiso   1.00
H122   H     0.04860   0.49595   0.43074   0.00000  Uiso   1.00
H123   H     0.39596   0.57545   0.42593   0.00000  Uiso   1.00
H124   H     0.43459   0.74776   0.36514   0.00000  Uiso   1.00
H125   H     0.46630   0.40310   0.41465   0.00000  Uiso   1.00
H126   H     0.29891   0.58348   0.51293   0.00000  Uiso   1.00
H127   H     0.45865   0.92608   0.27420   0.00000  Uiso   1.00
H128   H     0.52551   0.19933   0.37863   0.00000  Uiso   1.00
H129   H     0.17254   0.57970   0.58587   0.00000  Uiso   1.00
O130   O     0.41950   0.99578   0.15337   0.00000  Uiso   1.00
O131   O     0.50720   0.04231   0.29037   0.00000  Uiso   1.00
O132   O     0.04412   0.54134   0.56227   0.00000  Uiso   1.00
N133   N     0.35857   0.83841   0.16393   0.00000  Uiso   1.00
N134   N     0.42109   0.15895   0.26155   0.00000  Uiso   1.00
N135   N     0.09109   0.51453   0.45531   0.00000  Uiso   1.00
N136   N     0.42526   0.88347   0.24741   0.00000  Uiso   1.00
N137   N     0.48777   0.20402   0.34503   0.00000  Uiso   1.00
N138   N     0.15778   0.55960   0.53879   0.00000  Uiso   1.00
C139   C     0.21563   0.99994   0.28625   0.00000  Uiso   1.00
C140   C     0.17889   0.89567   0.27295   0.00000  Uiso   1.00
C141   C     0.18514   0.83311   0.21526   0.00000  Uiso   1.00
C142   C     0.14724   0.74063   0.21276   0.00000  Uiso   1.00
C143   C     0.09665   0.58314   0.18398   0.00000  Uiso   1.00
C144   C     0.16165   0.08293   0.29984   0.00000  Uiso   1.00
C145   C     0.15342   0.17782   0.26477   0.00000  Uiso   1.00
C146   C     0.10101   0.24298   0.28493   0.00000  Uiso   1.00
C147   C     0.02368   0.37624   0.29793   0.00000  Uiso   1.00
C148   C     0.25260   0.98492   0.35324   0.00000  Uiso   1.00
C149   C     0.32083   0.99742   0.36307   0.00000  Uiso   1.00
C150   C     0.34499   0.98008   0.42819   0.00000  Uiso   1.00
C151   C     0.40888   0.96116   0.52410   0.00000  Uiso   1.00
C152   C     0.13721   0.94695   0.38442   0.00000  Uiso   1.00
C153   C     0.13629   0.86690   0.32627   0.00000  Uiso   1.00
C154   C     0.09837   0.77449   0.32387   0.00000  Uiso   1.00
C155   C     0.10457   0.71180   0.26618   0.00000  Uiso   1.00
C156   C     0.11906   0.05415   0.35316   0.00000  Uiso   1.00
C157   C     0.06665   0.11919   0.37338   0.00000  Uiso   1.00
C158   C     0.05833   0.21415   0.33835   0.00000  Uiso   1.00
C159   C     0.21001   0.95613   0.40656   0.00000  Uiso   1.00
C160   C     0.23407   0.93879   0.47168   0.00000  Uiso   1.00
C161   C     0.30232   0.95125   0.48161   0.00000  Uiso   1.00
H162   H     0.24879   0.02236   0.24474   0.00000  Uiso   1.00
H163   H     0.21811   0.85542   0.17400   0.00000  Uiso   1.00
H164   H     0.18639   0.20007   0.22352   0.00000  Uiso   1.00
H165   H     0.35378   0.01969   0.32180   0.00000  Uiso   1.00
H166   H     0.16528   0.65766   0.11907   0.00000  Uiso   1.00
H167   H     0.09843   0.38441   0.22349   0.00000  Uiso   1.00
H168   H     0.45140   0.00405   0.43074   0.00000  Uiso   1.00
H169   H     0.10404   0.92455   0.42593   0.00000  Uiso   1.00
H170   H     0.06542   0.75224   0.36514   0.00000  Uiso   1.00
H171   H     0.03370   0.09690   0.41465   0.00000  Uiso   1.00
H172   H     0.20109   0.91652   0.51293   0.00000  Uiso   1.00
H173   H     0.04135   0.57392   0.27420   0.00000  Uiso   1.00
H174   H     0.97449   0.30067   0.37863   0.00000  Uiso   1.00
H175   H     0.32746   0.92030   0.58587   0.00000  Uiso   1.00
O176   O     0.08050   0.50422   0.15337   0.00000  Uiso   1.00
O177   O     0.99280   0.45769   0.29037   0.00000  Uiso   1.00
O178   O     0.45588   0.95866   0.56227   0.00000  Uiso   1.00
N179   N     0.14143   0.66159   0.16393   0.00000  Uiso   1.00
N180   N     0.07891   0.34105   0.26155   0.00000  Uiso   1.00
N181   N     0.40891   0.98547   0.45531   0.00000  Uiso   1.00
N182   N     0.07474   0.61653   0.24741   0.00000  Uiso   1.00
N183   N     0.01223   0.29598   0.34503   0.00000  Uiso   1.00
N184   N     0.34222   0.94040   0.53879   0.00000  Uiso   1.00
C185   C     0.28437   0.99994   0.78625   0.00000  Uiso   1.00
C186   C     0.32111   0.89567   0.77295   0.00000  Uiso   1.00
C187   C     0.31486   0.83311   0.71526   0.00000  Uiso   1.00
C188   C     0.35276   0.74063   0.71276   0.00000  Uiso   1.00
C189   C     0.40335   0.58314   0.68398   0.00000  Uiso   1.00
C190   C     0.33835   0.08293   0.79984   0.00000  Uiso   1.00
C191   C     0.34658   0.17782   0.76477   0.00000  Uiso   1.00
C192   C     0.39899   0.24298   0.78493   0.00000  Uiso   1.00
C193   C     0.47632   0.37624   0.79793   0.00000  Uiso   1.00
C194   C     0.24740   0.98492   0.85324   0.00000  Uiso   1.00
C195   C     0.17917   0.99742   0.86307   0.00000  Uiso   1.00
C196   C     0.15501   0.98008   0.92819   0.00000  Uiso   1.00
C197   C     0.09112   0.96116   0.02410   0.00000  Uiso   1.00
C198   C     0.36279   0.94695   0.88442   0.00000  Uiso   1.00
C199   C     0.36371   0.86690   0.82627   0.00000  Uiso   1.00
C200   C     0.40163   0.77449   0.82387   0.00000  Uiso   1.00
C201   C     0.39543   0.71180   0.76618   0.00000  Uiso   1.00
C202   C     0.38094   0.05415   0.85316   0.00000  Uiso   1.00
C203   C     0.43335   0.11919   0.87338   0.00000  Uiso   1.00
C204   C     0.44167   0.21415   0.83835   0.00000  Uiso   1.00
C205   C     0.28999   0.95613   0.90656   0.00000  Uiso   1.00
C206   C     0.26593   0.93879   0.97168   0.00000  Uiso   1.00
C207   C     0.19768   0.95125   0.98161   0.00000  Uiso   1.00
H208   H     0.25121   0.02236   0.74474   0.00000  Uiso   1.00
H209   H     0.28189   0.85542   0.67400   0.00000  Uiso   1.00
H210   H     0.31361   0.20007   0.72352   0.00000  Uiso   1.00
H211   H     0.14622   0.01969   0.82180   0.00000  Uiso   1.00
H212   H     0.33472   0.65766   0.61907   0.00000  Uiso   1.00
H213   H     0.40157   0.38441   0.72349   0.00000  Uiso   1.00
H214   H     0.04860   0.00405   0.93074   0.00000  Uiso   1.00
H215   H     0.39596   0.92455   0.92593   0.00000  Uiso   1.00
H216   H     0.43459   0.75224   0.86514   0.00000  Uiso   1.00
H217   H     0.46630   0.09690   0.91465   0.00000  Uiso   1.00
H218   H     0.29891   0.91652   0.01293   0.00000  Uiso   1.00
H219   H     0.45865   0.57392   0.77420   0.00000  Uiso   1.00
H220   H     0.52551   0.30067   0.87863   0.00000  Uiso   1.00
H221   H     0.17254   0.92030   0.08587   0.00000  Uiso   1.00
O222   O     0.41950   0.50422   0.65337   0.00000  Uiso   1.00
O223   O     0.50720   0.45769   0.79037   0.00000  Uiso   1.00
O224   O     0.04412   0.95866   0.06227   0.00000  Uiso   1.00
N225   N     0.35857   0.66159   0.66393   0.00000  Uiso   1.00
N226   N     0.42109   0.34105   0.76155   0.00000  Uiso   1.00
N227   N     0.09109   0.98547   0.95531   0.00000  Uiso   1.00
N228   N     0.42526   0.61653   0.74741   0.00000  Uiso   1.00
N229   N     0.48777   0.29598   0.84503   0.00000  Uiso   1.00
N230   N     0.15778   0.94040   0.03879   0.00000  Uiso   1.00
C231   C     0.21563   0.50006   0.78625   0.00000  Uiso   1.00
C232   C     0.17889   0.60433   0.77295   0.00000  Uiso   1.00
C233   C     0.18514   0.66689   0.71526   0.00000  Uiso   1.00
C234   C     0.14724   0.75937   0.71276   0.00000  Uiso   1.00
C235   C     0.09665   0.91686   0.68398   0.00000  Uiso   1.00
C236   C     0.16165   0.41707   0.79984   0.00000  Uiso   1.00
C237   C     0.15342   0.32218   0.76477   0.00000  Uiso   1.00
C238   C     0.10101   0.25702   0.78493   0.00000  Uiso   1.00
C239   C     0.02368   0.12376   0.79793   0.00000  Uiso   1.00
C240   C     0.25260   0.51508   0.85324   0.00000  Uiso   1.00
C241   C     0.32083   0.50258   0.86307   0.00000  Uiso   1.00
C242   C     0.34499   0.51992   0.92819   0.00000  Uiso   1.00
C243   C     0.40888   0.53884   0.02410   0.00000  Uiso   1.00
C244   C     0.13721   0.55305   0.88442   0.00000  Uiso   1.00
C245   C     0.13629   0.63310   0.82627   0.00000  Uiso   1.00
C246   C     0.09837   0.72551   0.82387   0.00000  Uiso   1.00
C247   C     0.10457   0.78820   0.76618   0.00000  Uiso   1.00
C248   C     0.11906   0.44585   0.85316   0.00000  Uiso   1.00
C249   C     0.06665   0.38081   0.87338   0.00000  Uiso   1.00
C250   C     0.05833   0.28585   0.83835   0.00000  Uiso   1.00
C251   C     0.21001   0.54387   0.90656   0.00000  Uiso   1.00
C252   C     0.23407   0.56121   0.97168   0.00000  Uiso   1.00
C253   C     0.30232   0.54875   0.98161   0.00000  Uiso   1.00
H254   H     0.24879   0.47764   0.74474   0.00000  Uiso   1.00
H255   H     0.21811   0.64458   0.67400   0.00000  Uiso   1.00
H256   H     0.18639   0.29993   0.72352   0.00000  Uiso   1.00
H257   H     0.35378   0.48031   0.82180   0.00000  Uiso   1.00
H258   H     0.16528   0.84234   0.61907   0.00000  Uiso   1.00
H259   H     0.09843   0.11559   0.72349   0.00000  Uiso   1.00
H260   H     0.45140   0.49595   0.93074   0.00000  Uiso   1.00
H261   H     0.10404   0.57545   0.92593   0.00000  Uiso   1.00
H262   H     0.06542   0.74776   0.86514   0.00000  Uiso   1.00
H263   H     0.03370   0.40310   0.91465   0.00000  Uiso   1.00
H264   H     0.20109   0.58348   0.01293   0.00000  Uiso   1.00
H265   H     0.04135   0.92608   0.77420   0.00000  Uiso   1.00
H266   H     0.97449   0.19933   0.87863   0.00000  Uiso   1.00
H267   H     0.32746   0.57970   0.08587   0.00000  Uiso   1.00
O268   O     0.08050   0.99578   0.65337   0.00000  Uiso   1.00
O269   O     0.99280   0.04231   0.79037   0.00000  Uiso   1.00
O270   O     0.45588   0.54134   0.06227   0.00000  Uiso   1.00
N271   N     0.14143   0.83841   0.66393   0.00000  Uiso   1.00
N272   N     0.07891   0.15895   0.76155   0.00000  Uiso   1.00
N273   N     0.40891   0.51453   0.95531   0.00000  Uiso   1.00
N274   N     0.07474   0.88347   0.74741   0.00000  Uiso   1.00
N275   N     0.01223   0.20402   0.84503   0.00000  Uiso   1.00
N276   N     0.34222   0.55960   0.03879   0.00000  Uiso   1.00
C277   C     0.71563   0.49994   0.71375   0.00000  Uiso   1.00
C278   C     0.67889   0.39567   0.72705   0.00000  Uiso   1.00
C279   C     0.68514   0.33311   0.78474   0.00000  Uiso   1.00
C280   C     0.64724   0.24063   0.78724   0.00000  Uiso   1.00
C281   C     0.59665   0.08314   0.81602   0.00000  Uiso   1.00
C282   C     0.66165   0.58293   0.70016   0.00000  Uiso   1.00
C283   C     0.65342   0.67782   0.73523   0.00000  Uiso   1.00
C284   C     0.60101   0.74298   0.71507   0.00000  Uiso   1.00
C285   C     0.52368   0.87624   0.70207   0.00000  Uiso   1.00
C286   C     0.75260   0.48492   0.64676   0.00000  Uiso   1.00
C287   C     0.82083   0.49742   0.63693   0.00000  Uiso   1.00
C288   C     0.84499   0.48008   0.57181   0.00000  Uiso   1.00
C289   C     0.90888   0.46116   0.47590   0.00000  Uiso   1.00
C290   C     0.63721   0.44695   0.61558   0.00000  Uiso   1.00
C291   C     0.63629   0.36690   0.67373   0.00000  Uiso   1.00
C292   C     0.59837   0.27449   0.67613   0.00000  Uiso   1.00
C293   C     0.60457   0.21180   0.73382   0.00000  Uiso   1.00
C294   C     0.61906   0.55415   0.64684   0.00000  Uiso   1.00
C295   C     0.56665   0.61919   0.62662   0.00000  Uiso   1.00
C296   C     0.55833   0.71415   0.66165   0.00000  Uiso   1.00
C297   C     0.71001   0.45613   0.59344   0.00000  Uiso   1.00
C298   C     0.73407   0.43879   0.52832   0.00000  Uiso   1.00
C299   C     0.80232   0.45125   0.51839   0.00000  Uiso   1.00
H300   H     0.74879   0.52236   0.75526   0.00000  Uiso   1.00
H301   H     0.71811   0.35542   0.82600   0.00000  Uiso   1.00
H302   H     0.68639   0.70007   0.77648   0.00000  Uiso   1.00
H303   H     0.85378   0.51969   0.67820   0.00000  Uiso   1.00
H304   H     0.66528   0.15766   0.88093   0.00000  Uiso   1.00
H305   H     0.59843   0.88441   0.77651   0.00000  Uiso   1.00
H306   H     0.95140   0.50405   0.56926   0.00000  Uiso   1.00
H307   H     0.60404   0.42455   0.57407   0.00000  Uiso   1.00
H308   H     0.56542   0.25224   0.63486   0.00000  Uiso   1.00
H309   H     0.53370   0.59690   0.58535   0.00000  Uiso   1.00
H310   H     0.70109   0.41652   0.48707   0.00000  Uiso   1.00
H311   H     0.54135   0.07392   0.72580   0.00000  Uiso   1.00
H312   H     0.47449   0.80067   0.62137   0.00000  Uiso   1.00
H313   H     0.82746   0.42030   0.41413   0.00000  Uiso   1.00
O314   O     0.58050   0.00422   0.84663   0.00000  Uiso   1.00
O315   O     0.49280   0.95769   0.70963   0.00000  Uiso   1.00
O316   O     0.95588   0.45866   0.43773   0.00000  Uiso   1.00
N317   N     0.64143   0.16159   0.83607   0.00000  Uiso   1.00
N318   N     0.57891   0.84105   0.73845   0.00000  Uiso   1.00
N319   N     0.90891   0.48547   0.54469   0.00000  Uiso   1.00
N320   N     0.57474   0.11653   0.75259   0.00000  Uiso   1.00
N321   N     0.51223   0.79598   0.65497   0.00000  Uiso   1.00
N322   N     0.84222   0.44040   0.46121   0.00000  Uiso   1.00
C323   C     0.78437   0.00006   0.71375   0.00000  Uiso   1.00
C324   C     0.82111   0.10433   0.72705   0.00000  Uiso   1.00
C325   C     0.81486   0.16689   0.78474   0.00000  Uiso   1.00
C326   C     0.85276   0.25937   0.78724   0.00000  Uiso   1.00
C327   C     0.90335   0.41686   0.81602   0.00000  Uiso   1.00
C328   C     0.83835   0.91707   0.70016   0.00000  Uiso   1.00
C329   C     0.84658   0.82218   0.73523   0.00000  Uiso   1.00
C330   C     0.89899   0.75702   0.71507   0.00000  Uiso   1.00
C331   C     0.97632   0.62376   0.70207   0.00000  Uiso   1.00
C332   C     0.74740   0.01508   0.64676   0.00000  Uiso   1.00
C333   C     0.67917   0.00258   0.63693   0.00000  Uiso   1.00
C334   C     0.65501   0.01992   0.57181   0.00000  Uiso   1.00
C335   C     0.59112   0.03884   0.47590   0.00000  Uiso   1.00
C336   C     0.86279   0.05305   0.61558   0.00000  Uiso   1.00
C337   C     0.86371   0.13310   0.67373   0.00000  Uiso   1.00
C338   C     0.90163   0.22551   0.67613   0.00000  Uiso   1.00
C339   C     0.89543   0.28820   0.73382   0.00000  Uiso   1.00
C340   C     0.88094   0.94585   0.64684   0.00000  Uiso   1.00
C341   C     0.93335   0.88081   0.62662   0.00000  Uiso   1.00
C342   C     0.94167   0.78585   0.66165   0.00000  Uiso   1.00
C343   C     0.78999   0.04387   0.59344   0.00000  Uiso   1.00
C344   C     0.76593   0.06121   0.52832   0.00000  Uiso   1.00
C345   C     0.69768   0.04875   0.51839   0.00000  Uiso   1.00
H346   H     0.75121   0.97764   0.75526   0.00000  Uiso   1.00
H347   H     0.78189   0.14458   0.82600   0.00000  Uiso   1.00
H348   H     0.81361   0.79993   0.77648   0.00000  Uiso   1.00
H349   H     0.64622   0.98031   0.67820   0.00000  Uiso   1.00
H350   H     0.83472   0.34234   0.88093   0.00000  Uiso   1.00
H351   H     0.90157   0.61559   0.77651   0.00000  Uiso   1.00
H352   H     0.54860   0.99595   0.56926   0.00000  Uiso   1.00
H353   H     0.89596   0.07545   0.57407   0.00000  Uiso   1.00
H354   H     0.93459   0.24776   0.63486   0.00000  Uiso   1.00
H355   H     0.96630   0.90310   0.58535   0.00000  Uiso   1.00
H356   H     0.79891   0.08348   0.48707   0.00000  Uiso   1.00
H357   H     0.95865   0.42608   0.72580   0.00000  Uiso   1.00
H358   H     0.02551   0.69933   0.62137   0.00000  Uiso   1.00
H359   H     0.67254   0.07970   0.41413   0.00000  Uiso   1.00
O360   O     0.91950   0.49578   0.84663   0.00000  Uiso   1.00
O361   O     0.00720   0.54231   0.70963   0.00000  Uiso   1.00
O362   O     0.54412   0.04134   0.43773   0.00000  Uiso   1.00
N363   N     0.85857   0.33841   0.83607   0.00000  Uiso   1.00
N364   N     0.92109   0.65895   0.73845   0.00000  Uiso   1.00
N365   N     0.59109   0.01453   0.54469   0.00000  Uiso   1.00
N366   N     0.92526   0.38347   0.75259   0.00000  Uiso   1.00
N367   N     0.98777   0.70402   0.65497   0.00000  Uiso   1.00
N368   N     0.65778   0.05960   0.46121   0.00000  Uiso   1.00
