data_job_06635
_audit_creation_date              2018-12-19
_audit_creation_method            'Materials Studio'
_symmetry_space_group_name_H-M    'P1'
_symmetry_Int_Tables_number       1
_symmetry_cell_setting            triclinic
loop_
_symmetry_equiv_pos_as_xyz
  x,y,z
_cell_length_a                    18.2993
_cell_length_b                    20.2069
_cell_length_c                    23.7924
_cell_angle_alpha                 65.9500
_cell_angle_beta                  91.5324
_cell_angle_gamma                 73.5460
loop_
_atom_site_label
_atom_site_type_symbol
_atom_site_fract_x
_atom_site_fract_y
_atom_site_fract_z
_atom_site_U_iso_or_equiv
_atom_site_adp_type
_atom_site_occupancy
C1     C     0.51887   0.72976   0.94596   0.00000  Uiso   1.00
C2     C     0.45972   0.80768   0.90515   0.00000  Uiso   1.00
C3     C     0.38012   0.82555   0.90069   0.00000  Uiso   1.00
C4     C     0.33593   0.90007   0.86073   0.00000  Uiso   1.00
C5     C     0.23888   0.01273   0.80255   0.00000  Uiso   1.00
C6     C     0.56818   0.70680   0.90211   0.00000  Uiso   1.00
C7     C     0.57978   0.63984   0.89511   0.00000  Uiso   1.00
C8     C     0.62689   0.62944   0.85260   0.00000  Uiso   1.00
C9     C     0.69827   0.58546   0.78974   0.00000  Uiso   1.00
C10    C     0.57192   0.74373   0.98740   0.00000  Uiso   1.00
C11    C     0.58668   0.70782   0.05211   0.00000  Uiso   1.00
C12    C     0.63696   0.72850   0.08141   0.00000  Uiso   1.00
C13    C     0.71414   0.74186   0.15097   0.00000  Uiso   1.00
C14    C     0.58193   0.83033   0.88292   0.00000  Uiso   1.00
C15    C     0.49398   0.86230   0.87091   0.00000  Uiso   1.00
C16    C     0.44989   0.93682   0.83095   0.00000  Uiso   1.00
C17    C     0.37024   0.95479   0.82643   0.00000  Uiso   1.00
C18    C     0.60243   0.76142   0.86787   0.00000  Uiso   1.00
C19    C     0.64954   0.75111   0.82537   0.00000  Uiso   1.00
C20    C     0.66121   0.68416   0.81830   0.00000  Uiso   1.00
C21    C     0.60617   0.79836   0.95316   0.00000  Uiso   1.00
C22    C     0.65644   0.81909   0.98236   0.00000  Uiso   1.00
C23    C     0.67127   0.78322   0.04710   0.00000  Uiso   1.00
H24    H     0.49220   0.68723   0.97261   0.00000  Uiso   1.00
H25    H     0.35364   0.78326   0.92719   0.00000  Uiso   1.00
H26    H     0.55327   0.59758   0.92162   0.00000  Uiso   1.00
H27    H     0.56016   0.66555   0.07859   0.00000  Uiso   1.00
H28    H     0.21512   0.91380   0.86172   0.00000  Uiso   1.00
H29    H     0.63606   0.52228   0.84998   0.00000  Uiso   1.00
H30    H     0.65061   0.66559   0.18099   0.00000  Uiso   1.00
H31    H     0.60860   0.87286   0.85626   0.00000  Uiso   1.00
H32    H     0.47641   0.97907   0.80445   0.00000  Uiso   1.00
H33    H     0.67604   0.79339   0.79888   0.00000  Uiso   1.00
H34    H     0.68294   0.86136   0.95585   0.00000  Uiso   1.00
H35    H     0.31477   0.07273   0.76210   0.00000  Uiso   1.00
H36    H     0.73572   0.68120   0.75036   0.00000  Uiso   1.00
H37    H     0.75026   0.82453   0.08137   0.00000  Uiso   1.00
O38    O     0.17589   0.05978   0.77992   0.00000  Uiso   1.00
O39    O     0.72817   0.54611   0.76453   0.00000  Uiso   1.00
O40    O     0.74724   0.73414   0.19880   0.00000  Uiso   1.00
N41    N     0.25671   0.93663   0.84539   0.00000  Uiso   1.00
N42    N     0.65026   0.57058   0.83441   0.00000  Uiso   1.00
N43    N     0.66387   0.70456   0.14388   0.00000  Uiso   1.00
N44    N     0.31033   0.02215   0.79179   0.00000  Uiso   1.00
N45    N     0.70388   0.65610   0.78081   0.00000  Uiso   1.00
N46    N     0.71749   0.79008   0.09027   0.00000  Uiso   1.00
C47    C     0.65828   0.47616   0.26952   0.00000  Uiso   1.00
C48    C     0.57277   0.51428   0.26739   0.00000  Uiso   1.00
C49    C     0.54175   0.57905   0.27722   0.00000  Uiso   1.00
C50    C     0.46210   0.60500   0.27325   0.00000  Uiso   1.00
C51    C     0.33647   0.66988   0.27200   0.00000  Uiso   1.00
C52    C     0.67772   0.39320   0.31773   0.00000  Uiso   1.00
C53    C     0.73495   0.35618   0.36988   0.00000  Uiso   1.00
C54    C     0.74366   0.28020   0.40830   0.00000  Uiso   1.00
C55    C     0.78100   0.15709   0.48518   0.00000  Uiso   1.00
C56    C     0.66521   0.47363   0.20664   0.00000  Uiso   1.00
C57    C     0.71194   0.50422   0.16540   0.00000  Uiso   1.00
C58    C     0.71012   0.49594   0.11029   0.00000  Uiso   1.00
C59    C     0.72803   0.49771   0.01469   0.00000  Uiso   1.00
C60    C     0.57199   0.40705   0.24500   0.00000  Uiso   1.00
C61    C     0.52590   0.47674   0.25407   0.00000  Uiso   1.00
C62    C     0.44628   0.50259   0.25009   0.00000  Uiso   1.00
C63    C     0.41515   0.56740   0.25991   0.00000  Uiso   1.00
C64    C     0.63086   0.35567   0.30442   0.00000  Uiso   1.00
C65    C     0.63948   0.27972   0.34276   0.00000  Uiso   1.00
C66    C     0.69670   0.24260   0.39496   0.00000  Uiso   1.00
C67    C     0.61834   0.43610   0.19333   0.00000  Uiso   1.00
C68    C     0.61646   0.42776   0.13827   0.00000  Uiso   1.00
C69    C     0.66317   0.45834   0.09695   0.00000  Uiso   1.00
H70    H     0.69477   0.50538   0.27989   0.00000  Uiso   1.00
H71    H     0.57805   0.60808   0.28752   0.00000  Uiso   1.00
H72    H     0.77122   0.38524   0.38017   0.00000  Uiso   1.00
H73    H     0.74820   0.53326   0.17572   0.00000  Uiso   1.00
H74    H     0.42796   0.70538   0.29014   0.00000  Uiso   1.00
H75    H     0.83530   0.23550   0.48548   0.00000  Uiso   1.00
H76    H     0.78676   0.54763   0.05435   0.00000  Uiso   1.00
H77    H     0.53550   0.37782   0.23464   0.00000  Uiso   1.00
H78    H     0.41002   0.47353   0.23979   0.00000  Uiso   1.00
H79    H     0.60320   0.25069   0.33244   0.00000  Uiso   1.00
H80    H     0.58018   0.39871   0.12799   0.00000  Uiso   1.00
H81    H     0.29159   0.59617   0.25140   0.00000  Uiso   1.00
H82    H     0.69893   0.12629   0.44674   0.00000  Uiso   1.00
H83    H     0.65039   0.43842   0.01561   0.00000  Uiso   1.00
O84    O     0.28011   0.71602   0.27500   0.00000  Uiso   1.00
O85    O     0.81453   0.09956   0.53127   0.00000  Uiso   1.00
O86    O     0.75085   0.50906   0.96564   0.00000  Uiso   1.00
N87    N     0.41309   0.66655   0.28030   0.00000  Uiso   1.00
N88    N     0.79391   0.22725   0.46294   0.00000  Uiso   1.00
N89    N     0.74855   0.51904   0.05988   0.00000  Uiso   1.00
N90    N     0.33971   0.60779   0.25946   0.00000  Uiso   1.00
N91    N     0.72053   0.16849   0.44210   0.00000  Uiso   1.00
N92    N     0.67517   0.46028   0.03903   0.00000  Uiso   1.00
C93    C     0.69967   0.84816   0.27568   0.00000  Uiso   1.00
C94    C     0.64172   0.88552   0.21557   0.00000  Uiso   1.00
C95    C     0.65887   0.91387   0.15553   0.00000  Uiso   1.00
C96    C     0.59773   0.94590   0.10670   0.00000  Uiso   1.00
C97    C     0.51924   0.00341   0.01170   0.00000  Uiso   1.00
C98    C     0.67017   0.89406   0.31254   0.00000  Uiso   1.00
C99    C     0.71124   0.92958   0.33405   0.00000  Uiso   1.00
C100   C     0.67405   0.96880   0.36686   0.00000  Uiso   1.00
C101   C     0.63974   0.03952   0.42245   0.00000  Uiso   1.00
C102   C     0.69182   0.76935   0.31267   0.00000  Uiso   1.00
C103   C     0.75110   0.70001   0.33431   0.00000  Uiso   1.00
C104   C     0.73214   0.63423   0.36724   0.00000  Uiso   1.00
C105   C     0.73145   0.51133   0.42304   0.00000  Uiso   1.00
C106   C     0.56060   0.85464   0.29573   0.00000  Uiso   1.00
C107   C     0.56619   0.88904   0.22646   0.00000  Uiso   1.00
C108   C     0.50501   0.92104   0.17771   0.00000  Uiso   1.00
C109   C     0.52206   0.94943   0.11761   0.00000  Uiso   1.00
C110   C     0.59464   0.89758   0.32343   0.00000  Uiso   1.00
C111   C     0.55738   0.93675   0.35622   0.00000  Uiso   1.00
C112   C     0.59838   0.97232   0.37777   0.00000  Uiso   1.00
C113   C     0.61628   0.77287   0.32356   0.00000  Uiso   1.00
C114   C     0.59723   0.70718   0.35648   0.00000  Uiso   1.00
C115   C     0.65647   0.63776   0.37815   0.00000  Uiso   1.00
H116   H     0.75848   0.84542   0.26721   0.00000  Uiso   1.00
H117   H     0.71733   0.91114   0.14713   0.00000  Uiso   1.00
H118   H     0.76969   0.92684   0.32562   0.00000  Uiso   1.00
H119   H     0.80954   0.69731   0.32587   0.00000  Uiso   1.00
H120   H     0.63840   0.98558   0.01879   0.00000  Uiso   1.00
H121   H     0.74882   0.01866   0.39517   0.00000  Uiso   1.00
H122   H     0.83285   0.53465   0.39571   0.00000  Uiso   1.00
H123   H     0.50179   0.85738   0.30420   0.00000  Uiso   1.00
H124   H     0.44656   0.92375   0.18614   0.00000  Uiso   1.00
H125   H     0.49893   0.93946   0.36464   0.00000  Uiso   1.00
H126   H     0.53877   0.70993   0.36489   0.00000  Uiso   1.00
H127   H     0.41863   0.99582   0.05046   0.00000  Uiso   1.00
H128   H     0.52905   0.02890   0.42685   0.00000  Uiso   1.00
H129   H     0.61308   0.54490   0.42738   0.00000  Uiso   1.00
O130   O     0.49681   0.03417   0.95629   0.00000  Uiso   1.00
O131   O     0.64168   0.07756   0.45010   0.00000  Uiso   1.00
O132   O     0.75193   0.44256   0.45080   0.00000  Uiso   1.00
N133   N     0.59426   0.97886   0.04244   0.00000  Uiso   1.00
N134   N     0.69749   0.00981   0.39433   0.00000  Uiso   1.00
N135   N     0.77606   0.55730   0.39485   0.00000  Uiso   1.00
N136   N     0.47600   0.98438   0.05949   0.00000  Uiso   1.00
N137   N     0.57923   0.01532   0.41137   0.00000  Uiso   1.00
N138   N     0.65780   0.56281   0.41189   0.00000  Uiso   1.00
C139   C     0.08393   0.73890   0.48791   0.00000  Uiso   1.00
C140   C     0.02865   0.79140   0.51054   0.00000  Uiso   1.00
C141   C     0.04819   0.81044   0.55741   0.00000  Uiso   1.00
C142   C     0.98928   0.85936   0.57124   0.00000  Uiso   1.00
C143   C     0.91498   0.93654   0.61122   0.00000  Uiso   1.00
C144   C     0.07799   0.78569   0.41796   0.00000  Uiso   1.00
C145   C     0.13902   0.79993   0.38699   0.00000  Uiso   1.00
C146   C     0.12165   0.84403   0.32287   0.00000  Uiso   1.00
C147   C     0.12396   0.91230   0.21910   0.00000  Uiso   1.00
C148   C     0.04964   0.67593   0.49494   0.00000  Uiso   1.00
C149   C     0.08682   0.59787   0.52868   0.00000  Uiso   1.00
C150   C     0.04558   0.54956   0.52937   0.00000  Uiso   1.00
C151   C     0.00386   0.44740   0.54512   0.00000  Uiso   1.00
C152   C     0.94457   0.79190   0.42912   0.00000  Uiso   1.00
C153   C     0.95296   0.82019   0.47861   0.00000  Uiso   1.00
C154   C     0.89401   0.86909   0.49237   0.00000  Uiso   1.00
C155   C     0.91345   0.88820   0.53925   0.00000  Uiso   1.00
C156   C     0.00230   0.81448   0.38603   0.00000  Uiso   1.00
C157   C     0.98484   0.85857   0.32194   0.00000  Uiso   1.00
C158   C     0.04582   0.87287   0.29088   0.00000  Uiso   1.00
C159   C     0.97394   0.70471   0.46301   0.00000  Uiso   1.00
C160   C     0.93264   0.65651   0.46364   0.00000  Uiso   1.00
C161   C     0.96975   0.57840   0.49737   0.00000  Uiso   1.00
H162   H     0.14286   0.71648   0.51277   0.00000  Uiso   1.00
H163   H     0.10678   0.78816   0.58211   0.00000  Uiso   1.00
H164   H     0.19759   0.77764   0.41171   0.00000  Uiso   1.00
H165   H     0.14540   0.57561   0.55338   0.00000  Uiso   1.00
H166   H     0.03340   0.88034   0.64489   0.00000  Uiso   1.00
H167   H     0.22489   0.85813   0.28559   0.00000  Uiso   1.00
H168   H     0.11483   0.43212   0.58433   0.00000  Uiso   1.00
H169   H     0.88564   0.81431   0.40426   0.00000  Uiso   1.00
H170   H     0.83544   0.89136   0.46765   0.00000  Uiso   1.00
H171   H     0.92626   0.88083   0.29725   0.00000  Uiso   1.00
H172   H     0.87406   0.67881   0.43892   0.00000  Uiso   1.00
H173   H     0.81317   0.96410   0.55199   0.00000  Uiso   1.00
H174   H     0.00467   0.94189   0.19268   0.00000  Uiso   1.00
H175   H     0.89461   0.51589   0.49143   0.00000  Uiso   1.00
O176   O     0.89491   0.97116   0.64208   0.00000  Uiso   1.00
O177   O     0.14614   0.94201   0.17069   0.00000  Uiso   1.00
O178   O     0.00175   0.38310   0.56264   0.00000  Uiso   1.00
N179   N     0.98845   0.88947   0.61434   0.00000  Uiso   1.00
N180   N     0.16748   0.86871   0.27841   0.00000  Uiso   1.00
N181   N     0.06460   0.47043   0.55770   0.00000  Uiso   1.00
N182   N     0.86995   0.93454   0.56435   0.00000  Uiso   1.00
N183   N     0.04898   0.91378   0.22842   0.00000  Uiso   1.00
N184   N     0.94610   0.51550   0.50771   0.00000  Uiso   1.00
C185   C     0.17289   0.73541   0.81855   0.00000  Uiso   1.00
C186   C     0.08668   0.75551   0.79810   0.00000  Uiso   1.00
C187   C     0.05124   0.70814   0.78797   0.00000  Uiso   1.00
C188   C     0.97172   0.73711   0.76943   0.00000  Uiso   1.00
C189   C     0.84432   0.75710   0.73893   0.00000  Uiso   1.00
C190   C     0.18027   0.74607   0.87808   0.00000  Uiso   1.00
C191   C     0.22352   0.69076   0.93521   0.00000  Uiso   1.00
C192   C     0.22278   0.71179   0.98400   0.00000  Uiso   1.00
C193   C     0.24072   0.71713   0.07766   0.00000  Uiso   1.00
C194   C     0.19813   0.79763   0.76926   0.00000  Uiso   1.00
C195   C     0.25641   0.78567   0.73490   0.00000  Uiso   1.00
C196   C     0.27072   0.85010   0.69208   0.00000  Uiso   1.00
C197   C     0.31639   0.93549   0.61679   0.00000  Uiso   1.00
C198   C     0.09468   0.87109   0.80363   0.00000  Uiso   1.00
C199   C     0.04420   0.82921   0.78999   0.00000  Uiso   1.00
C200   C     0.96471   0.85826   0.77146   0.00000  Uiso   1.00
C201   C     0.92916   0.81094   0.76131   0.00000  Uiso   1.00
C202   C     0.13778   0.81976   0.86998   0.00000  Uiso   1.00
C203   C     0.13699   0.84088   0.91869   0.00000  Uiso   1.00
C204   C     0.18022   0.78561   0.97588   0.00000  Uiso   1.00
C205   C     0.15564   0.87132   0.76115   0.00000  Uiso   1.00
C206   C     0.16987   0.93578   0.71838   0.00000  Uiso   1.00
C207   C     0.22817   0.92393   0.68396   0.00000  Uiso   1.00
H208   H     0.20597   0.67803   0.82487   0.00000  Uiso   1.00
H209   H     0.08414   0.65111   0.79426   0.00000  Uiso   1.00
H210   H     0.25640   0.63374   0.94147   0.00000  Uiso   1.00
H211   H     0.28928   0.72863   0.74119   0.00000  Uiso   1.00
H212   H     0.93033   0.65375   0.75677   0.00000  Uiso   1.00
H213   H     0.29357   0.61713   0.06716   0.00000  Uiso   1.00
H214   H     0.36291   0.81723   0.64483   0.00000  Uiso   1.00
H215   H     0.06160   0.92847   0.79731   0.00000  Uiso   1.00
H216   H     0.93185   0.91529   0.76519   0.00000  Uiso   1.00
H217   H     0.10411   0.89791   0.91240   0.00000  Uiso   1.00
H218   H     0.13699   0.99281   0.71212   0.00000  Uiso   1.00
H219   H     0.80673   0.86817   0.73317   0.00000  Uiso   1.00
H220   H     0.16997   0.83154   0.04357   0.00000  Uiso   1.00
H221   H     0.23930   0.03164   0.62124   0.00000  Uiso   1.00
O222   O     0.78578   0.74776   0.72435   0.00000  Uiso   1.00
O223   O     0.26234   0.69971   0.13157   0.00000  Uiso   1.00
O224   O     0.35330   0.96224   0.57749   0.00000  Uiso   1.00
N225   N     0.91905   0.70603   0.75561   0.00000  Uiso   1.00
N226   N     0.25865   0.67178   0.04581   0.00000  Uiso   1.00
N227   N     0.32348   0.85886   0.65099   0.00000  Uiso   1.00
N228   N     0.85254   0.82140   0.74292   0.00000  Uiso   1.00
N229   N     0.19213   0.78716   0.03311   0.00000  Uiso   1.00
N230   N     0.25697   0.97423   0.63829   0.00000  Uiso   1.00
C231   C     0.12736   0.50411   0.73194   0.00000  Uiso   1.00
C232   C     0.04105   0.54384   0.70786   0.00000  Uiso   1.00
C233   C     0.00762   0.61471   0.65754   0.00000  Uiso   1.00
C234   C     0.92763   0.64113   0.64290   0.00000  Uiso   1.00
C235   C     0.80045   0.70933   0.60024   0.00000  Uiso   1.00
C236   C     0.14596   0.42616   0.73092   0.00000  Uiso   1.00
C237   C     0.20075   0.39809   0.69998   0.00000  Uiso   1.00
C238   C     0.20908   0.32544   0.70476   0.00000  Uiso   1.00
C239   C     0.24482   0.21093   0.69794   0.00000  Uiso   1.00
C240   C     0.13843   0.48810   0.80055   0.00000  Uiso   1.00
C241   C     0.18691   0.51210   0.82817   0.00000  Uiso   1.00
C242   C     0.18891   0.49158   0.89158   0.00000  Uiso   1.00
C243   C     0.21296   0.47325   0.99287   0.00000  Uiso   1.00
C244   C     0.04473   0.42498   0.79544   0.00000  Uiso   1.00
C245   C     0.99618   0.50085   0.74235   0.00000  Uiso   1.00
C246   C     0.91621   0.52717   0.72779   0.00000  Uiso   1.00
C247   C     0.88267   0.59807   0.67745   0.00000  Uiso   1.00
C248   C     0.10109   0.38318   0.76540   0.00000  Uiso   1.00
C249   C     0.10934   0.31055   0.77023   0.00000  Uiso   1.00
C250   C     0.16412   0.28238   0.73931   0.00000  Uiso   1.00
C251   C     0.09356   0.44513   0.83504   0.00000  Uiso   1.00
C252   C     0.09549   0.42456   0.89842   0.00000  Uiso   1.00
C253   C     0.14395   0.44853   0.92613   0.00000  Uiso   1.00
H254   H     0.16230   0.53757   0.70509   0.00000  Uiso   1.00
H255   H     0.04237   0.64795   0.63085   0.00000  Uiso   1.00
H256   H     0.23548   0.43136   0.67330   0.00000  Uiso   1.00
H257   H     0.22163   0.54536   0.80146   0.00000  Uiso   1.00
H258   H     0.88963   0.75137   0.56374   0.00000  Uiso   1.00
H259   H     0.29682   0.29467   0.65327   0.00000  Uiso   1.00
H260   H     0.26762   0.53505   0.92352   0.00000  Uiso   1.00
H261   H     0.00980   0.39152   0.82229   0.00000  Uiso   1.00
H262   H     0.88150   0.49390   0.75448   0.00000  Uiso   1.00
H263   H     0.07461   0.27730   0.79693   0.00000  Uiso   1.00
H264   H     0.06075   0.39130   0.92509   0.00000  Uiso   1.00
H265   H     0.75905   0.62633   0.66409   0.00000  Uiso   1.00
H266   H     0.16625   0.16963   0.75361   0.00000  Uiso   1.00
H267   H     0.13704   0.41001   0.02387   0.00000  Uiso   1.00
O268   O     0.74270   0.75882   0.56718   0.00000  Uiso   1.00
O269   O     0.27693   0.15965   0.68464   0.00000  Uiso   1.00
O270   O     0.23861   0.47502   0.03921   0.00000  Uiso   1.00
N271   N     0.87650   0.70790   0.59667   0.00000  Uiso   1.00
N272   N     0.25719   0.28092   0.68036   0.00000  Uiso   1.00
N273   N     0.22991   0.50563   0.93303   0.00000  Uiso   1.00
N274   N     0.80624   0.64062   0.65067   0.00000  Uiso   1.00
N275   N     0.18693   0.21364   0.73436   0.00000  Uiso   1.00
N276   N     0.15965   0.43835   0.98703   0.00000  Uiso   1.00
C277   C     0.60605   0.33085   0.93007   0.00000  Uiso   1.00
C278   C     0.66598   0.25598   0.97559   0.00000  Uiso   1.00
C279   C     0.74541   0.24061   0.98238   0.00000  Uiso   1.00
C280   C     0.79041   0.16866   0.02661   0.00000  Uiso   1.00
C281   C     0.88853   0.06073   0.09182   0.00000  Uiso   1.00
C282   C     0.55196   0.35814   0.96949   0.00000  Uiso   1.00
C283   C     0.53552   0.42867   0.97113   0.00000  Uiso   1.00
C284   C     0.48453   0.44273   0.01022   0.00000  Uiso   1.00
C285   C     0.40559   0.49342   0.06592   0.00000  Uiso   1.00
C286   C     0.55820   0.30960   0.89070   0.00000  Uiso   1.00
C287   C     0.54698   0.33933   0.82610   0.00000  Uiso   1.00
C288   C     0.50123   0.31254   0.79886   0.00000  Uiso   1.00
C289   C     0.43198   0.28786   0.73224   0.00000  Uiso   1.00
C290   C     0.54474   0.23042   0.99656   0.00000  Uiso   1.00
C291   C     0.63267   0.20144   0.01171   0.00000  Uiso   1.00
C292   C     0.67757   0.12950   0.05594   0.00000  Uiso   1.00
C293   C     0.75705   0.11402   0.06279   0.00000  Uiso   1.00
C294   C     0.51866   0.30360   0.00560   0.00000  Uiso   1.00
C295   C     0.46768   0.31756   0.04469   0.00000  Uiso   1.00
C296   C     0.45117   0.38808   0.04640   0.00000  Uiso   1.00
C297   C     0.52490   0.25506   0.92682   0.00000  Uiso   1.00
C298   C     0.47915   0.22822   0.89967   0.00000  Uiso   1.00
C299   C     0.46787   0.25789   0.83504   0.00000  Uiso   1.00
H300   H     0.63198   0.37332   0.90196   0.00000  Uiso   1.00
H301   H     0.77116   0.28284   0.95442   0.00000  Uiso   1.00
H302   H     0.56129   0.47087   0.94317   0.00000  Uiso   1.00
H303   H     0.57276   0.38154   0.79817   0.00000  Uiso   1.00
H304   H     0.91077   0.15848   0.02854   0.00000  Uiso   1.00
H305   H     0.46824   0.55497   0.00480   0.00000  Uiso   1.00
H306   H     0.49243   0.36660   0.69903   0.00000  Uiso   1.00
H307   H     0.51881   0.18796   0.02468   0.00000  Uiso   1.00
H308   H     0.65178   0.08730   0.08388   0.00000  Uiso   1.00
H309   H     0.44192   0.27534   0.07263   0.00000  Uiso   1.00
H310   H     0.45339   0.18601   0.92763   0.00000  Uiso   1.00
H311   H     0.81389   0.99977   0.13361   0.00000  Uiso   1.00
H312   H     0.37135   0.39627   0.10987   0.00000  Uiso   1.00
H313   H     0.39554   0.20790   0.80411   0.00000  Uiso   1.00
O314   O     0.95184   0.01626   0.11782   0.00000  Uiso   1.00
O315   O     0.37125   0.53645   0.08667   0.00000  Uiso   1.00
O316   O     0.40298   0.28932   0.68551   0.00000  Uiso   1.00
N317   N     0.86972   0.13493   0.04513   0.00000  Uiso   1.00
N318   N     0.45599   0.50562   0.02295   0.00000  Uiso   1.00
N319   N     0.47859   0.32953   0.73708   0.00000  Uiso   1.00
N320   N     0.81759   0.04953   0.10167   0.00000  Uiso   1.00
N321   N     0.40386   0.42023   0.07949   0.00000  Uiso   1.00
N322   N     0.42645   0.24414   0.79362   0.00000  Uiso   1.00
C323   C     0.48106   0.51799   0.61659   0.00000  Uiso   1.00
C324   C     0.56835   0.48162   0.62568   0.00000  Uiso   1.00
C325   C     0.60648   0.40932   0.63009   0.00000  Uiso   1.00
C326   C     0.68658   0.38653   0.63834   0.00000  Uiso   1.00
C327   C     0.81597   0.32280   0.65186   0.00000  Uiso   1.00
C328   C     0.46047   0.59350   0.55802   0.00000  Uiso   1.00
C329   C     0.40788   0.61527   0.50556   0.00000  Uiso   1.00
C330   C     0.39715   0.68667   0.45685   0.00000  Uiso   1.00
C331   C     0.35900   0.79666   0.36534   0.00000  Uiso   1.00
C332   C     0.46538   0.53921   0.67072   0.00000  Uiso   1.00
C333   C     0.41691   0.51536   0.71301   0.00000  Uiso   1.00
C334   C     0.41030   0.54106   0.75918   0.00000  Uiso   1.00
C335   C     0.37979   0.56676   0.84266   0.00000  Uiso   1.00
C336   C     0.55551   0.60609   0.62338   0.00000  Uiso   1.00
C337   C     0.60879   0.52948   0.62936   0.00000  Uiso   1.00
C338   C     0.68885   0.50679   0.63761   0.00000  Uiso   1.00
C339   C     0.72709   0.43447   0.64203   0.00000  Uiso   1.00
C340   C     0.50090   0.64135   0.56171   0.00000  Uiso   1.00
C341   C     0.49024   0.71274   0.51307   0.00000  Uiso   1.00
C342   C     0.43766   0.73461   0.46054   0.00000  Uiso   1.00
C343   C     0.50582   0.58707   0.67441   0.00000  Uiso   1.00
C344   C     0.49928   0.61282   0.72052   0.00000  Uiso   1.00
C345   C     0.45081   0.58901   0.76287   0.00000  Uiso   1.00
H346   H     0.44958   0.48073   0.61372   0.00000  Uiso   1.00
H347   H     0.57517   0.37231   0.62723   0.00000  Uiso   1.00
H348   H     0.37659   0.57823   0.50272   0.00000  Uiso   1.00
H349   H     0.38563   0.47832   0.71014   0.00000  Uiso   1.00
H350   H     0.73224   0.27321   0.64382   0.00000  Uiso   1.00
H351   H     0.31351   0.70742   0.38128   0.00000  Uiso   1.00
H352   H     0.33256   0.49675   0.81867   0.00000  Uiso   1.00
H353   H     0.58699   0.64335   0.62625   0.00000  Uiso   1.00
H354   H     0.72012   0.54384   0.64046   0.00000  Uiso   1.00
H355   H     0.52154   0.74976   0.51594   0.00000  Uiso   1.00
H356   H     0.53058   0.64986   0.72336   0.00000  Uiso   1.00
H357   H     0.84989   0.41243   0.65455   0.00000  Uiso   1.00
H358   H     0.43115   0.84664   0.39201   0.00000  Uiso   1.00
H359   H     0.45021   0.63597   0.82940   0.00000  Uiso   1.00
O360   O     0.87617   0.27443   0.65828   0.00000  Uiso   1.00
O361   O     0.32679   0.84410   0.31385   0.00000  Uiso   1.00
O362   O     0.35179   0.56771   0.88769   0.00000  Uiso   1.00
N363   N     0.74166   0.31962   0.64441   0.00000  Uiso   1.00
N364   N     0.35018   0.72558   0.39895   0.00000  Uiso   1.00
N365   N     0.36797   0.52864   0.80786   0.00000  Uiso   1.00
N366   N     0.80497   0.39454   0.65018   0.00000  Uiso   1.00
N367   N     0.41349   0.80049   0.40472   0.00000  Uiso   1.00
N368   N     0.43128   0.60355   0.81363   0.00000  Uiso   1.00
C369   C     0.53059   0.12845   0.65812   0.00000  Uiso   1.00
C370   C     0.58428   0.09613   0.71983   0.00000  Uiso   1.00
C371   C     0.56126   0.08640   0.77700   0.00000  Uiso   1.00
C372   C     0.61925   0.05592   0.82796   0.00000  Uiso   1.00
C373   C     0.69073   0.00875   0.92470   0.00000  Uiso   1.00
C374   C     0.55343   0.06770   0.63364   0.00000  Uiso   1.00
C375   C     0.50446   0.03408   0.61835   0.00000  Uiso   1.00
C376   C     0.53647   0.97966   0.59675   0.00000  Uiso   1.00
C377   C     0.56003   0.88839   0.55966   0.00000  Uiso   1.00
C378   C     0.55268   0.19625   0.61324   0.00000  Uiso   1.00
C379   C     0.50308   0.27072   0.58076   0.00000  Uiso   1.00
C380   C     0.53445   0.32453   0.54197   0.00000  Uiso   1.00
C381   C     0.55685   0.43286   0.47319   0.00000  Uiso   1.00
C382   C     0.67450   0.09161   0.64696   0.00000  Uiso   1.00
C383   C     0.66245   0.07612   0.71376   0.00000  Uiso   1.00
C384   C     0.72048   0.04564   0.76465   0.00000  Uiso   1.00
C385   C     0.69755   0.03587   0.82189   0.00000  Uiso   1.00
C386   C     0.63159   0.04769   0.62758   0.00000  Uiso   1.00
C387   C     0.66368   0.99332   0.60600   0.00000  Uiso   1.00
C388   C     0.61477   0.95961   0.59068   0.00000  Uiso   1.00
C389   C     0.63085   0.17624   0.60718   0.00000  Uiso   1.00
C390   C     0.66230   0.22995   0.56842   0.00000  Uiso   1.00
C391   C     0.61276   0.30448   0.53590   0.00000  Uiso   1.00
H392   H     0.46973   0.14402   0.66283   0.00000  Uiso   1.00
H393   H     0.50076   0.10189   0.78167   0.00000  Uiso   1.00
H394   H     0.44397   0.04958   0.62303   0.00000  Uiso   1.00
H395   H     0.44259   0.28618   0.58546   0.00000  Uiso   1.00
H396   H     0.56964   0.04633   0.91075   0.00000  Uiso   1.00
H397   H     0.44988   0.93604   0.57625   0.00000  Uiso   1.00
H398   H     0.44697   0.43496   0.49702   0.00000  Uiso   1.00
H399   H     0.73536   0.07603   0.64224   0.00000  Uiso   1.00
H400   H     0.78097   0.03016   0.75995   0.00000  Uiso   1.00
H401   H     0.72417   0.97785   0.60132   0.00000  Uiso   1.00
H402   H     0.72279   0.21445   0.56375   0.00000  Uiso   1.00
H403   H     0.79706   0.98811   0.89312   0.00000  Uiso   1.00
H404   H     0.67730   0.87782   0.55861   0.00000  Uiso   1.00
H405   H     0.67439   0.37674   0.47939   0.00000  Uiso   1.00
O406   O     0.70856   0.98825   0.97974   0.00000  Uiso   1.00
O407   O     0.55143   0.84357   0.54087   0.00000  Uiso   1.00
O408   O     0.54762   0.49814   0.43693   0.00000  Uiso   1.00
N409   N     0.61691   0.03893   0.89044   0.00000  Uiso   1.00
N410   N     0.50494   0.93582   0.57771   0.00000  Uiso   1.00
N411   N     0.50221   0.40226   0.50363   0.00000  Uiso   1.00
N412   N     0.73928   0.00761   0.88096   0.00000  Uiso   1.00
N413   N     0.62731   0.90449   0.56823   0.00000  Uiso   1.00
N414   N     0.62459   0.37093   0.49414   0.00000  Uiso   1.00
C415   C     0.03533   0.16807   0.46118   0.00000  Uiso   1.00
C416   C     0.12190   0.14884   0.45987   0.00000  Uiso   1.00
C417   C     0.16552   0.09640   0.44017   0.00000  Uiso   1.00
C418   C     0.24387   0.08700   0.44256   0.00000  Uiso   1.00
C419   C     0.37322   0.05079   0.43730   0.00000  Uiso   1.00
C420   C     0.02576   0.15349   0.52826   0.00000  Uiso   1.00
C421   C     0.98855   0.10496   0.56605   0.00000  Uiso   1.00
C422   C     0.98597   0.09949   0.62602   0.00000  Uiso   1.00
C423   C     0.96601   0.07055   0.72692   0.00000  Uiso   1.00
C424   C     0.00051   0.25434   0.42235   0.00000  Uiso   1.00
C425   C     0.94205   0.29061   0.37110   0.00000  Uiso   1.00
C426   C     0.91820   0.37005   0.34190   0.00000  Uiso   1.00
C427   C     0.85904   0.49769   0.27836   0.00000  Uiso   1.00
C428   C     0.09690   0.24464   0.50047   0.00000  Uiso   1.00
C429   C     0.15534   0.19043   0.48121   0.00000  Uiso   1.00
C430   C     0.23364   0.18112   0.48363   0.00000  Uiso   1.00
C431   C     0.27738   0.12867   0.46393   0.00000  Uiso   1.00
C432   C     0.05920   0.19508   0.54960   0.00000  Uiso   1.00
C433   C     0.05667   0.18969   0.60952   0.00000  Uiso   1.00
C434   C     0.01947   0.14116   0.64739   0.00000  Uiso   1.00
C435   C     0.03396   0.29594   0.44369   0.00000  Uiso   1.00
C436   C     0.01018   0.37534   0.41456   0.00000  Uiso   1.00
C437   C     0.95170   0.41172   0.36328   0.00000  Uiso   1.00
H438   H     0.00929   0.13568   0.44457   0.00000  Uiso   1.00
H439   H     0.13962   0.06421   0.42366   0.00000  Uiso   1.00
H440   H     0.96267   0.07279   0.54953   0.00000  Uiso   1.00
H441   H     0.91619   0.25841   0.35460   0.00000  Uiso   1.00
H442   H     0.29887   0.00330   0.40990   0.00000  Uiso   1.00
H443   H     0.92574   0.02140   0.67529   0.00000  Uiso   1.00
H444   H     0.82772   0.41281   0.26425   0.00000  Uiso   1.00
H445   H     0.12293   0.27703   0.51708   0.00000  Uiso   1.00
H446   H     0.25951   0.21331   0.50015   0.00000  Uiso   1.00
H447   H     0.08255   0.22189   0.62601   0.00000  Uiso   1.00
H448   H     0.03607   0.40751   0.43109   0.00000  Uiso   1.00
H449   H     0.39618   0.12431   0.47199   0.00000  Uiso   1.00
H450   H     0.02304   0.14241   0.73738   0.00000  Uiso   1.00
H451   H     0.92502   0.53383   0.32633   0.00000  Uiso   1.00
O452   O     0.43532   0.01932   0.42851   0.00000  Uiso   1.00
O453   O     0.94577   0.04308   0.77669   0.00000  Uiso   1.00
O454   O     0.81718   0.55660   0.23741   0.00000  Uiso   1.00
N455   N     0.30303   0.04053   0.42683   0.00000  Uiso   1.00
N456   N     0.95418   0.05745   0.67495   0.00000  Uiso   1.00
N457   N     0.86253   0.42339   0.29068   0.00000  Uiso   1.00
N458   N     0.35539   0.10565   0.46023   0.00000  Uiso   1.00
N459   N     0.00654   0.12256   0.70836   0.00000  Uiso   1.00
N460   N     0.91488   0.48850   0.32408   0.00000  Uiso   1.00
C461   C     0.97182   0.30861   0.09898   0.00000  Uiso   1.00
C462   C     0.05816   0.29225   0.11552   0.00000  Uiso   1.00
C463   C     0.09217   0.34210   0.12289   0.00000  Uiso   1.00
C464   C     0.17209   0.31642   0.13804   0.00000  Uiso   1.00
C465   C     0.29943   0.30213   0.16255   0.00000  Uiso   1.00
C466   C     0.96167   0.29696   0.04019   0.00000  Uiso   1.00
C467   C     0.91455   0.35076   0.98423   0.00000  Uiso   1.00
C468   C     0.91325   0.32904   0.93596   0.00000  Uiso   1.00
C469   C     0.89075   0.32204   0.84354   0.00000  Uiso   1.00
C470   C     0.95145   0.24460   0.15067   0.00000  Uiso   1.00
C471   C     0.89571   0.25438   0.18758   0.00000  Uiso   1.00
C472   C     0.88578   0.18857   0.23232   0.00000  Uiso   1.00
C473   C     0.84740   0.10028   0.31143   0.00000  Uiso   1.00
C474   C     0.05328   0.17435   0.11277   0.00000  Uiso   1.00
C475   C     0.10241   0.21933   0.12301   0.00000  Uiso   1.00
C476   C     0.18230   0.19356   0.13815   0.00000  Uiso   1.00
C477   C     0.21642   0.24336   0.14554   0.00000  Uiso   1.00
C478   C     0.00592   0.22404   0.04768   0.00000  Uiso   1.00
C479   C     0.00468   0.20222   0.99948   0.00000  Uiso   1.00
C480   C     0.95758   0.25598   0.94346   0.00000  Uiso   1.00
C481   C     0.99570   0.17168   0.15816   0.00000  Uiso   1.00
C482   C     0.98585   0.10584   0.20284   0.00000  Uiso   1.00
C483   C     0.93011   0.11551   0.23982   0.00000  Uiso   1.00
H484   H     0.93737   0.36538   0.09315   0.00000  Uiso   1.00
H485   H     0.05790   0.39854   0.11709   0.00000  Uiso   1.00
H486   H     0.88031   0.40719   0.97845   0.00000  Uiso   1.00
H487   H     0.86148   0.31082   0.18178   0.00000  Uiso   1.00
H488   H     0.21106   0.40314   0.14691   0.00000  Uiso   1.00
H489   H     0.83657   0.42139   0.85459   0.00000  Uiso   1.00
H490   H     0.79685   0.21817   0.28334   0.00000  Uiso   1.00
H491   H     0.08773   0.11757   0.11860   0.00000  Uiso   1.00
H492   H     0.21653   0.13712   0.14394   0.00000  Uiso   1.00
H493   H     0.03893   0.14578   0.00530   0.00000  Uiso   1.00
H494   H     0.02010   0.04941   0.20862   0.00000  Uiso   1.00
H495   H     0.33980   0.19097   0.16870   0.00000  Uiso   1.00
H496   H     0.96531   0.20922   0.87638   0.00000  Uiso   1.00
H497   H     0.92560   0.00600   0.30513   0.00000  Uiso   1.00
O498   O     0.35744   0.31440   0.17400   0.00000  Uiso   1.00
O499   O     0.86612   0.33833   0.79049   0.00000  Uiso   1.00
O500   O     0.81401   0.07172   0.35300   0.00000  Uiso   1.00
N501   N     0.22368   0.35052   0.14858   0.00000  Uiso   1.00
N502   N     0.87357   0.36758   0.87527   0.00000  Uiso   1.00
N503   N     0.83642   0.17759   0.27610   0.00000  Uiso   1.00
N504   N     0.29296   0.23635   0.16030   0.00000  Uiso   1.00
N505   N     0.94284   0.25341   0.88699   0.00000  Uiso   1.00
N506   N     0.90570   0.06343   0.28783   0.00000  Uiso   1.00
C507   C     0.99133   0.54666   0.16259   0.00000  Uiso   1.00
C508   C     0.07394   0.49857   0.19541   0.00000  Uiso   1.00
C509   C     0.09583   0.42914   0.24824   0.00000  Uiso   1.00
C510   C     0.17429   0.39409   0.27114   0.00000  Uiso   1.00
C511   C     0.29426   0.31437   0.32652   0.00000  Uiso   1.00
C512   C     0.97927   0.62539   0.16075   0.00000  Uiso   1.00
C513   C     0.92154   0.66261   0.18444   0.00000  Uiso   1.00
C514   C     0.92030   0.73433   0.17816   0.00000  Uiso   1.00
C515   C     0.89325   0.85153   0.17970   0.00000  Uiso   1.00
C516   C     0.98962   0.55798   0.09511   0.00000  Uiso   1.00
C517   C     0.94058   0.53853   0.06359   0.00000  Uiso   1.00
C518   C     0.94804   0.55350   0.00204   0.00000  Uiso   1.00
C519   C     0.93706   0.56603   0.90165   0.00000  Uiso   1.00
C520   C     0.09176   0.60787   0.10932   0.00000  Uiso   1.00
C521   C     0.12849   0.53181   0.16647   0.00000  Uiso   1.00
C522   C     0.20694   0.49685   0.18930   0.00000  Uiso   1.00
C523   C     0.22894   0.42739   0.24216   0.00000  Uiso   1.00
C524   C     0.03381   0.65864   0.13182   0.00000  Uiso   1.00
C525   C     0.03265   0.73032   0.12550   0.00000  Uiso   1.00
C526   C     0.97495   0.76763   0.14918   0.00000  Uiso   1.00
C527   C     0.04417   0.59122   0.06617   0.00000  Uiso   1.00
C528   C     0.05170   0.60623   0.00465   0.00000  Uiso   1.00
C529   C     0.00269   0.58680   0.97305   0.00000  Uiso   1.00
H530   H     0.94886   0.52079   0.18512   0.00000  Uiso   1.00
H531   H     0.05359   0.40344   0.27062   0.00000  Uiso   1.00
H532   H     0.87933   0.63687   0.20682   0.00000  Uiso   1.00
H533   H     0.89838   0.51280   0.08600   0.00000  Uiso   1.00
H534   H     0.19376   0.28801   0.35267   0.00000  Uiso   1.00
H535   H     0.82630   0.78022   0.21813   0.00000  Uiso   1.00
H536   H     0.86646   0.51861   0.96334   0.00000  Uiso   1.00
H537   H     0.13423   0.63375   0.08679   0.00000  Uiso   1.00
H538   H     0.24914   0.52259   0.16690   0.00000  Uiso   1.00
H539   H     0.07487   0.75603   0.10311   0.00000  Uiso   1.00
H540   H     0.09392   0.63196   0.98228   0.00000  Uiso   1.00
H541   H     0.35247   0.38472   0.26849   0.00000  Uiso   1.00
H542   H     0.98501   0.87694   0.13395   0.00000  Uiso   1.00
H543   H     0.02517   0.61532   0.87916   0.00000  Uiso   1.00
O544   O     0.34536   0.26122   0.36507   0.00000  Uiso   1.00
O545   O     0.86326   0.90699   0.18855   0.00000  Uiso   1.00
O546   O     0.91595   0.56375   0.85427   0.00000  Uiso   1.00
N547   N     0.21535   0.32602   0.32186   0.00000  Uiso   1.00
N548   N     0.87180   0.78620   0.19608   0.00000  Uiso   1.00
N549   N     0.90933   0.54163   0.95787   0.00000  Uiso   1.00
N550   N     0.30075   0.37806   0.27656   0.00000  Uiso   1.00
N551   N     0.95720   0.83824   0.15078   0.00000  Uiso   1.00
N552   N     0.99473   0.59367   0.91257   0.00000  Uiso   1.00
