data_job_02366
_audit_creation_date              2018-12-19
_audit_creation_method            'Materials Studio'
_symmetry_space_group_name_H-M    'P1'
_symmetry_Int_Tables_number       1
_symmetry_cell_setting            triclinic
loop_
_symmetry_equiv_pos_as_xyz
  x,y,z
_cell_length_a                    19.7808
_cell_length_b                    19.7808
_cell_length_c                    12.3276
_cell_angle_alpha                 90.0000
_cell_angle_beta                  90.0000
_cell_angle_gamma                 90.0000
loop_
_atom_site_label
_atom_site_type_symbol
_atom_site_fract_x
_atom_site_fract_y
_atom_site_fract_z
_atom_site_U_iso_or_equiv
_atom_site_adp_type
_atom_site_occupancy
C1     C     0.29857   0.44968   0.45507   0.00000  Uiso   1.00
C2     C     0.34066   0.51412   0.46209   0.00000  Uiso   1.00
C3     C     0.40925   0.51927   0.43988   0.00000  Uiso   1.00
C4     C     0.43847   0.58270   0.45108   0.00000  Uiso   1.00
C5     C     0.50964   0.67419   0.45712   0.00000  Uiso   1.00
C6     C     0.26634   0.44055   0.56649   0.00000  Uiso   1.00
C7     C     0.27243   0.38384   0.63206   0.00000  Uiso   1.00
C8     C     0.23908   0.38534   0.73113   0.00000  Uiso   1.00
C9     C     0.19482   0.36260   0.89922   0.00000  Uiso   1.00
C10    C     0.24068   0.46531   0.37733   0.00000  Uiso   1.00
C11    C     0.22517   0.42940   0.28387   0.00000  Uiso   1.00
C12    C     0.17020   0.45174   0.22370   0.00000  Uiso   1.00
C13    C     0.08608   0.46744   0.09809   0.00000  Uiso   1.00
C14    C     0.22850   0.55318   0.51444   0.00000  Uiso   1.00
C15    C     0.30261   0.57033   0.49434   0.00000  Uiso   1.00
C16    C     0.33173   0.63377   0.50556   0.00000  Uiso   1.00
C17    C     0.40035   0.63902   0.48338   0.00000  Uiso   1.00
C18    C     0.22829   0.49676   0.59874   0.00000  Uiso   1.00
C19    C     0.19492   0.49835   0.69773   0.00000  Uiso   1.00
C20    C     0.20096   0.44166   0.76343   0.00000  Uiso   1.00
C21    C     0.20262   0.52152   0.40958   0.00000  Uiso   1.00
C22    C     0.14765   0.54392   0.34954   0.00000  Uiso   1.00
C23    C     0.13207   0.50806   0.25600   0.00000  Uiso   1.00
H24    H     0.32819   0.40592   0.42998   0.00000  Uiso   1.00
H25    H     0.43869   0.47575   0.41494   0.00000  Uiso   1.00
H26    H     0.30188   0.34034   0.60708   0.00000  Uiso   1.00
H27    H     0.25463   0.38591   0.25894   0.00000  Uiso   1.00
H28    H     0.54441   0.57796   0.41253   0.00000  Uiso   1.00
H29    H     0.25594   0.29244   0.81764   0.00000  Uiso   1.00
H30    H     0.15629   0.38851   0.08353   0.00000  Uiso   1.00
H31    H     0.19887   0.59695   0.53954   0.00000  Uiso   1.00
H32    H     0.30227   0.67727   0.53052   0.00000  Uiso   1.00
H33    H     0.16547   0.54186   0.72266   0.00000  Uiso   1.00
H34    H     0.11821   0.58742   0.37452   0.00000  Uiso   1.00
H35    H     0.43369   0.74152   0.50634   0.00000  Uiso   1.00
H36    H     0.14521   0.45599   0.91145   0.00000  Uiso   1.00
H37    H     0.04557   0.55207   0.17734   0.00000  Uiso   1.00
O38    O     0.55941   0.70912   0.45156   0.00000  Uiso   1.00
O39    O     0.18093   0.33452   0.98303   0.00000  Uiso   1.00
O40    O     0.05021   0.46057   0.01990   0.00000  Uiso   1.00
N41    N     0.50416   0.60543   0.43583   0.00000  Uiso   1.00
N42    N     0.23446   0.33849   0.81459   0.00000  Uiso   1.00
N43    N     0.14129   0.42830   0.12827   0.00000  Uiso   1.00
N44    N     0.44458   0.69344   0.48631   0.00000  Uiso   1.00
N45    N     0.17489   0.42650   0.86507   0.00000  Uiso   1.00
N46    N     0.08172   0.51631   0.17875   0.00000  Uiso   1.00
C47    C     0.70143   0.55032   0.95507   0.00000  Uiso   1.00
C48    C     0.65934   0.48588   0.96209   0.00000  Uiso   1.00
C49    C     0.59075   0.48073   0.93988   0.00000  Uiso   1.00
C50    C     0.56153   0.41730   0.95108   0.00000  Uiso   1.00
C51    C     0.49036   0.32581   0.95712   0.00000  Uiso   1.00
C52    C     0.73366   0.55945   0.06649   0.00000  Uiso   1.00
C53    C     0.72757   0.61616   0.13206   0.00000  Uiso   1.00
C54    C     0.76092   0.61466   0.23113   0.00000  Uiso   1.00
C55    C     0.80518   0.63740   0.39922   0.00000  Uiso   1.00
C56    C     0.75932   0.53469   0.87733   0.00000  Uiso   1.00
C57    C     0.77483   0.57060   0.78387   0.00000  Uiso   1.00
C58    C     0.82980   0.54826   0.72370   0.00000  Uiso   1.00
C59    C     0.91392   0.53256   0.59809   0.00000  Uiso   1.00
C60    C     0.77150   0.44682   0.01444   0.00000  Uiso   1.00
C61    C     0.69739   0.42967   0.99434   0.00000  Uiso   1.00
C62    C     0.66827   0.36623   0.00556   0.00000  Uiso   1.00
C63    C     0.59965   0.36098   0.98338   0.00000  Uiso   1.00
C64    C     0.77171   0.50324   0.09874   0.00000  Uiso   1.00
C65    C     0.80508   0.50165   0.19773   0.00000  Uiso   1.00
C66    C     0.79904   0.55834   0.26343   0.00000  Uiso   1.00
C67    C     0.79738   0.47848   0.90958   0.00000  Uiso   1.00
C68    C     0.85235   0.45608   0.84954   0.00000  Uiso   1.00
C69    C     0.86793   0.49194   0.75600   0.00000  Uiso   1.00
H70    H     0.67181   0.59408   0.92998   0.00000  Uiso   1.00
H71    H     0.56131   0.52425   0.91494   0.00000  Uiso   1.00
H72    H     0.69812   0.65966   0.10708   0.00000  Uiso   1.00
H73    H     0.74537   0.61409   0.75894   0.00000  Uiso   1.00
H74    H     0.45559   0.42204   0.91253   0.00000  Uiso   1.00
H75    H     0.74406   0.70756   0.31764   0.00000  Uiso   1.00
H76    H     0.84371   0.61149   0.58353   0.00000  Uiso   1.00
H77    H     0.80113   0.40305   0.03954   0.00000  Uiso   1.00
H78    H     0.69773   0.32273   0.03052   0.00000  Uiso   1.00
H79    H     0.83453   0.45814   0.22266   0.00000  Uiso   1.00
H80    H     0.88179   0.41258   0.87452   0.00000  Uiso   1.00
H81    H     0.56631   0.25848   0.00634   0.00000  Uiso   1.00
H82    H     0.85479   0.54401   0.41145   0.00000  Uiso   1.00
H83    H     0.95443   0.44793   0.67734   0.00000  Uiso   1.00
O84    O     0.44059   0.29088   0.95156   0.00000  Uiso   1.00
O85    O     0.81907   0.66548   0.48303   0.00000  Uiso   1.00
O86    O     0.94979   0.53943   0.51990   0.00000  Uiso   1.00
N87    N     0.49584   0.39457   0.93583   0.00000  Uiso   1.00
N88    N     0.76554   0.66151   0.31459   0.00000  Uiso   1.00
N89    N     0.85871   0.57170   0.62827   0.00000  Uiso   1.00
N90    N     0.55542   0.30656   0.98631   0.00000  Uiso   1.00
N91    N     0.82511   0.57350   0.36507   0.00000  Uiso   1.00
N92    N     0.91828   0.48369   0.67875   0.00000  Uiso   1.00
C93    C     0.05032   0.79857   0.20507   0.00000  Uiso   1.00
C94    C     0.98588   0.84066   0.21209   0.00000  Uiso   1.00
C95    C     0.98073   0.90925   0.18988   0.00000  Uiso   1.00
C96    C     0.91730   0.93847   0.20108   0.00000  Uiso   1.00
C97    C     0.82581   0.00964   0.20712   0.00000  Uiso   1.00
C98    C     0.05945   0.76634   0.31649   0.00000  Uiso   1.00
C99    C     0.11616   0.77243   0.38206   0.00000  Uiso   1.00
C100   C     0.11466   0.73908   0.48113   0.00000  Uiso   1.00
C101   C     0.13740   0.69482   0.64922   0.00000  Uiso   1.00
C102   C     0.03469   0.74068   0.12733   0.00000  Uiso   1.00
C103   C     0.07060   0.72517   0.03387   0.00000  Uiso   1.00
C104   C     0.04826   0.67020   0.97370   0.00000  Uiso   1.00
C105   C     0.03256   0.58608   0.84809   0.00000  Uiso   1.00
C106   C     0.94682   0.72850   0.26444   0.00000  Uiso   1.00
C107   C     0.92967   0.80261   0.24434   0.00000  Uiso   1.00
C108   C     0.86623   0.83173   0.25556   0.00000  Uiso   1.00
C109   C     0.86098   0.90035   0.23338   0.00000  Uiso   1.00
C110   C     0.00324   0.72829   0.34874   0.00000  Uiso   1.00
C111   C     0.00165   0.69492   0.44773   0.00000  Uiso   1.00
C112   C     0.05834   0.70096   0.51343   0.00000  Uiso   1.00
C113   C     0.97848   0.70262   0.15958   0.00000  Uiso   1.00
C114   C     0.95608   0.64765   0.09954   0.00000  Uiso   1.00
C115   C     0.99194   0.63207   0.00600   0.00000  Uiso   1.00
H116   H     0.09408   0.82819   0.17998   0.00000  Uiso   1.00
H117   H     0.02425   0.93869   0.16494   0.00000  Uiso   1.00
H118   H     0.15966   0.80188   0.35708   0.00000  Uiso   1.00
H119   H     0.11409   0.75463   0.00894   0.00000  Uiso   1.00
H120   H     0.92204   0.04441   0.16253   0.00000  Uiso   1.00
H121   H     0.20756   0.75594   0.56764   0.00000  Uiso   1.00
H122   H     0.11149   0.65629   0.83353   0.00000  Uiso   1.00
H123   H     0.90305   0.69887   0.28954   0.00000  Uiso   1.00
H124   H     0.82273   0.80227   0.28052   0.00000  Uiso   1.00
H125   H     0.95814   0.66547   0.47266   0.00000  Uiso   1.00
H126   H     0.91258   0.61821   0.12452   0.00000  Uiso   1.00
H127   H     0.75848   0.93369   0.25634   0.00000  Uiso   1.00
H128   H     0.04401   0.64521   0.66145   0.00000  Uiso   1.00
H129   H     0.94793   0.54557   0.92734   0.00000  Uiso   1.00
O130   O     0.79088   0.05941   0.20156   0.00000  Uiso   1.00
O131   O     0.16548   0.68093   0.73303   0.00000  Uiso   1.00
O132   O     0.03943   0.55021   0.76990   0.00000  Uiso   1.00
N133   N     0.89457   0.00416   0.18583   0.00000  Uiso   1.00
N134   N     0.16151   0.73446   0.56459   0.00000  Uiso   1.00
N135   N     0.07170   0.64129   0.87827   0.00000  Uiso   1.00
N136   N     0.80656   0.94458   0.23631   0.00000  Uiso   1.00
N137   N     0.07350   0.67489   0.61507   0.00000  Uiso   1.00
N138   N     0.98369   0.58172   0.92875   0.00000  Uiso   1.00
C139   C     0.94968   0.20143   0.70507   0.00000  Uiso   1.00
C140   C     0.01412   0.15934   0.71209   0.00000  Uiso   1.00
C141   C     0.01927   0.09075   0.68988   0.00000  Uiso   1.00
C142   C     0.08270   0.06153   0.70108   0.00000  Uiso   1.00
C143   C     0.17419   0.99036   0.70712   0.00000  Uiso   1.00
C144   C     0.94055   0.23366   0.81649   0.00000  Uiso   1.00
C145   C     0.88384   0.22757   0.88206   0.00000  Uiso   1.00
C146   C     0.88534   0.26092   0.98113   0.00000  Uiso   1.00
C147   C     0.86260   0.30518   0.14922   0.00000  Uiso   1.00
C148   C     0.96531   0.25932   0.62733   0.00000  Uiso   1.00
C149   C     0.92940   0.27483   0.53387   0.00000  Uiso   1.00
C150   C     0.95174   0.32980   0.47370   0.00000  Uiso   1.00
C151   C     0.96744   0.41392   0.34809   0.00000  Uiso   1.00
C152   C     0.05318   0.27150   0.76444   0.00000  Uiso   1.00
C153   C     0.07033   0.19739   0.74434   0.00000  Uiso   1.00
C154   C     0.13377   0.16827   0.75556   0.00000  Uiso   1.00
C155   C     0.13902   0.09965   0.73338   0.00000  Uiso   1.00
C156   C     0.99676   0.27171   0.84874   0.00000  Uiso   1.00
C157   C     0.99835   0.30508   0.94773   0.00000  Uiso   1.00
C158   C     0.94166   0.29904   0.01343   0.00000  Uiso   1.00
C159   C     0.02152   0.29738   0.65958   0.00000  Uiso   1.00
C160   C     0.04392   0.35235   0.59954   0.00000  Uiso   1.00
C161   C     0.00806   0.36793   0.50600   0.00000  Uiso   1.00
H162   H     0.90592   0.17181   0.67998   0.00000  Uiso   1.00
H163   H     0.97575   0.06131   0.66494   0.00000  Uiso   1.00
H164   H     0.84034   0.19812   0.85708   0.00000  Uiso   1.00
H165   H     0.88591   0.24537   0.50894   0.00000  Uiso   1.00
H166   H     0.07796   0.95559   0.66253   0.00000  Uiso   1.00
H167   H     0.79244   0.24406   0.06764   0.00000  Uiso   1.00
H168   H     0.88851   0.34371   0.33353   0.00000  Uiso   1.00
H169   H     0.09695   0.30113   0.78954   0.00000  Uiso   1.00
H170   H     0.17727   0.19773   0.78052   0.00000  Uiso   1.00
H171   H     0.04186   0.33453   0.97266   0.00000  Uiso   1.00
H172   H     0.08742   0.38179   0.62452   0.00000  Uiso   1.00
H173   H     0.24152   0.06631   0.75634   0.00000  Uiso   1.00
H174   H     0.95599   0.35479   0.16145   0.00000  Uiso   1.00
H175   H     0.05207   0.45443   0.42734   0.00000  Uiso   1.00
O176   O     0.20912   0.94059   0.70156   0.00000  Uiso   1.00
O177   O     0.83452   0.31907   0.23303   0.00000  Uiso   1.00
O178   O     0.96057   0.44979   0.26990   0.00000  Uiso   1.00
N179   N     0.10543   0.99584   0.68583   0.00000  Uiso   1.00
N180   N     0.83849   0.26554   0.06459   0.00000  Uiso   1.00
N181   N     0.92830   0.35871   0.37827   0.00000  Uiso   1.00
N182   N     0.19344   0.05542   0.73631   0.00000  Uiso   1.00
N183   N     0.92650   0.32511   0.11507   0.00000  Uiso   1.00
N184   N     0.01631   0.41828   0.42875   0.00000  Uiso   1.00
C185   C     0.20143   0.94968   0.29493   0.00000  Uiso   1.00
C186   C     0.15934   0.01412   0.28791   0.00000  Uiso   1.00
C187   C     0.09075   0.01927   0.31012   0.00000  Uiso   1.00
C188   C     0.06153   0.08270   0.29892   0.00000  Uiso   1.00
C189   C     0.99036   0.17419   0.29288   0.00000  Uiso   1.00
C190   C     0.23366   0.94055   0.18351   0.00000  Uiso   1.00
C191   C     0.22757   0.88384   0.11794   0.00000  Uiso   1.00
C192   C     0.26092   0.88534   0.01887   0.00000  Uiso   1.00
C193   C     0.30518   0.86260   0.85078   0.00000  Uiso   1.00
C194   C     0.25932   0.96531   0.37267   0.00000  Uiso   1.00
C195   C     0.27483   0.92940   0.46613   0.00000  Uiso   1.00
C196   C     0.32980   0.95174   0.52630   0.00000  Uiso   1.00
C197   C     0.41392   0.96744   0.65191   0.00000  Uiso   1.00
C198   C     0.27150   0.05318   0.23556   0.00000  Uiso   1.00
C199   C     0.19739   0.07033   0.25566   0.00000  Uiso   1.00
C200   C     0.16827   0.13377   0.24444   0.00000  Uiso   1.00
C201   C     0.09965   0.13902   0.26662   0.00000  Uiso   1.00
C202   C     0.27171   0.99676   0.15126   0.00000  Uiso   1.00
C203   C     0.30508   0.99835   0.05227   0.00000  Uiso   1.00
C204   C     0.29904   0.94166   0.98657   0.00000  Uiso   1.00
C205   C     0.29738   0.02152   0.34042   0.00000  Uiso   1.00
C206   C     0.35235   0.04392   0.40046   0.00000  Uiso   1.00
C207   C     0.36793   0.00806   0.49400   0.00000  Uiso   1.00
H208   H     0.17181   0.90592   0.32002   0.00000  Uiso   1.00
H209   H     0.06131   0.97575   0.33506   0.00000  Uiso   1.00
H210   H     0.19812   0.84034   0.14292   0.00000  Uiso   1.00
H211   H     0.24537   0.88591   0.49106   0.00000  Uiso   1.00
H212   H     0.95559   0.07796   0.33747   0.00000  Uiso   1.00
H213   H     0.24406   0.79244   0.93236   0.00000  Uiso   1.00
H214   H     0.34371   0.88851   0.66647   0.00000  Uiso   1.00
H215   H     0.30113   0.09695   0.21046   0.00000  Uiso   1.00
H216   H     0.19773   0.17727   0.21948   0.00000  Uiso   1.00
H217   H     0.33453   0.04186   0.02734   0.00000  Uiso   1.00
H218   H     0.38179   0.08742   0.37548   0.00000  Uiso   1.00
H219   H     0.06631   0.24152   0.24366   0.00000  Uiso   1.00
H220   H     0.35479   0.95599   0.83855   0.00000  Uiso   1.00
H221   H     0.45443   0.05207   0.57266   0.00000  Uiso   1.00
O222   O     0.94059   0.20912   0.29844   0.00000  Uiso   1.00
O223   O     0.31907   0.83452   0.76697   0.00000  Uiso   1.00
O224   O     0.44979   0.96057   0.73010   0.00000  Uiso   1.00
N225   N     0.99584   0.10543   0.31417   0.00000  Uiso   1.00
N226   N     0.26554   0.83849   0.93541   0.00000  Uiso   1.00
N227   N     0.35871   0.92830   0.62173   0.00000  Uiso   1.00
N228   N     0.05542   0.19344   0.26369   0.00000  Uiso   1.00
N229   N     0.32511   0.92650   0.88493   0.00000  Uiso   1.00
N230   N     0.41828   0.01631   0.57125   0.00000  Uiso   1.00
C231   C     0.79857   0.05032   0.79493   0.00000  Uiso   1.00
C232   C     0.84066   0.98588   0.78791   0.00000  Uiso   1.00
C233   C     0.90925   0.98073   0.81012   0.00000  Uiso   1.00
C234   C     0.93847   0.91730   0.79892   0.00000  Uiso   1.00
C235   C     0.00964   0.82581   0.79288   0.00000  Uiso   1.00
C236   C     0.76634   0.05945   0.68351   0.00000  Uiso   1.00
C237   C     0.77243   0.11616   0.61794   0.00000  Uiso   1.00
C238   C     0.73908   0.11466   0.51887   0.00000  Uiso   1.00
C239   C     0.69482   0.13740   0.35078   0.00000  Uiso   1.00
C240   C     0.74068   0.03469   0.87267   0.00000  Uiso   1.00
C241   C     0.72517   0.07060   0.96613   0.00000  Uiso   1.00
C242   C     0.67020   0.04826   0.02630   0.00000  Uiso   1.00
C243   C     0.58608   0.03256   0.15191   0.00000  Uiso   1.00
C244   C     0.72850   0.94682   0.73556   0.00000  Uiso   1.00
C245   C     0.80261   0.92967   0.75566   0.00000  Uiso   1.00
C246   C     0.83173   0.86623   0.74444   0.00000  Uiso   1.00
C247   C     0.90035   0.86098   0.76662   0.00000  Uiso   1.00
C248   C     0.72829   0.00324   0.65126   0.00000  Uiso   1.00
C249   C     0.69492   0.00165   0.55227   0.00000  Uiso   1.00
C250   C     0.70096   0.05834   0.48657   0.00000  Uiso   1.00
C251   C     0.70262   0.97848   0.84042   0.00000  Uiso   1.00
C252   C     0.64765   0.95608   0.90046   0.00000  Uiso   1.00
C253   C     0.63207   0.99194   0.99400   0.00000  Uiso   1.00
H254   H     0.82819   0.09408   0.82002   0.00000  Uiso   1.00
H255   H     0.93869   0.02425   0.83506   0.00000  Uiso   1.00
H256   H     0.80188   0.15966   0.64292   0.00000  Uiso   1.00
H257   H     0.75463   0.11409   0.99106   0.00000  Uiso   1.00
H258   H     0.04441   0.92204   0.83747   0.00000  Uiso   1.00
H259   H     0.75594   0.20756   0.43236   0.00000  Uiso   1.00
H260   H     0.65629   0.11149   0.16647   0.00000  Uiso   1.00
H261   H     0.69887   0.90305   0.71046   0.00000  Uiso   1.00
H262   H     0.80227   0.82273   0.71948   0.00000  Uiso   1.00
H263   H     0.66547   0.95814   0.52734   0.00000  Uiso   1.00
H264   H     0.61821   0.91258   0.87548   0.00000  Uiso   1.00
H265   H     0.93369   0.75848   0.74366   0.00000  Uiso   1.00
H266   H     0.64521   0.04401   0.33855   0.00000  Uiso   1.00
H267   H     0.54557   0.94793   0.07266   0.00000  Uiso   1.00
O268   O     0.05941   0.79088   0.79844   0.00000  Uiso   1.00
O269   O     0.68093   0.16548   0.26697   0.00000  Uiso   1.00
O270   O     0.55021   0.03943   0.23010   0.00000  Uiso   1.00
N271   N     0.00416   0.89457   0.81417   0.00000  Uiso   1.00
N272   N     0.73446   0.16151   0.43541   0.00000  Uiso   1.00
N273   N     0.64129   0.07170   0.12173   0.00000  Uiso   1.00
N274   N     0.94458   0.80656   0.76369   0.00000  Uiso   1.00
N275   N     0.67489   0.07350   0.38493   0.00000  Uiso   1.00
N276   N     0.58172   0.98369   0.07125   0.00000  Uiso   1.00
C277   C     0.44968   0.29857   0.54493   0.00000  Uiso   1.00
C278   C     0.51412   0.34066   0.53791   0.00000  Uiso   1.00
C279   C     0.51927   0.40925   0.56012   0.00000  Uiso   1.00
C280   C     0.58270   0.43847   0.54892   0.00000  Uiso   1.00
C281   C     0.67419   0.50964   0.54288   0.00000  Uiso   1.00
C282   C     0.44055   0.26634   0.43351   0.00000  Uiso   1.00
C283   C     0.38384   0.27243   0.36794   0.00000  Uiso   1.00
C284   C     0.38534   0.23908   0.26887   0.00000  Uiso   1.00
C285   C     0.36260   0.19482   0.10078   0.00000  Uiso   1.00
C286   C     0.46531   0.24068   0.62267   0.00000  Uiso   1.00
C287   C     0.42940   0.22517   0.71613   0.00000  Uiso   1.00
C288   C     0.45174   0.17020   0.77630   0.00000  Uiso   1.00
C289   C     0.46744   0.08608   0.90191   0.00000  Uiso   1.00
C290   C     0.55318   0.22850   0.48556   0.00000  Uiso   1.00
C291   C     0.57033   0.30261   0.50566   0.00000  Uiso   1.00
C292   C     0.63377   0.33173   0.49444   0.00000  Uiso   1.00
C293   C     0.63902   0.40035   0.51662   0.00000  Uiso   1.00
C294   C     0.49676   0.22829   0.40126   0.00000  Uiso   1.00
C295   C     0.49835   0.19492   0.30227   0.00000  Uiso   1.00
C296   C     0.44166   0.20096   0.23657   0.00000  Uiso   1.00
C297   C     0.52152   0.20262   0.59042   0.00000  Uiso   1.00
C298   C     0.54392   0.14765   0.65046   0.00000  Uiso   1.00
C299   C     0.50806   0.13207   0.74400   0.00000  Uiso   1.00
H300   H     0.40592   0.32819   0.57002   0.00000  Uiso   1.00
H301   H     0.47575   0.43869   0.58506   0.00000  Uiso   1.00
H302   H     0.34034   0.30188   0.39292   0.00000  Uiso   1.00
H303   H     0.38591   0.25463   0.74106   0.00000  Uiso   1.00
H304   H     0.57796   0.54441   0.58747   0.00000  Uiso   1.00
H305   H     0.29244   0.25594   0.18236   0.00000  Uiso   1.00
H306   H     0.38851   0.15629   0.91647   0.00000  Uiso   1.00
H307   H     0.59695   0.19887   0.46046   0.00000  Uiso   1.00
H308   H     0.67727   0.30227   0.46948   0.00000  Uiso   1.00
H309   H     0.54186   0.16547   0.27734   0.00000  Uiso   1.00
H310   H     0.58742   0.11821   0.62548   0.00000  Uiso   1.00
H311   H     0.74152   0.43369   0.49366   0.00000  Uiso   1.00
H312   H     0.45599   0.14521   0.08855   0.00000  Uiso   1.00
H313   H     0.55207   0.04557   0.82266   0.00000  Uiso   1.00
O314   O     0.70912   0.55941   0.54844   0.00000  Uiso   1.00
O315   O     0.33452   0.18093   0.01697   0.00000  Uiso   1.00
O316   O     0.46057   0.05021   0.98010   0.00000  Uiso   1.00
N317   N     0.60543   0.50416   0.56417   0.00000  Uiso   1.00
N318   N     0.33849   0.23446   0.18541   0.00000  Uiso   1.00
N319   N     0.42830   0.14129   0.87173   0.00000  Uiso   1.00
N320   N     0.69344   0.44458   0.51369   0.00000  Uiso   1.00
N321   N     0.42650   0.17489   0.13493   0.00000  Uiso   1.00
N322   N     0.51631   0.08172   0.82125   0.00000  Uiso   1.00
C323   C     0.55032   0.70143   0.04493   0.00000  Uiso   1.00
C324   C     0.48588   0.65934   0.03791   0.00000  Uiso   1.00
C325   C     0.48073   0.59075   0.06012   0.00000  Uiso   1.00
C326   C     0.41730   0.56153   0.04892   0.00000  Uiso   1.00
C327   C     0.32581   0.49036   0.04288   0.00000  Uiso   1.00
C328   C     0.55945   0.73366   0.93351   0.00000  Uiso   1.00
C329   C     0.61616   0.72757   0.86794   0.00000  Uiso   1.00
C330   C     0.61466   0.76092   0.76887   0.00000  Uiso   1.00
C331   C     0.63740   0.80518   0.60078   0.00000  Uiso   1.00
C332   C     0.53469   0.75932   0.12267   0.00000  Uiso   1.00
C333   C     0.57060   0.77483   0.21613   0.00000  Uiso   1.00
C334   C     0.54826   0.82980   0.27630   0.00000  Uiso   1.00
C335   C     0.53256   0.91392   0.40191   0.00000  Uiso   1.00
C336   C     0.44682   0.77150   0.98556   0.00000  Uiso   1.00
C337   C     0.42967   0.69739   0.00566   0.00000  Uiso   1.00
C338   C     0.36623   0.66827   0.99444   0.00000  Uiso   1.00
C339   C     0.36098   0.59965   0.01662   0.00000  Uiso   1.00
C340   C     0.50324   0.77171   0.90126   0.00000  Uiso   1.00
C341   C     0.50165   0.80508   0.80227   0.00000  Uiso   1.00
C342   C     0.55834   0.79904   0.73657   0.00000  Uiso   1.00
C343   C     0.47848   0.79738   0.09042   0.00000  Uiso   1.00
C344   C     0.45608   0.85235   0.15046   0.00000  Uiso   1.00
C345   C     0.49194   0.86793   0.24400   0.00000  Uiso   1.00
H346   H     0.59408   0.67181   0.07002   0.00000  Uiso   1.00
H347   H     0.52425   0.56131   0.08506   0.00000  Uiso   1.00
H348   H     0.65966   0.69812   0.89292   0.00000  Uiso   1.00
H349   H     0.61409   0.74537   0.24106   0.00000  Uiso   1.00
H350   H     0.42204   0.45559   0.08747   0.00000  Uiso   1.00
H351   H     0.70756   0.74406   0.68236   0.00000  Uiso   1.00
H352   H     0.61149   0.84371   0.41647   0.00000  Uiso   1.00
H353   H     0.40305   0.80113   0.96046   0.00000  Uiso   1.00
H354   H     0.32273   0.69773   0.96948   0.00000  Uiso   1.00
H355   H     0.45814   0.83453   0.77734   0.00000  Uiso   1.00
H356   H     0.41258   0.88179   0.12548   0.00000  Uiso   1.00
H357   H     0.25848   0.56631   0.99366   0.00000  Uiso   1.00
H358   H     0.54401   0.85479   0.58855   0.00000  Uiso   1.00
H359   H     0.44793   0.95443   0.32266   0.00000  Uiso   1.00
O360   O     0.29088   0.44059   0.04844   0.00000  Uiso   1.00
O361   O     0.66548   0.81907   0.51697   0.00000  Uiso   1.00
O362   O     0.53943   0.94979   0.48010   0.00000  Uiso   1.00
N363   N     0.39457   0.49584   0.06417   0.00000  Uiso   1.00
N364   N     0.66151   0.76554   0.68541   0.00000  Uiso   1.00
N365   N     0.57170   0.85871   0.37173   0.00000  Uiso   1.00
N366   N     0.30656   0.55542   0.01369   0.00000  Uiso   1.00
N367   N     0.57350   0.82511   0.63493   0.00000  Uiso   1.00
N368   N     0.48369   0.91828   0.32125   0.00000  Uiso   1.00
