data_job_00959
_audit_creation_date              2018-12-19
_audit_creation_method            'Materials Studio'
_symmetry_space_group_name_H-M    'P1'
_symmetry_Int_Tables_number       1
_symmetry_cell_setting            triclinic
loop_
_symmetry_equiv_pos_as_xyz
  x,y,z
_cell_length_a                    28.4780
_cell_length_b                    12.3739
_cell_length_c                    26.7401
_cell_angle_alpha                 90.0000
_cell_angle_beta                  165.5707
_cell_angle_gamma                 90.0000
loop_
_atom_site_label
_atom_site_type_symbol
_atom_site_fract_x
_atom_site_fract_y
_atom_site_fract_z
_atom_site_U_iso_or_equiv
_atom_site_adp_type
_atom_site_occupancy
C1     C     0.58190   0.32126   0.69700   0.00000  Uiso   1.00
C2     C     0.61872   0.30288   0.67944   0.00000  Uiso   1.00
C3     C     0.48719   0.31404   0.50572   0.00000  Uiso   1.00
C4     C     0.54864   0.29356   0.52073   0.00000  Uiso   1.00
C5     C     0.57745   0.26962   0.46571   0.00000  Uiso   1.00
C6     C     0.63739   0.21651   0.78042   0.00000  Uiso   1.00
C7     C     0.52156   0.15506   0.69161   0.00000  Uiso   1.00
C8     C     0.59874   0.06188   0.79165   0.00000  Uiso   1.00
C9     C     0.65658   0.90388   0.89348   0.00000  Uiso   1.00
C10    C     0.72466   0.40585   0.86110   0.00000  Uiso   1.00
C11    C     0.68221   0.50359   0.84014   0.00000  Uiso   1.00
C12    C     0.83288   0.56982   0.00812   0.00000  Uiso   1.00
C13    C     0.02621   0.70581   0.23522   0.00000  Uiso   1.00
C14    C     0.92494   0.26505   0.03258   0.00000  Uiso   1.00
C15    C     0.80505   0.27235   0.86172   0.00000  Uiso   1.00
C16    C     0.86672   0.25186   0.87700   0.00000  Uiso   1.00
C17    C     0.73530   0.26298   0.70333   0.00000  Uiso   1.00
C18    C     0.82371   0.18598   0.96269   0.00000  Uiso   1.00
C19    C     0.90109   0.09287   0.06289   0.00000  Uiso   1.00
C20    C     0.78541   0.03129   0.97425   0.00000  Uiso   1.00
C21    C     0.91099   0.37533   0.04337   0.00000  Uiso   1.00
C22    C     0.06175   0.44141   0.21142   0.00000  Uiso   1.00
C23    C     0.01954   0.53923   0.19072   0.00000  Uiso   1.00
H24    H     0.43683   0.34502   0.55509   0.00000  Uiso   1.00
H25    H     0.34299   0.33766   0.36468   0.00000  Uiso   1.00
H26    H     0.37738   0.17871   0.55057   0.00000  Uiso   1.00
H27    H     0.53801   0.52719   0.69907   0.00000  Uiso   1.00
H28    H     0.32111   0.31599   0.23395   0.00000  Uiso   1.00
H29    H     0.39362   0.98086   0.62592   0.00000  Uiso   1.00
H30    H     0.73234   0.71570   0.93907   0.00000  Uiso   1.00
H31    H     0.07001   0.24128   0.17449   0.00000  Uiso   1.00
H32    H     0.01092   0.22823   0.01807   0.00000  Uiso   1.00
H33    H     0.04529   0.06928   0.20394   0.00000  Uiso   1.00
H34    H     0.20592   0.41776   0.35245   0.00000  Uiso   1.00
H35    H     0.86322   0.22717   0.76425   0.00000  Uiso   1.00
H36    H     0.93573   0.89204   0.15623   0.00000  Uiso   1.00
H37    H     0.27445   0.62688   0.46938   0.00000  Uiso   1.00
O38    O     0.54186   0.26483   0.38501   0.00000  Uiso   1.00
O39    O     0.63699   0.82516   0.89928   0.00000  Uiso   1.00
O40    O     0.08138   0.78926   0.31012   0.00000  Uiso   1.00
N41    N     0.45682   0.29690   0.38023   0.00000  Uiso   1.00
N42    N     0.52460   0.98356   0.74668   0.00000  Uiso   1.00
N43    N     0.84128   0.67056   0.03947   0.00000  Uiso   1.00
N44    N     0.74852   0.24911   0.66559   0.00000  Uiso   1.00
N45    N     0.81630   0.93577   0.03204   0.00000  Uiso   1.00
N46    N     0.13298   0.62277   0.32482   0.00000  Uiso   1.00
C47    C     0.41810   0.82126   0.80300   0.00000  Uiso   1.00
C48    C     0.38128   0.80288   0.82056   0.00000  Uiso   1.00
C49    C     0.51281   0.81404   0.99428   0.00000  Uiso   1.00
C50    C     0.45136   0.79356   0.97927   0.00000  Uiso   1.00
C51    C     0.42255   0.76962   0.03429   0.00000  Uiso   1.00
C52    C     0.36261   0.71651   0.71958   0.00000  Uiso   1.00
C53    C     0.47844   0.65506   0.80839   0.00000  Uiso   1.00
C54    C     0.40126   0.56188   0.70835   0.00000  Uiso   1.00
C55    C     0.34342   0.40388   0.60652   0.00000  Uiso   1.00
C56    C     0.27534   0.90585   0.63890   0.00000  Uiso   1.00
C57    C     0.31779   0.00359   0.65986   0.00000  Uiso   1.00
C58    C     0.16712   0.06982   0.49188   0.00000  Uiso   1.00
C59    C     0.97379   0.20581   0.26478   0.00000  Uiso   1.00
C60    C     0.07506   0.76505   0.46742   0.00000  Uiso   1.00
C61    C     0.19495   0.77235   0.63828   0.00000  Uiso   1.00
C62    C     0.13328   0.75186   0.62300   0.00000  Uiso   1.00
C63    C     0.26470   0.76298   0.79667   0.00000  Uiso   1.00
C64    C     0.17629   0.68598   0.53731   0.00000  Uiso   1.00
C65    C     0.09891   0.59287   0.43711   0.00000  Uiso   1.00
C66    C     0.21459   0.53129   0.52575   0.00000  Uiso   1.00
C67    C     0.08901   0.87533   0.45663   0.00000  Uiso   1.00
C68    C     0.93825   0.94141   0.28858   0.00000  Uiso   1.00
C69    C     0.98046   0.03923   0.30928   0.00000  Uiso   1.00
H70    H     0.56317   0.84502   0.94491   0.00000  Uiso   1.00
H71    H     0.65701   0.83766   0.13532   0.00000  Uiso   1.00
H72    H     0.62262   0.67871   0.94943   0.00000  Uiso   1.00
H73    H     0.46199   0.02719   0.80093   0.00000  Uiso   1.00
H74    H     0.67889   0.81599   0.26605   0.00000  Uiso   1.00
H75    H     0.60638   0.48086   0.87408   0.00000  Uiso   1.00
H76    H     0.26766   0.21570   0.56093   0.00000  Uiso   1.00
H77    H     0.92999   0.74128   0.32551   0.00000  Uiso   1.00
H78    H     0.98908   0.72823   0.48193   0.00000  Uiso   1.00
H79    H     0.95471   0.56928   0.29606   0.00000  Uiso   1.00
H80    H     0.79408   0.91776   0.14755   0.00000  Uiso   1.00
H81    H     0.13678   0.72717   0.73575   0.00000  Uiso   1.00
H82    H     0.06427   0.39204   0.34377   0.00000  Uiso   1.00
H83    H     0.72555   0.12688   0.03062   0.00000  Uiso   1.00
O84    O     0.45814   0.76483   0.11499   0.00000  Uiso   1.00
O85    O     0.36301   0.32516   0.60072   0.00000  Uiso   1.00
O86    O     0.91862   0.28926   0.18988   0.00000  Uiso   1.00
N87    N     0.54318   0.79690   0.11977   0.00000  Uiso   1.00
N88    N     0.47540   0.48356   0.75332   0.00000  Uiso   1.00
N89    N     0.15872   0.17056   0.46053   0.00000  Uiso   1.00
N90    N     0.25148   0.74911   0.83441   0.00000  Uiso   1.00
N91    N     0.18370   0.43577   0.46796   0.00000  Uiso   1.00
N92    N     0.86702   0.12277   0.17518   0.00000  Uiso   1.00
C93    C     0.41810   0.67874   0.30300   0.00000  Uiso   1.00
C94    C     0.38128   0.69712   0.32056   0.00000  Uiso   1.00
C95    C     0.51281   0.68596   0.49428   0.00000  Uiso   1.00
C96    C     0.45136   0.70644   0.47927   0.00000  Uiso   1.00
C97    C     0.42255   0.73038   0.53429   0.00000  Uiso   1.00
C98    C     0.36261   0.78349   0.21958   0.00000  Uiso   1.00
C99    C     0.47844   0.84494   0.30839   0.00000  Uiso   1.00
C100   C     0.40126   0.93812   0.20835   0.00000  Uiso   1.00
C101   C     0.34342   0.09612   0.10652   0.00000  Uiso   1.00
C102   C     0.27534   0.59415   0.13890   0.00000  Uiso   1.00
C103   C     0.31779   0.49641   0.15986   0.00000  Uiso   1.00
C104   C     0.16712   0.43018   0.99188   0.00000  Uiso   1.00
C105   C     0.97379   0.29419   0.76478   0.00000  Uiso   1.00
C106   C     0.07506   0.73495   0.96742   0.00000  Uiso   1.00
C107   C     0.19495   0.72765   0.13828   0.00000  Uiso   1.00
C108   C     0.13328   0.74814   0.12300   0.00000  Uiso   1.00
C109   C     0.26470   0.73702   0.29667   0.00000  Uiso   1.00
C110   C     0.17629   0.81402   0.03731   0.00000  Uiso   1.00
C111   C     0.09891   0.90713   0.93711   0.00000  Uiso   1.00
C112   C     0.21459   0.96871   0.02575   0.00000  Uiso   1.00
C113   C     0.08901   0.62467   0.95663   0.00000  Uiso   1.00
C114   C     0.93825   0.55859   0.78858   0.00000  Uiso   1.00
C115   C     0.98046   0.46077   0.80928   0.00000  Uiso   1.00
H116   H     0.56317   0.65498   0.44491   0.00000  Uiso   1.00
H117   H     0.65701   0.66234   0.63532   0.00000  Uiso   1.00
H118   H     0.62262   0.82129   0.44943   0.00000  Uiso   1.00
H119   H     0.46199   0.47281   0.30093   0.00000  Uiso   1.00
H120   H     0.67889   0.68401   0.76605   0.00000  Uiso   1.00
H121   H     0.60638   0.01914   0.37408   0.00000  Uiso   1.00
H122   H     0.26766   0.28430   0.06093   0.00000  Uiso   1.00
H123   H     0.92999   0.75872   0.82551   0.00000  Uiso   1.00
H124   H     0.98908   0.77177   0.98193   0.00000  Uiso   1.00
H125   H     0.95471   0.93072   0.79606   0.00000  Uiso   1.00
H126   H     0.79408   0.58224   0.64755   0.00000  Uiso   1.00
H127   H     0.13678   0.77283   0.23575   0.00000  Uiso   1.00
H128   H     0.06427   0.10796   0.84377   0.00000  Uiso   1.00
H129   H     0.72555   0.37312   0.53062   0.00000  Uiso   1.00
O130   O     0.45814   0.73517   0.61499   0.00000  Uiso   1.00
O131   O     0.36301   0.17484   0.10072   0.00000  Uiso   1.00
O132   O     0.91862   0.21074   0.68988   0.00000  Uiso   1.00
N133   N     0.54318   0.70310   0.61977   0.00000  Uiso   1.00
N134   N     0.47540   0.01644   0.25332   0.00000  Uiso   1.00
N135   N     0.15872   0.32944   0.96053   0.00000  Uiso   1.00
N136   N     0.25148   0.75089   0.33441   0.00000  Uiso   1.00
N137   N     0.18370   0.06423   0.96796   0.00000  Uiso   1.00
N138   N     0.86702   0.37723   0.67518   0.00000  Uiso   1.00
C139   C     0.58190   0.17874   0.19700   0.00000  Uiso   1.00
C140   C     0.61872   0.19712   0.17944   0.00000  Uiso   1.00
C141   C     0.48719   0.18596   0.00572   0.00000  Uiso   1.00
C142   C     0.54864   0.20644   0.02073   0.00000  Uiso   1.00
C143   C     0.57745   0.23038   0.96571   0.00000  Uiso   1.00
C144   C     0.63739   0.28349   0.28042   0.00000  Uiso   1.00
C145   C     0.52156   0.34494   0.19161   0.00000  Uiso   1.00
C146   C     0.59874   0.43812   0.29165   0.00000  Uiso   1.00
C147   C     0.65658   0.59612   0.39348   0.00000  Uiso   1.00
C148   C     0.72466   0.09415   0.36110   0.00000  Uiso   1.00
C149   C     0.68221   0.99641   0.34014   0.00000  Uiso   1.00
C150   C     0.83288   0.93018   0.50812   0.00000  Uiso   1.00
C151   C     0.02621   0.79419   0.73522   0.00000  Uiso   1.00
C152   C     0.92494   0.23495   0.53258   0.00000  Uiso   1.00
C153   C     0.80505   0.22765   0.36172   0.00000  Uiso   1.00
C154   C     0.86672   0.24814   0.37700   0.00000  Uiso   1.00
C155   C     0.73530   0.23702   0.20333   0.00000  Uiso   1.00
C156   C     0.82371   0.31402   0.46269   0.00000  Uiso   1.00
C157   C     0.90109   0.40713   0.56289   0.00000  Uiso   1.00
C158   C     0.78541   0.46871   0.47425   0.00000  Uiso   1.00
C159   C     0.91099   0.12467   0.54337   0.00000  Uiso   1.00
C160   C     0.06175   0.05859   0.71142   0.00000  Uiso   1.00
C161   C     0.01954   0.96077   0.69072   0.00000  Uiso   1.00
H162   H     0.43683   0.15498   0.05509   0.00000  Uiso   1.00
H163   H     0.34299   0.16234   0.86468   0.00000  Uiso   1.00
H164   H     0.37738   0.32129   0.05057   0.00000  Uiso   1.00
H165   H     0.53801   0.97281   0.19907   0.00000  Uiso   1.00
H166   H     0.32111   0.18401   0.73395   0.00000  Uiso   1.00
H167   H     0.39362   0.51914   0.12592   0.00000  Uiso   1.00
H168   H     0.73234   0.78430   0.43907   0.00000  Uiso   1.00
H169   H     0.07001   0.25872   0.67449   0.00000  Uiso   1.00
H170   H     0.01092   0.27177   0.51807   0.00000  Uiso   1.00
H171   H     0.04529   0.43072   0.70394   0.00000  Uiso   1.00
H172   H     0.20592   0.08224   0.85245   0.00000  Uiso   1.00
H173   H     0.86322   0.27283   0.26425   0.00000  Uiso   1.00
H174   H     0.93573   0.60796   0.65623   0.00000  Uiso   1.00
H175   H     0.27445   0.87312   0.96938   0.00000  Uiso   1.00
O176   O     0.54186   0.23517   0.88501   0.00000  Uiso   1.00
O177   O     0.63699   0.67484   0.39928   0.00000  Uiso   1.00
O178   O     0.08138   0.71074   0.81012   0.00000  Uiso   1.00
N179   N     0.45682   0.20310   0.88023   0.00000  Uiso   1.00
N180   N     0.52460   0.51644   0.24668   0.00000  Uiso   1.00
N181   N     0.84128   0.82944   0.53947   0.00000  Uiso   1.00
N182   N     0.74852   0.25089   0.16559   0.00000  Uiso   1.00
N183   N     0.81630   0.56423   0.53204   0.00000  Uiso   1.00
N184   N     0.13298   0.87723   0.82482   0.00000  Uiso   1.00
