data_job_06735
_audit_creation_date              2018-12-19
_audit_creation_method            'Materials Studio'
_symmetry_space_group_name_H-M    'P1'
_symmetry_Int_Tables_number       1
_symmetry_cell_setting            triclinic
loop_
_symmetry_equiv_pos_as_xyz
  x,y,z
_cell_length_a                    19.0552
_cell_length_b                    21.4007
_cell_length_c                    23.7565
_cell_angle_alpha                 105.0977
_cell_angle_beta                  80.5605
_cell_angle_gamma                 68.6305
loop_
_atom_site_label
_atom_site_type_symbol
_atom_site_fract_x
_atom_site_fract_y
_atom_site_fract_z
_atom_site_U_iso_or_equiv
_atom_site_adp_type
_atom_site_occupancy
C1     C     0.55093   0.32041   0.39574   0.00000  Uiso   1.00
C2     C     0.61591   0.32750   0.42304   0.00000  Uiso   1.00
C3     C     0.61723   0.33347   0.48240   0.00000  Uiso   1.00
C4     C     0.68192   0.33944   0.49856   0.00000  Uiso   1.00
C5     C     0.77349   0.35048   0.54730   0.00000  Uiso   1.00
C6     C     0.52301   0.38180   0.37150   0.00000  Uiso   1.00
C7     C     0.44623   0.43341   0.38753   0.00000  Uiso   1.00
C8     C     0.43272   0.48509   0.36030   0.00000  Uiso   1.00
C9     C     0.38006   0.58040   0.32901   0.00000  Uiso   1.00
C10    C     0.59099   0.25195   0.34000   0.00000  Uiso   1.00
C11    C     0.57134   0.19440   0.32953   0.00000  Uiso   1.00
C12    C     0.61505   0.13676   0.27578   0.00000  Uiso   1.00
C13    C     0.66793   0.03047   0.19558   0.00000  Uiso   1.00
C14    C     0.66346   0.32042   0.31887   0.00000  Uiso   1.00
C15    C     0.67703   0.32750   0.38129   0.00000  Uiso   1.00
C16    C     0.74173   0.33347   0.39736   0.00000  Uiso   1.00
C17    C     0.74315   0.33944   0.45673   0.00000  Uiso   1.00
C18    C     0.58413   0.38180   0.32975   0.00000  Uiso   1.00
C19    C     0.57073   0.43342   0.30249   0.00000  Uiso   1.00
C20    C     0.49395   0.48510   0.31848   0.00000  Uiso   1.00
C21    C     0.65211   0.25195   0.29825   0.00000  Uiso   1.00
C22    C     0.69585   0.19440   0.24450   0.00000  Uiso   1.00
C23    C     0.67628   0.13677   0.23395   0.00000  Uiso   1.00
H24    H     0.50335   0.32042   0.42824   0.00000  Uiso   1.00
H25    H     0.56992   0.33347   0.51469   0.00000  Uiso   1.00
H26    H     0.39894   0.43339   0.41983   0.00000  Uiso   1.00
H27    H     0.52404   0.19442   0.36185   0.00000  Uiso   1.00
H28    H     0.67066   0.34797   0.59214   0.00000  Uiso   1.00
H29    H     0.31015   0.55865   0.39211   0.00000  Uiso   1.00
H30    H     0.57395   0.05472   0.26984   0.00000  Uiso   1.00
H31    H     0.71104   0.32042   0.28637   0.00000  Uiso   1.00
H32    H     0.78902   0.33347   0.36504   0.00000  Uiso   1.00
H33    H     0.61804   0.43340   0.27018   0.00000  Uiso   1.00
H34    H     0.74314   0.19442   0.21220   0.00000  Uiso   1.00
H35    H     0.84849   0.34797   0.47068   0.00000  Uiso   1.00
H36    H     0.48798   0.55865   0.27065   0.00000  Uiso   1.00
H37    H     0.75177   0.05472   0.14838   0.00000  Uiso   1.00
O38    O     0.80711   0.35658   0.58573   0.00000  Uiso   1.00
O39    O     0.33413   0.63298   0.32329   0.00000  Uiso   1.00
O40    O     0.68022   0.97183   0.16288   0.00000  Uiso   1.00
N41    N     0.70182   0.34616   0.55275   0.00000  Uiso   1.00
N42    N     0.36477   0.54315   0.36574   0.00000  Uiso   1.00
N43    N     0.61138   0.07202   0.25143   0.00000  Uiso   1.00
N44    N     0.79751   0.34616   0.48740   0.00000  Uiso   1.00
N45    N     0.46045   0.54315   0.30039   0.00000  Uiso   1.00
N46    N     0.70707   0.07202   0.18607   0.00000  Uiso   1.00
C47    C     0.59037   0.98507   0.44742   0.00000  Uiso   1.00
C48    C     0.53350   0.05683   0.44721   0.00000  Uiso   1.00
C49    C     0.51823   0.12367   0.48697   0.00000  Uiso   1.00
C50    C     0.46423   0.18286   0.47932   0.00000  Uiso   1.00
C51    C     0.38157   0.29541   0.48599   0.00000  Uiso   1.00
C52    C     0.54222   0.94254   0.45353   0.00000  Uiso   1.00
C53    C     0.53430   0.91328   0.49859   0.00000  Uiso   1.00
C54    C     0.48766   0.87625   0.49625   0.00000  Uiso   1.00
C55    C     0.41858   0.81132   0.51269   0.00000  Uiso   1.00
C56    C     0.64828   0.94643   0.38375   0.00000  Uiso   1.00
C57    C     0.72955   0.92043   0.37014   0.00000  Uiso   1.00
C58    C     0.77220   0.88666   0.30905   0.00000  Uiso   1.00
C59    C     0.86780   0.82777   0.21715   0.00000  Uiso   1.00
C60    C     0.52162   0.97132   0.36312   0.00000  Uiso   1.00
C61    C     0.49615   0.04936   0.40142   0.00000  Uiso   1.00
C62    C     0.44217   0.10846   0.39371   0.00000  Uiso   1.00
C63    C     0.42683   0.17538   0.43345   0.00000  Uiso   1.00
C64    C     0.50488   0.93507   0.40774   0.00000  Uiso   1.00
C65    C     0.45824   0.89807   0.40533   0.00000  Uiso   1.00
C66    C     0.45025   0.86877   0.45038   0.00000  Uiso   1.00
C67    C     0.61094   0.93896   0.33796   0.00000  Uiso   1.00
C68    C     0.65348   0.90522   0.27688   0.00000  Uiso   1.00
C69    C     0.73479   0.87917   0.26318   0.00000  Uiso   1.00
H70    H     0.61944   0.99088   0.48306   0.00000  Uiso   1.00
H71    H     0.54714   0.12943   0.52241   0.00000  Uiso   1.00
H72    H     0.56321   0.91906   0.53402   0.00000  Uiso   1.00
H73    H     0.75842   0.92621   0.40559   0.00000  Uiso   1.00
H74    H     0.45048   0.27973   0.54584   0.00000  Uiso   1.00
H75    H     0.48440   0.83615   0.57031   0.00000  Uiso   1.00
H76    H     0.89604   0.85122   0.29949   0.00000  Uiso   1.00
H77    H     0.49255   0.96551   0.32747   0.00000  Uiso   1.00
H78    H     0.41328   0.10266   0.35827   0.00000  Uiso   1.00
H79    H     0.42935   0.89230   0.36989   0.00000  Uiso   1.00
H80    H     0.62456   0.89945   0.24146   0.00000  Uiso   1.00
H81    H     0.34184   0.25801   0.41263   0.00000  Uiso   1.00
H82    H     0.37576   0.81442   0.43710   0.00000  Uiso   1.00
H83    H     0.78739   0.82950   0.16628   0.00000  Uiso   1.00
O84    O     0.34628   0.35955   0.50232   0.00000  Uiso   1.00
O85    O     0.39079   0.77758   0.53442   0.00000  Uiso   1.00
O86    O     0.93085   0.79736   0.17911   0.00000  Uiso   1.00
N87    N     0.43580   0.25580   0.51026   0.00000  Uiso   1.00
N88    N     0.46750   0.84108   0.53314   0.00000  Uiso   1.00
N89    N     0.85235   0.85516   0.27995   0.00000  Uiso   1.00
N90    N     0.37734   0.24411   0.43858   0.00000  Uiso   1.00
N91    N     0.40904   0.82939   0.46146   0.00000  Uiso   1.00
N92    N     0.79389   0.84347   0.20827   0.00000  Uiso   1.00
C93    C     0.96574   0.98052   0.40445   0.00000  Uiso   1.00
C94    C     0.02390   0.90726   0.40081   0.00000  Uiso   1.00
C95    C     0.00721   0.86469   0.43109   0.00000  Uiso   1.00
C96    C     0.06847   0.79945   0.42178   0.00000  Uiso   1.00
C97    C     0.14734   0.68903   0.42197   0.00000  Uiso   1.00
C98    C     0.00230   0.03188   0.42522   0.00000  Uiso   1.00
C99    C     0.96745   0.09411   0.47601   0.00000  Uiso   1.00
C100   C     0.01052   0.13379   0.48725   0.00000  Uiso   1.00
C101   C     0.05584   0.21688   0.52530   0.00000  Uiso   1.00
C102   C     0.96592   0.97489   0.33910   0.00000  Uiso   1.00
C103   C     0.90048   0.98921   0.31749   0.00000  Uiso   1.00
C104   C     0.91293   0.98092   0.25622   0.00000  Uiso   1.00
C105   C     0.90176   0.97552   0.16056   0.00000  Uiso   1.00
C106   C     0.10421   0.94035   0.33407   0.00000  Uiso   1.00
C107   C     0.09911   0.88544   0.36258   0.00000  Uiso   1.00
C108   C     0.16041   0.82025   0.35322   0.00000  Uiso   1.00
C109   C     0.14381   0.77759   0.38348   0.00000  Uiso   1.00
C110   C     0.07751   0.01007   0.38699   0.00000  Uiso   1.00
C111   C     0.12065   0.04967   0.39815   0.00000  Uiso   1.00
C112   C     0.08587   0.11193   0.44895   0.00000  Uiso   1.00
C113   C     0.04114   0.95307   0.30087   0.00000  Uiso   1.00
C114   C     0.05368   0.94476   0.23963   0.00000  Uiso   1.00
C115   C     0.98827   0.95906   0.21793   0.00000  Uiso   1.00
H116   H     0.90719   0.99751   0.43421   0.00000  Uiso   1.00
H117   H     0.94900   0.88160   0.46067   0.00000  Uiso   1.00
H118   H     0.90924   0.11098   0.50558   0.00000  Uiso   1.00
H119   H     0.84229   0.00609   0.34708   0.00000  Uiso   1.00
H120   H     0.02853   0.74348   0.47317   0.00000  Uiso   1.00
H121   H     0.94468   0.22716   0.56786   0.00000  Uiso   1.00
H122   H     0.80350   0.00599   0.23363   0.00000  Uiso   1.00
H123   H     0.16277   0.92336   0.30431   0.00000  Uiso   1.00
H124   H     0.21861   0.80338   0.32364   0.00000  Uiso   1.00
H125   H     0.17885   0.03277   0.36856   0.00000  Uiso   1.00
H126   H     0.11190   0.92788   0.21006   0.00000  Uiso   1.00
H127   H     0.24735   0.67999   0.36195   0.00000  Uiso   1.00
H128   H     0.16351   0.16368   0.45664   0.00000  Uiso   1.00
H129   H     0.02232   0.94251   0.12241   0.00000  Uiso   1.00
O130   O     0.17007   0.63415   0.43263   0.00000  Uiso   1.00
O131   O     0.06006   0.26874   0.55686   0.00000  Uiso   1.00
O132   O     0.87483   0.97856   0.11836   0.00000  Uiso   1.00
N133   N     0.07236   0.74499   0.44433   0.00000  Uiso   1.00
N134   N     0.99398   0.19721   0.53287   0.00000  Uiso   1.00
N135   N     0.86198   0.99045   0.22039   0.00000  Uiso   1.00
N136   N     0.19011   0.71083   0.38448   0.00000  Uiso   1.00
N137   N     0.11172   0.16305   0.47302   0.00000  Uiso   1.00
N138   N     0.97973   0.95629   0.16055   0.00000  Uiso   1.00
C139   C     0.69224   0.74021   0.94541   0.00000  Uiso   1.00
C140   C     0.61461   0.74086   0.93637   0.00000  Uiso   1.00
C141   C     0.56639   0.71966   0.96960   0.00000  Uiso   1.00
C142   C     0.49783   0.72429   0.95434   0.00000  Uiso   1.00
C143   C     0.38024   0.72154   0.94745   0.00000  Uiso   1.00
C144   C     0.68355   0.81653   0.95690   0.00000  Uiso   1.00
C145   C     0.69331   0.85894   0.00740   0.00000  Uiso   1.00
C146   C     0.68280   0.92728   0.00942   0.00000  Uiso   1.00
C147   C     0.67231   0.04198   0.03438   0.00000  Uiso   1.00
C148   C     0.75388   0.69473   0.88390   0.00000  Uiso   1.00
C149   C     0.82278   0.63474   0.87300   0.00000  Uiso   1.00
C150   C     0.87149   0.60054   0.81356   0.00000  Uiso   1.00
C151   C     0.97019   0.52614   0.72517   0.00000  Uiso   1.00
C152   C     0.65623   0.78615   0.85922   0.00000  Uiso   1.00
C153   C     0.59505   0.76582   0.88956   0.00000  Uiso   1.00
C154   C     0.52654   0.77049   0.87424   0.00000  Uiso   1.00
C155   C     0.47823   0.74929   0.90744   0.00000  Uiso   1.00
C156   C     0.66399   0.84149   0.91009   0.00000  Uiso   1.00
C157   C     0.65347   0.90977   0.91204   0.00000  Uiso   1.00
C158   C     0.66320   0.95228   0.96252   0.00000  Uiso   1.00
C159   C     0.73432   0.71968   0.83708   0.00000  Uiso   1.00
C160   C     0.78293   0.68557   0.77765   0.00000  Uiso   1.00
C161   C     0.85189   0.62554   0.76667   0.00000  Uiso   1.00
H162   H     0.70747   0.72079   0.98186   0.00000  Uiso   1.00
H163   H     0.58154   0.70035   0.00583   0.00000  Uiso   1.00
H164   H     0.70846   0.83961   0.04361   0.00000  Uiso   1.00
H165   H     0.83790   0.61545   0.90924   0.00000  Uiso   1.00
H166   H     0.43329   0.68873   0.01177   0.00000  Uiso   1.00
H167   H     0.70092   0.98236   0.09143   0.00000  Uiso   1.00
H168   H     0.97388   0.50966   0.80809   0.00000  Uiso   1.00
H169   H     0.64100   0.80558   0.82278   0.00000  Uiso   1.00
H170   H     0.51142   0.78980   0.83801   0.00000  Uiso   1.00
H171   H     0.63834   0.92906   0.87580   0.00000  Uiso   1.00
H172   H     0.76778   0.70490   0.74143   0.00000  Uiso   1.00
H173   H     0.37637   0.76133   0.87557   0.00000  Uiso   1.00
H174   H     0.64401   0.05496   0.95523   0.00000  Uiso   1.00
H175   H     0.91696   0.58226   0.67189   0.00000  Uiso   1.00
O176   O     0.32078   0.71314   0.95658   0.00000  Uiso   1.00
O177   O     0.67191   0.09836   0.06109   0.00000  Uiso   1.00
O178   O     0.03002   0.47820   0.68935   0.00000  Uiso   1.00
N179   N     0.43768   0.70797   0.97762   0.00000  Uiso   1.00
N180   N     0.68789   0.98250   0.05210   0.00000  Uiso   1.00
N181   N     0.94309   0.54058   0.78720   0.00000  Uiso   1.00
N182   N     0.40706   0.74703   0.90433   0.00000  Uiso   1.00
N183   N     0.65727   0.02156   0.97881   0.00000  Uiso   1.00
N184   N     0.91247   0.57964   0.71391   0.00000  Uiso   1.00
C185   C     0.94380   0.39286   0.94309   0.00000  Uiso   1.00
C186   C     0.93010   0.47112   0.96275   0.00000  Uiso   1.00
C187   C     0.86866   0.52715   0.01043   0.00000  Uiso   1.00
C188   C     0.86650   0.59487   0.02115   0.00000  Uiso   1.00
C189   C     0.83654   0.71468   0.05713   0.00000  Uiso   1.00
C190   C     0.02662   0.35076   0.94548   0.00000  Uiso   1.00
C191   C     0.04632   0.30558   0.97865   0.00000  Uiso   1.00
C192   C     0.12541   0.27197   0.97483   0.00000  Uiso   1.00
C193   C     0.24530   0.20487   0.98397   0.00000  Uiso   1.00
C194   C     0.94692   0.37084   0.87597   0.00000  Uiso   1.00
C195   C     0.89963   0.34252   0.85068   0.00000  Uiso   1.00
C196   C     0.91163   0.32581   0.78832   0.00000  Uiso   1.00
C197   C     0.90778   0.28989   0.68953   0.00000  Uiso   1.00
C198   C     0.04921   0.41350   0.87732   0.00000  Uiso   1.00
C199   C     0.98736   0.48233   0.92702   0.00000  Uiso   1.00
C200   C     0.98528   0.54999   0.93767   0.00000  Uiso   1.00
C201   C     0.92385   0.60610   0.98536   0.00000  Uiso   1.00
C202   C     0.08387   0.36197   0.90976   0.00000  Uiso   1.00
C203   C     0.16294   0.32842   0.90589   0.00000  Uiso   1.00
C204   C     0.18277   0.28320   0.93904   0.00000  Uiso   1.00
C205   C     0.00417   0.38206   0.84024   0.00000  Uiso   1.00
C206   C     0.01625   0.36537   0.77791   0.00000  Uiso   1.00
C207   C     0.96899   0.33704   0.75253   0.00000  Uiso   1.00
H208   H     0.89923   0.38413   0.97090   0.00000  Uiso   1.00
H209   H     0.82437   0.51845   0.03807   0.00000  Uiso   1.00
H210   H     0.00200   0.29691   0.00628   0.00000  Uiso   1.00
H211   H     0.85533   0.33385   0.87833   0.00000  Uiso   1.00
H212   H     0.76664   0.67230   0.09680   0.00000  Uiso   1.00
H213   H     0.14120   0.20516   0.02977   0.00000  Uiso   1.00
H214   H     0.83191   0.28306   0.75995   0.00000  Uiso   1.00
H215   H     0.09378   0.42223   0.84951   0.00000  Uiso   1.00
H216   H     0.02960   0.55865   0.91002   0.00000  Uiso   1.00
H217   H     0.20724   0.33711   0.87823   0.00000  Uiso   1.00
H218   H     0.06056   0.37405   0.75028   0.00000  Uiso   1.00
H219   H     0.93322   0.70493   0.99287   0.00000  Uiso   1.00
H220   H     0.30777   0.23778   0.92583   0.00000  Uiso   1.00
H221   H     0.99848   0.31569   0.65602   0.00000  Uiso   1.00
O222   O     0.80421   0.77766   0.08685   0.00000  Uiso   1.00
O223   O     0.29561   0.16477   0.99889   0.00000  Uiso   1.00
O224   O     0.88983   0.26699   0.64490   0.00000  Uiso   1.00
N225   N     0.81464   0.66126   0.06403   0.00000  Uiso   1.00
N226   N     0.16483   0.22452   0.00136   0.00000  Uiso   1.00
N227   N     0.87568   0.29734   0.74911   0.00000  Uiso   1.00
N228   N     0.90428   0.67882   0.00811   0.00000  Uiso   1.00
N229   N     0.25446   0.24208   0.94544   0.00000  Uiso   1.00
N230   N     0.96532   0.31490   0.69319   0.00000  Uiso   1.00
C231   C     0.55700   0.50687   0.90266   0.00000  Uiso   1.00
C232   C     0.60658   0.45064   0.92572   0.00000  Uiso   1.00
C233   C     0.61984   0.46390   0.98246   0.00000  Uiso   1.00
C234   C     0.66690   0.40521   0.99487   0.00000  Uiso   1.00
C235   C     0.73890   0.32845   0.03720   0.00000  Uiso   1.00
C236   C     0.49472   0.48358   0.88468   0.00000  Uiso   1.00
C237   C     0.41393   0.52455   0.90691   0.00000  Uiso   1.00
C238   C     0.36683   0.49359   0.88476   0.00000  Uiso   1.00
C239   C     0.26517   0.46800   0.86334   0.00000  Uiso   1.00
C240   C     0.61080   0.49880   0.84355   0.00000  Uiso   1.00
C241   C     0.62760   0.55257   0.83120   0.00000  Uiso   1.00
C242   C     0.67822   0.53442   0.77442   0.00000  Uiso   1.00
C243   C     0.75679   0.53246   0.68915   0.00000  Uiso   1.00
C244   C     0.61701   0.37906   0.82381   0.00000  Uiso   1.00
C245   C     0.63917   0.38121   0.88289   0.00000  Uiso   1.00
C246   C     0.68623   0.32249   0.89521   0.00000  Uiso   1.00
C247   C     0.69956   0.33566   0.95196   0.00000  Uiso   1.00
C248   C     0.52731   0.41416   0.84185   0.00000  Uiso   1.00
C249   C     0.48033   0.38314   0.81966   0.00000  Uiso   1.00
C250   C     0.39948   0.42404   0.84185   0.00000  Uiso   1.00
C251   C     0.64340   0.42938   0.80072   0.00000  Uiso   1.00
C252   C     0.69400   0.41115   0.74395   0.00000  Uiso   1.00
C253   C     0.71087   0.46488   0.73151   0.00000  Uiso   1.00
H254   H     0.53161   0.56092   0.93601   0.00000  Uiso   1.00
H255   H     0.59459   0.51763   0.01559   0.00000  Uiso   1.00
H256   H     0.38872   0.57827   0.94005   0.00000  Uiso   1.00
H257   H     0.60236   0.60628   0.86435   0.00000  Uiso   1.00
H258   H     0.67877   0.43902   0.08495   0.00000  Uiso   1.00
H259   H     0.24468   0.56690   0.92564   0.00000  Uiso   1.00
H260   H     0.69518   0.62596   0.76602   0.00000  Uiso   1.00
H261   H     0.64238   0.32500   0.79046   0.00000  Uiso   1.00
H262   H     0.71145   0.26877   0.86206   0.00000  Uiso   1.00
H263   H     0.50557   0.32941   0.78651   0.00000  Uiso   1.00
H264   H     0.71921   0.35742   0.71082   0.00000  Uiso   1.00
H265   H     0.77361   0.23703   0.96034   0.00000  Uiso   1.00
H266   H     0.33952   0.36491   0.80103   0.00000  Uiso   1.00
H267   H     0.79002   0.42397   0.64141   0.00000  Uiso   1.00
O268   O     0.76960   0.30529   0.07238   0.00000  Uiso   1.00
O269   O     0.20009   0.47306   0.86336   0.00000  Uiso   1.00
O270   O     0.79114   0.55055   0.65395   0.00000  Uiso   1.00
N271   N     0.69163   0.39920   0.04579   0.00000  Uiso   1.00
N272   N     0.28578   0.51875   0.89686   0.00000  Uiso   1.00
N273   N     0.70694   0.57398   0.74762   0.00000  Uiso   1.00
N274   N     0.74266   0.29051   0.97874   0.00000  Uiso   1.00
N275   N     0.33681   0.41007   0.82980   0.00000  Uiso   1.00
N276   N     0.75797   0.46529   0.68056   0.00000  Uiso   1.00
C277   C     0.26339   0.69702   0.72882   0.00000  Uiso   1.00
C278   C     0.20099   0.69289   0.69710   0.00000  Uiso   1.00
C279   C     0.18193   0.72317   0.65351   0.00000  Uiso   1.00
C280   C     0.12315   0.71335   0.62996   0.00000  Uiso   1.00
C281   C     0.03211   0.71280   0.57773   0.00000  Uiso   1.00
C282   C     0.31963   0.61981   0.71693   0.00000  Uiso   1.00
C283   C     0.40033   0.58867   0.69003   0.00000  Uiso   1.00
C284   C     0.44142   0.51734   0.68319   0.00000  Uiso   1.00
C285   C     0.53459   0.40335   0.66179   0.00000  Uiso   1.00
C286   C     0.22123   0.72949   0.79689   0.00000  Uiso   1.00
C287   C     0.21920   0.79055   0.83723   0.00000  Uiso   1.00
C288   C     0.17746   0.81155   0.89772   0.00000  Uiso   1.00
C289   C     0.11784   0.86785   0.00048   0.00000  Uiso   1.00
C290   C     0.19288   0.62572   0.76453   0.00000  Uiso   1.00
C291   C     0.16269   0.65416   0.71649   0.00000  Uiso   1.00
C292   C     0.10392   0.64429   0.69301   0.00000  Uiso   1.00
C293   C     0.08478   0.67456   0.64939   0.00000  Uiso   1.00
C294   C     0.28134   0.58109   0.73632   0.00000  Uiso   1.00
C295   C     0.32232   0.50979   0.72953   0.00000  Uiso   1.00
C296   C     0.40305   0.47854   0.70262   0.00000  Uiso   1.00
C297   C     0.18293   0.69076   0.81629   0.00000  Uiso   1.00
C298   C     0.14118   0.71167   0.87673   0.00000  Uiso   1.00
C299   C     0.13909   0.77275   0.91715   0.00000  Uiso   1.00
H300   H     0.29321   0.72716   0.71372   0.00000  Uiso   1.00
H301   H     0.21159   0.75314   0.63851   0.00000  Uiso   1.00
H302   H     0.42996   0.61866   0.67503   0.00000  Uiso   1.00
H303   H     0.24885   0.82050   0.82220   0.00000  Uiso   1.00
H304   H     0.10423   0.76483   0.56365   0.00000  Uiso   1.00
H305   H     0.56466   0.48128   0.64068   0.00000  Uiso   1.00
H306   H     0.18277   0.90691   0.95103   0.00000  Uiso   1.00
H307   H     0.16306   0.59557   0.77962   0.00000  Uiso   1.00
H308   H     0.07429   0.61432   0.70803   0.00000  Uiso   1.00
H309   H     0.29266   0.47984   0.74455   0.00000  Uiso   1.00
H310   H     0.11155   0.68168   0.89172   0.00000  Uiso   1.00
H311   H     0.99279   0.65216   0.62007   0.00000  Uiso   1.00
H312   H     0.45323   0.36860   0.69710   0.00000  Uiso   1.00
H313   H     0.07133   0.79424   0.00745   0.00000  Uiso   1.00
O314   O     0.99249   0.72318   0.54356   0.00000  Uiso   1.00
O315   O     0.59656   0.35118   0.64463   0.00000  Uiso   1.00
O316   O     0.09552   0.90960   0.05180   0.00000  Uiso   1.00
N317   N     0.09017   0.73575   0.58677   0.00000  Uiso   1.00
N318   N     0.52065   0.47064   0.65877   0.00000  Uiso   1.00
N319   N     0.16363   0.86857   0.94893   0.00000  Uiso   1.00
N320   N     0.03021   0.67512   0.61713   0.00000  Uiso   1.00
N321   N     0.46069   0.41001   0.68913   0.00000  Uiso   1.00
N322   N     0.10367   0.80794   0.97929   0.00000  Uiso   1.00
C323   C     0.24272   0.00195   0.76360   0.00000  Uiso   1.00
C324   C     0.31592   0.93142   0.74376   0.00000  Uiso   1.00
C325   C     0.33684   0.87215   0.69231   0.00000  Uiso   1.00
C326   C     0.40608   0.81277   0.68212   0.00000  Uiso   1.00
C327   C     0.51268   0.70328   0.64524   0.00000  Uiso   1.00
C328   C     0.27213   0.06007   0.76920   0.00000  Uiso   1.00
C329   C     0.25623   0.10898   0.73915   0.00000  Uiso   1.00
C330   C     0.28861   0.15790   0.75038   0.00000  Uiso   1.00
C331   C     0.32718   0.24817   0.75303   0.00000  Uiso   1.00
C332   C     0.19889   0.01432   0.82813   0.00000  Uiso   1.00
C333   C     0.12140   0.02478   0.84763   0.00000  Uiso   1.00
C334   C     0.09211   0.03520   0.90848   0.00000  Uiso   1.00
C335   C     0.01696   0.05444   0.00262   0.00000  Uiso   1.00
C336   C     0.32850   0.00189   0.83700   0.00000  Uiso   1.00
C337   C     0.36251   0.93139   0.78363   0.00000  Uiso   1.00
C338   C     0.43174   0.87209   0.77352   0.00000  Uiso   1.00
C339   C     0.45276   0.81274   0.72207   0.00000  Uiso   1.00
C340   C     0.31873   0.06004   0.80907   0.00000  Uiso   1.00
C341   C     0.35114   0.10891   0.82036   0.00000  Uiso   1.00
C342   C     0.33529   0.15787   0.79033   0.00000  Uiso   1.00
C343   C     0.24548   0.01429   0.86800   0.00000  Uiso   1.00
C344   C     0.21631   0.02471   0.92884   0.00000  Uiso   1.00
C345   C     0.13879   0.03518   0.94843   0.00000  Uiso   1.00
H346   H     0.20644   0.00198   0.73256   0.00000  Uiso   1.00
H347   H     0.30077   0.87220   0.66146   0.00000  Uiso   1.00
H348   H     0.22016   0.10899   0.70830   0.00000  Uiso   1.00
H349   H     0.08536   0.02480   0.81676   0.00000  Uiso   1.00
H350   H     0.42590   0.72831   0.60021   0.00000  Uiso   1.00
H351   H     0.25593   0.22761   0.69898   0.00000  Uiso   1.00
H352   H     0.97166   0.05008   0.92770   0.00000  Uiso   1.00
H353   H     0.36478   0.00187   0.86805   0.00000  Uiso   1.00
H354   H     0.46779   0.87208   0.80439   0.00000  Uiso   1.00
H355   H     0.38719   0.10887   0.85122   0.00000  Uiso   1.00
H356   H     0.25238   0.02468   0.95968   0.00000  Uiso   1.00
H357   H     0.56147   0.72821   0.71621   0.00000  Uiso   1.00
H358   H     0.39149   0.22752   0.81499   0.00000  Uiso   1.00
H359   H     0.10722   0.04999   0.04370   0.00000  Uiso   1.00
O360   O     0.55861   0.64289   0.61388   0.00000  Uiso   1.00
O361   O     0.33559   0.29797   0.74347   0.00000  Uiso   1.00
O362   O     0.96264   0.06505   0.04354   0.00000  Uiso   1.00
N363   N     0.44366   0.74609   0.63626   0.00000  Uiso   1.00
N364   N     0.28476   0.21291   0.72859   0.00000  Uiso   1.00
N365   N     0.01898   0.04695   0.94243   0.00000  Uiso   1.00
N366   N     0.51661   0.74604   0.69868   0.00000  Uiso   1.00
N367   N     0.35770   0.21286   0.79101   0.00000  Uiso   1.00
N368   N     0.09193   0.04690   0.00484   0.00000  Uiso   1.00
C369   C     0.82845   0.00444   0.80706   0.00000  Uiso   1.00
C370   C     0.87807   0.04546   0.79979   0.00000  Uiso   1.00
C371   C     0.92795   0.03598   0.74556   0.00000  Uiso   1.00
C372   C     0.96819   0.07877   0.74846   0.00000  Uiso   1.00
C373   C     0.04664   0.13483   0.72878   0.00000  Uiso   1.00
C374   C     0.74369   0.06084   0.83680   0.00000  Uiso   1.00
C375   C     0.68058   0.06427   0.81369   0.00000  Uiso   1.00
C376   C     0.60769   0.12000   0.84775   0.00000  Uiso   1.00
C377   C     0.47749   0.19990   0.88554   0.00000  Uiso   1.00
C378   C     0.85176   0.97066   0.85420   0.00000  Uiso   1.00
C379   C     0.87950   0.89826   0.84573   0.00000  Uiso   1.00
C380   C     0.89758   0.87807   0.89445   0.00000  Uiso   1.00
C381   C     0.93519   0.81794   0.95926   0.00000  Uiso   1.00
C382   C     0.81121   0.09731   0.90865   0.00000  Uiso   1.00
C383   C     0.86870   0.09591   0.85497   0.00000  Uiso   1.00
C384   C     0.90888   0.13873   0.85796   0.00000  Uiso   1.00
C385   C     0.95881   0.12930   0.80374   0.00000  Uiso   1.00
C386   C     0.73432   0.11128   0.89198   0.00000  Uiso   1.00
C387   C     0.66151   0.16702   0.92608   0.00000  Uiso   1.00
C388   C     0.59831   0.17054   0.90303   0.00000  Uiso   1.00
C389   C     0.84240   0.02110   0.90938   0.00000  Uiso   1.00
C390   C     0.86043   0.00101   0.95813   0.00000  Uiso   1.00
C391   C     0.88820   0.92860   0.94973   0.00000  Uiso   1.00
H392   H     0.83573   0.96517   0.76410   0.00000  Uiso   1.00
H393   H     0.93518   0.99694   0.70287   0.00000  Uiso   1.00
H394   H     0.68784   0.02522   0.77099   0.00000  Uiso   1.00
H395   H     0.88674   0.85924   0.80303   0.00000  Uiso   1.00
H396   H     0.04128   0.05443   0.65931   0.00000  Uiso   1.00
H397   H     0.51976   0.11405   0.80296   0.00000  Uiso   1.00
H398   H     0.93916   0.76405   0.87051   0.00000  Uiso   1.00
H399   H     0.80391   0.13658   0.95161   0.00000  Uiso   1.00
H400   H     0.90162   0.17776   0.90066   0.00000  Uiso   1.00
H401   H     0.65428   0.20604   0.96878   0.00000  Uiso   1.00
H402   H     0.85318   0.04006   0.00082   0.00000  Uiso   1.00
H403   H     0.01404   0.20119   0.81985   0.00000  Uiso   1.00
H404   H     0.49251   0.26081   0.96349   0.00000  Uiso   1.00
H405   H     0.91193   0.91081   0.03105   0.00000  Uiso   1.00
O406   O     0.09249   0.15182   0.70268   0.00000  Uiso   1.00
O407   O     0.40827   0.23003   0.89114   0.00000  Uiso   1.00
O408   O     0.95853   0.77084   0.97977   0.00000  Uiso   1.00
N409   N     0.02147   0.08331   0.70409   0.00000  Uiso   1.00
N410   N     0.53388   0.13906   0.83838   0.00000  Uiso   1.00
N411   N     0.92597   0.81183   0.90155   0.00000  Uiso   1.00
N412   N     0.00682   0.16228   0.79047   0.00000  Uiso   1.00
N413   N     0.51923   0.21803   0.92477   0.00000  Uiso   1.00
N414   N     0.91132   0.89080   0.98793   0.00000  Uiso   1.00
C415   C     0.22964   0.08820   0.19602   0.00000  Uiso   1.00
C416   C     0.29574   0.10772   0.17353   0.00000  Uiso   1.00
C417   C     0.31307   0.11829   0.11867   0.00000  Uiso   1.00
C418   C     0.37589   0.13581   0.10647   0.00000  Uiso   1.00
C419   C     0.47187   0.16508   0.06526   0.00000  Uiso   1.00
C420   C     0.26877   0.01934   0.20879   0.00000  Uiso   1.00
C421   C     0.26341   0.95560   0.18356   0.00000  Uiso   1.00
C422   C     0.30353   0.89872   0.20105   0.00000  Uiso   1.00
C423   C     0.35759   0.79079   0.21460   0.00000  Uiso   1.00
C424   C     0.17977   0.14597   0.25777   0.00000  Uiso   1.00
C425   C     0.09957   0.18869   0.27374   0.00000  Uiso   1.00
C426   C     0.06474   0.23843   0.33247   0.00000  Uiso   1.00
C427   C     0.98061   0.32711   0.42208   0.00000  Uiso   1.00
C428   C     0.31039   0.10054   0.27193   0.00000  Uiso   1.00
C429   C     0.33960   0.11442   0.21477   0.00000  Uiso   1.00
C430   C     0.40241   0.13194   0.20265   0.00000  Uiso   1.00
C431   C     0.41983   0.14253   0.14777   0.00000  Uiso   1.00
C432   C     0.31263   0.02604   0.25001   0.00000  Uiso   1.00
C433   C     0.35275   0.96925   0.26755   0.00000  Uiso   1.00
C434   C     0.34747   0.90544   0.24235   0.00000  Uiso   1.00
C435   C     0.22363   0.15268   0.29900   0.00000  Uiso   1.00
C436   C     0.18891   0.20235   0.35772   0.00000  Uiso   1.00
C437   C     0.10868   0.24514   0.37377   0.00000  Uiso   1.00
H438   H     0.19550   0.08297   0.16392   0.00000  Uiso   1.00
H439   H     0.27911   0.11309   0.08677   0.00000  Uiso   1.00
H440   H     0.22946   0.95043   0.15166   0.00000  Uiso   1.00
H441   H     0.06565   0.18349   0.24182   0.00000  Uiso   1.00
H442   H     0.39118   0.14941   0.01940   0.00000  Uiso   1.00
H443   H     0.28646   0.80643   0.15624   0.00000  Uiso   1.00
H444   H     0.94102   0.29789   0.34636   0.00000  Uiso   1.00
H445   H     0.34454   0.10575   0.30403   0.00000  Uiso   1.00
H446   H     0.43634   0.13712   0.23457   0.00000  Uiso   1.00
H447   H     0.38669   0.97446   0.29946   0.00000  Uiso   1.00
H448   H     0.22287   0.20752   0.38961   0.00000  Uiso   1.00
H449   H     0.51879   0.16891   0.13935   0.00000  Uiso   1.00
H450   H     0.41407   0.82594   0.27620   0.00000  Uiso   1.00
H451   H     0.06864   0.31740   0.46632   0.00000  Uiso   1.00
O452   O     0.51270   0.17936   0.03114   0.00000  Uiso   1.00
O453   O     0.37530   0.72940   0.21068   0.00000  Uiso   1.00
O454   O     0.92210   0.37418   0.46011   0.00000  Uiso   1.00
N455   N     0.40861   0.14971   0.05717   0.00000  Uiso   1.00
N456   N     0.31071   0.82904   0.18510   0.00000  Uiso   1.00
N457   N     0.98775   0.28850   0.36285   0.00000  Uiso   1.00
N458   N     0.47727   0.16020   0.12172   0.00000  Uiso   1.00
N459   N     0.37938   0.83954   0.24965   0.00000  Uiso   1.00
N460   N     0.05642   0.29900   0.42740   0.00000  Uiso   1.00
C461   C     0.85098   0.56149   0.32032   0.00000  Uiso   1.00
C462   C     0.88536   0.48253   0.28110   0.00000  Uiso   1.00
C463   C     0.94692   0.44845   0.22765   0.00000  Uiso   1.00
C464   C     0.96972   0.37592   0.19847   0.00000  Uiso   1.00
C465   C     0.02877   0.25896   0.13399   0.00000  Uiso   1.00
C466   C     0.76334   0.59180   0.32555   0.00000  Uiso   1.00
C467   C     0.72232   0.64961   0.30948   0.00000  Uiso   1.00
C468   C     0.64242   0.66908   0.31773   0.00000  Uiso   1.00
C469   C     0.51203   0.72180   0.32230   0.00000  Uiso   1.00
C470   C     0.85698   0.56339   0.38391   0.00000  Uiso   1.00
C471   C     0.89466   0.59732   0.41693   0.00000  Uiso   1.00
C472   C     0.89357   0.59288   0.47431   0.00000  Uiso   1.00
C473   C     0.90855   0.60150   0.56950   0.00000  Uiso   1.00
C474   C     0.78201   0.49329   0.36354   0.00000  Uiso   1.00
C475   C     0.84789   0.44549   0.30458   0.00000  Uiso   1.00
C476   C     0.87061   0.37299   0.27547   0.00000  Uiso   1.00
C477   C     0.93220   0.33881   0.22199   0.00000  Uiso   1.00
C478   C     0.72588   0.55477   0.34903   0.00000  Uiso   1.00
C479   C     0.64601   0.57416   0.35730   0.00000  Uiso   1.00
C480   C     0.60488   0.63197   0.34125   0.00000  Uiso   1.00
C481   C     0.81951   0.52635   0.40739   0.00000  Uiso   1.00
C482   C     0.81835   0.52187   0.46474   0.00000  Uiso   1.00
C483   C     0.85603   0.55578   0.49783   0.00000  Uiso   1.00
H484   H     0.88014   0.59033   0.30204   0.00000  Uiso   1.00
H485   H     0.97589   0.47713   0.20949   0.00000  Uiso   1.00
H486   H     0.75133   0.67827   0.29132   0.00000  Uiso   1.00
H487   H     0.92364   0.62598   0.39874   0.00000  Uiso   1.00
H488   H     0.06551   0.33531   0.11723   0.00000  Uiso   1.00
H489   H     0.59200   0.75942   0.28979   0.00000  Uiso   1.00
H490   H     0.95536   0.64918   0.51631   0.00000  Uiso   1.00
H491   H     0.75284   0.46445   0.38182   0.00000  Uiso   1.00
H492   H     0.84161   0.34434   0.29365   0.00000  Uiso   1.00
H493   H     0.61704   0.54548   0.37548   0.00000  Uiso   1.00
H494   H     0.78936   0.49320   0.48290   0.00000  Uiso   1.00
H495   H     0.95651   0.22753   0.18553   0.00000  Uiso   1.00
H496   H     0.48300   0.65165   0.35809   0.00000  Uiso   1.00
H497   H     0.84636   0.54140   0.58461   0.00000  Uiso   1.00
O498   O     0.07168   0.20468   0.09193   0.00000  Uiso   1.00
O499   O     0.45046   0.76112   0.31833   0.00000  Uiso   1.00
O500   O     0.92718   0.61647   0.61552   0.00000  Uiso   1.00
N501   N     0.02768   0.32642   0.14541   0.00000  Uiso   1.00
N502   N     0.58498   0.72294   0.30674   0.00000  Uiso   1.00
N503   N     0.92467   0.61988   0.51852   0.00000  Uiso   1.00
N504   N     0.96904   0.26843   0.18216   0.00000  Uiso   1.00
N505   N     0.52634   0.66494   0.34349   0.00000  Uiso   1.00
N506   N     0.86603   0.56189   0.55527   0.00000  Uiso   1.00
C507   C     0.20148   0.46489   0.14497   0.00000  Uiso   1.00
C508   C     0.11519   0.51827   0.16518   0.00000  Uiso   1.00
C509   C     0.05940   0.51304   0.13563   0.00000  Uiso   1.00
C510   C     0.98362   0.56738   0.16136   0.00000  Uiso   1.00
C511   C     0.85258   0.64155   0.18461   0.00000  Uiso   1.00
C512   C     0.24900   0.50783   0.13824   0.00000  Uiso   1.00
C513   C     0.30572   0.49381   0.08605   0.00000  Uiso   1.00
C514   C     0.34258   0.53936   0.08911   0.00000  Uiso   1.00
C515   C     0.41931   0.59728   0.07055   0.00000  Uiso   1.00
C516   C     0.21600   0.44107   0.19881   0.00000  Uiso   1.00
C517   C     0.24500   0.37093   0.19754   0.00000  Uiso   1.00
C518   C     0.25410   0.36027   0.25159   0.00000  Uiso   1.00
C519   C     0.27960   0.31455   0.32707   0.00000  Uiso   1.00
C520   C     0.16610   0.57069   0.24322   0.00000  Uiso   1.00
C521   C     0.09598   0.57574   0.21854   0.00000  Uiso   1.00
C522   C     0.02026   0.63010   0.24433   0.00000  Uiso   1.00
C523   C     0.96437   0.62495   0.21483   0.00000  Uiso   1.00
C524   C     0.22978   0.56529   0.19160   0.00000  Uiso   1.00
C525   C     0.26658   0.61087   0.19475   0.00000  Uiso   1.00
C526   C     0.32333   0.59693   0.14257   0.00000  Uiso   1.00
C527   C     0.19678   0.49854   0.25218   0.00000  Uiso   1.00
C528   C     0.20585   0.48799   0.30624   0.00000  Uiso   1.00
C529   C     0.23485   0.41785   0.30505   0.00000  Uiso   1.00
H530   H     0.21644   0.42015   0.10342   0.00000  Uiso   1.00
H531   H     0.07430   0.46856   0.09433   0.00000  Uiso   1.00
H532   H     0.32058   0.44933   0.04476   0.00000  Uiso   1.00
H533   H     0.25986   0.32647   0.15623   0.00000  Uiso   1.00
H534   H     0.90824   0.54760   0.10777   0.00000  Uiso   1.00
H535   H     0.42756   0.50703   0.00325   0.00000  Uiso   1.00
H536   H     0.29953   0.24796   0.23832   0.00000  Uiso   1.00
H537   H     0.15114   0.61543   0.28477   0.00000  Uiso   1.00
H538   H     0.00541   0.67457   0.28563   0.00000  Uiso   1.00
H539   H     0.25169   0.65534   0.23605   0.00000  Uiso   1.00
H540   H     0.19098   0.53248   0.34753   0.00000  Uiso   1.00
H541   H     0.85233   0.71480   0.26304   0.00000  Uiso   1.00
H542   H     0.37165   0.67423   0.15851   0.00000  Uiso   1.00
H543   H     0.24362   0.41516   0.39358   0.00000  Uiso   1.00
O544   O     0.78561   0.66659   0.18269   0.00000  Uiso   1.00
O545   O     0.46694   0.61336   0.04556   0.00000  Uiso   1.00
O546   O     0.29896   0.27346   0.35397   0.00000  Uiso   1.00
N547   N     0.91508   0.57883   0.14420   0.00000  Uiso   1.00
N548   N     0.40060   0.54091   0.04648   0.00000  Uiso   1.00
N549   N     0.28092   0.29869   0.26624   0.00000  Uiso   1.00
N550   N     0.88499   0.66880   0.22775   0.00000  Uiso   1.00
N551   N     0.37051   0.63088   0.13002   0.00000  Uiso   1.00
N552   N     0.25084   0.38866   0.34979   0.00000  Uiso   1.00
