data_job_03633
_audit_creation_date              2018-12-19
_audit_creation_method            'Materials Studio'
_symmetry_space_group_name_H-M    'P1'
_symmetry_Int_Tables_number       1
_symmetry_cell_setting            triclinic
loop_
_symmetry_equiv_pos_as_xyz
  x,y,z
_cell_length_a                    22.6241
_cell_length_b                    10.3676
_cell_length_c                    30.7866
_cell_angle_alpha                 90.0000
_cell_angle_beta                  90.0000
_cell_angle_gamma                 90.0000
loop_
_atom_site_label
_atom_site_type_symbol
_atom_site_fract_x
_atom_site_fract_y
_atom_site_fract_z
_atom_site_U_iso_or_equiv
_atom_site_adp_type
_atom_site_occupancy
C1     C     0.59008   0.92262   0.84596   0.00000  Uiso   1.00
C2     C     0.65324   0.97393   0.84693   0.00000  Uiso   1.00
C3     C     0.69988   0.92884   0.82190   0.00000  Uiso   1.00
C4     C     0.75426   0.98857   0.82757   0.00000  Uiso   1.00
C5     C     0.85120   0.05281   0.82459   0.00000  Uiso   1.00
C6     C     0.57560   0.88330   0.89249   0.00000  Uiso   1.00
C7     C     0.55695   0.76201   0.90576   0.00000  Uiso   1.00
C8     C     0.54597   0.74545   0.94978   0.00000  Uiso   1.00
C9     C     0.52233   0.66901   0.01751   0.00000  Uiso   1.00
C10    C     0.55076   0.03826   0.83587   0.00000  Uiso   1.00
C11    C     0.51122   0.04725   0.80154   0.00000  Uiso   1.00
C12    C     0.47931   0.16114   0.79789   0.00000  Uiso   1.00
C13    C     0.41712   0.32529   0.77772   0.00000  Uiso   1.00
C14    C     0.60372   0.10888   0.90054   0.00000  Uiso   1.00
C15    C     0.66064   0.07510   0.87658   0.00000  Uiso   1.00
C16    C     0.71497   0.13491   0.88229   0.00000  Uiso   1.00
C17    C     0.76168   0.08992   0.85727   0.00000  Uiso   1.00
C18    C     0.58300   0.98446   0.92214   0.00000  Uiso   1.00
C19    C     0.57204   0.96808   0.96614   0.00000  Uiso   1.00
C20    C     0.55339   0.84680   0.97948   0.00000  Uiso   1.00
C21    C     0.55817   0.13943   0.86551   0.00000  Uiso   1.00
C22    C     0.52631   0.25332   0.86192   0.00000  Uiso   1.00
C23    C     0.48674   0.26249   0.82759   0.00000  Uiso   1.00
H24    H     0.58431   0.84385   0.82288   0.00000  Uiso   1.00
H25    H     0.69413   0.85054   0.79897   0.00000  Uiso   1.00
H26    H     0.55122   0.68374   0.88281   0.00000  Uiso   1.00
H27    H     0.50550   0.96894   0.77861   0.00000  Uiso   1.00
H28    H     0.81915   0.90254   0.78553   0.00000  Uiso   1.00
H29    H     0.51780   0.55085   0.96232   0.00000  Uiso   1.00
H30    H     0.42139   0.15223   0.74258   0.00000  Uiso   1.00
H31    H     0.60949   0.18764   0.92362   0.00000  Uiso   1.00
H32    H     0.72069   0.21320   0.90523   0.00000  Uiso   1.00
H33    H     0.57778   0.04639   0.98908   0.00000  Uiso   1.00
H34    H     0.53206   0.33159   0.88487   0.00000  Uiso   1.00
H35    H     0.84071   0.19688   0.87178   0.00000  Uiso   1.00
H36    H     0.53935   0.84519   0.04857   0.00000  Uiso   1.00
H37    H     0.44294   0.44658   0.82884   0.00000  Uiso   1.00
O38    O     0.90263   0.06029   0.81475   0.00000  Uiso   1.00
O39    O     0.50725   0.59889   0.04669   0.00000  Uiso   1.00
O40    O     0.38077   0.38789   0.75840   0.00000  Uiso   1.00
N41    N     0.80896   0.96832   0.80835   0.00000  Uiso   1.00
N42    N     0.52722   0.63950   0.97363   0.00000  Uiso   1.00
N43    N     0.43707   0.20174   0.76821   0.00000  Uiso   1.00
N44    N     0.82056   0.12670   0.85476   0.00000  Uiso   1.00
N45    N     0.53882   0.79789   0.02005   0.00000  Uiso   1.00
N46    N     0.44867   0.36012   0.81462   0.00000  Uiso   1.00
C47    C     0.90992   0.07738   0.34596   0.00000  Uiso   1.00
C48    C     0.84676   0.02607   0.34693   0.00000  Uiso   1.00
C49    C     0.80012   0.07116   0.32190   0.00000  Uiso   1.00
C50    C     0.74574   0.01143   0.32757   0.00000  Uiso   1.00
C51    C     0.64880   0.94719   0.32459   0.00000  Uiso   1.00
C52    C     0.92440   0.11670   0.39249   0.00000  Uiso   1.00
C53    C     0.94305   0.23799   0.40576   0.00000  Uiso   1.00
C54    C     0.95403   0.25455   0.44978   0.00000  Uiso   1.00
C55    C     0.97767   0.33099   0.51751   0.00000  Uiso   1.00
C56    C     0.94924   0.96174   0.33587   0.00000  Uiso   1.00
C57    C     0.98878   0.95275   0.30154   0.00000  Uiso   1.00
C58    C     0.02069   0.83886   0.29789   0.00000  Uiso   1.00
C59    C     0.08288   0.67471   0.27772   0.00000  Uiso   1.00
C60    C     0.89628   0.89112   0.40054   0.00000  Uiso   1.00
C61    C     0.83936   0.92490   0.37658   0.00000  Uiso   1.00
C62    C     0.78503   0.86509   0.38229   0.00000  Uiso   1.00
C63    C     0.73832   0.91008   0.35727   0.00000  Uiso   1.00
C64    C     0.91700   0.01554   0.42214   0.00000  Uiso   1.00
C65    C     0.92796   0.03192   0.46614   0.00000  Uiso   1.00
C66    C     0.94661   0.15320   0.47948   0.00000  Uiso   1.00
C67    C     0.94183   0.86057   0.36551   0.00000  Uiso   1.00
C68    C     0.97369   0.74668   0.36192   0.00000  Uiso   1.00
C69    C     0.01326   0.73751   0.32759   0.00000  Uiso   1.00
H70    H     0.91569   0.15615   0.32288   0.00000  Uiso   1.00
H71    H     0.80587   0.14946   0.29897   0.00000  Uiso   1.00
H72    H     0.94878   0.31626   0.38281   0.00000  Uiso   1.00
H73    H     0.99450   0.03106   0.27861   0.00000  Uiso   1.00
H74    H     0.68085   0.09746   0.28553   0.00000  Uiso   1.00
H75    H     0.98220   0.44915   0.46232   0.00000  Uiso   1.00
H76    H     0.07861   0.84777   0.24258   0.00000  Uiso   1.00
H77    H     0.89051   0.81236   0.42362   0.00000  Uiso   1.00
H78    H     0.77931   0.78680   0.40523   0.00000  Uiso   1.00
H79    H     0.92222   0.95361   0.48908   0.00000  Uiso   1.00
H80    H     0.96794   0.66841   0.38487   0.00000  Uiso   1.00
H81    H     0.65929   0.80312   0.37178   0.00000  Uiso   1.00
H82    H     0.96065   0.15481   0.54857   0.00000  Uiso   1.00
H83    H     0.05706   0.55342   0.32884   0.00000  Uiso   1.00
O84    O     0.59737   0.93971   0.31475   0.00000  Uiso   1.00
O85    O     0.99275   0.40111   0.54669   0.00000  Uiso   1.00
O86    O     0.11923   0.61211   0.25840   0.00000  Uiso   1.00
N87    N     0.69104   0.03168   0.30835   0.00000  Uiso   1.00
N88    N     0.97278   0.36050   0.47363   0.00000  Uiso   1.00
N89    N     0.06293   0.79826   0.26821   0.00000  Uiso   1.00
N90    N     0.67944   0.87330   0.35476   0.00000  Uiso   1.00
N91    N     0.96118   0.20211   0.52005   0.00000  Uiso   1.00
N92    N     0.05133   0.63988   0.31462   0.00000  Uiso   1.00
C93    C     0.40992   0.42262   0.65404   0.00000  Uiso   1.00
C94    C     0.34676   0.47393   0.65307   0.00000  Uiso   1.00
C95    C     0.30012   0.42884   0.67810   0.00000  Uiso   1.00
C96    C     0.24574   0.48857   0.67243   0.00000  Uiso   1.00
C97    C     0.14880   0.55281   0.67541   0.00000  Uiso   1.00
C98    C     0.42440   0.38330   0.60751   0.00000  Uiso   1.00
C99    C     0.44305   0.26201   0.59424   0.00000  Uiso   1.00
C100   C     0.45403   0.24545   0.55022   0.00000  Uiso   1.00
C101   C     0.47767   0.16901   0.48249   0.00000  Uiso   1.00
C102   C     0.44924   0.53826   0.66413   0.00000  Uiso   1.00
C103   C     0.48878   0.54725   0.69846   0.00000  Uiso   1.00
C104   C     0.52069   0.66114   0.70211   0.00000  Uiso   1.00
C105   C     0.58288   0.82529   0.72228   0.00000  Uiso   1.00
C106   C     0.39628   0.60888   0.59946   0.00000  Uiso   1.00
C107   C     0.33936   0.57510   0.62342   0.00000  Uiso   1.00
C108   C     0.28503   0.63491   0.61771   0.00000  Uiso   1.00
C109   C     0.23832   0.58992   0.64273   0.00000  Uiso   1.00
C110   C     0.41700   0.48446   0.57786   0.00000  Uiso   1.00
C111   C     0.42796   0.46808   0.53386   0.00000  Uiso   1.00
C112   C     0.44661   0.34680   0.52052   0.00000  Uiso   1.00
C113   C     0.44183   0.63943   0.63449   0.00000  Uiso   1.00
C114   C     0.47369   0.75332   0.63808   0.00000  Uiso   1.00
C115   C     0.51326   0.76249   0.67241   0.00000  Uiso   1.00
H116   H     0.41569   0.34385   0.67712   0.00000  Uiso   1.00
H117   H     0.30587   0.35054   0.70103   0.00000  Uiso   1.00
H118   H     0.44878   0.18374   0.61719   0.00000  Uiso   1.00
H119   H     0.49450   0.46894   0.72139   0.00000  Uiso   1.00
H120   H     0.18085   0.40254   0.71447   0.00000  Uiso   1.00
H121   H     0.48220   0.05085   0.53768   0.00000  Uiso   1.00
H122   H     0.57861   0.65223   0.75742   0.00000  Uiso   1.00
H123   H     0.39051   0.68764   0.57638   0.00000  Uiso   1.00
H124   H     0.27931   0.71320   0.59477   0.00000  Uiso   1.00
H125   H     0.42222   0.54639   0.51092   0.00000  Uiso   1.00
H126   H     0.46794   0.83159   0.61513   0.00000  Uiso   1.00
H127   H     0.15929   0.69688   0.62822   0.00000  Uiso   1.00
H128   H     0.46065   0.34519   0.45143   0.00000  Uiso   1.00
H129   H     0.55706   0.94658   0.67116   0.00000  Uiso   1.00
O130   O     0.09737   0.56029   0.68525   0.00000  Uiso   1.00
O131   O     0.49275   0.09889   0.45331   0.00000  Uiso   1.00
O132   O     0.61923   0.88789   0.74160   0.00000  Uiso   1.00
N133   N     0.19104   0.46832   0.69165   0.00000  Uiso   1.00
N134   N     0.47278   0.13950   0.52637   0.00000  Uiso   1.00
N135   N     0.56293   0.70174   0.73179   0.00000  Uiso   1.00
N136   N     0.17944   0.62670   0.64524   0.00000  Uiso   1.00
N137   N     0.46118   0.29789   0.47995   0.00000  Uiso   1.00
N138   N     0.55133   0.86012   0.68538   0.00000  Uiso   1.00
C139   C     0.09008   0.57738   0.15404   0.00000  Uiso   1.00
C140   C     0.15324   0.52607   0.15307   0.00000  Uiso   1.00
C141   C     0.19988   0.57116   0.17810   0.00000  Uiso   1.00
C142   C     0.25426   0.51143   0.17243   0.00000  Uiso   1.00
C143   C     0.35120   0.44719   0.17541   0.00000  Uiso   1.00
C144   C     0.07560   0.61670   0.10751   0.00000  Uiso   1.00
C145   C     0.05695   0.73799   0.09424   0.00000  Uiso   1.00
C146   C     0.04597   0.75455   0.05022   0.00000  Uiso   1.00
C147   C     0.02233   0.83099   0.98249   0.00000  Uiso   1.00
C148   C     0.05076   0.46174   0.16413   0.00000  Uiso   1.00
C149   C     0.01122   0.45275   0.19846   0.00000  Uiso   1.00
C150   C     0.97931   0.33886   0.20211   0.00000  Uiso   1.00
C151   C     0.91712   0.17471   0.22228   0.00000  Uiso   1.00
C152   C     0.10372   0.39112   0.09946   0.00000  Uiso   1.00
C153   C     0.16064   0.42490   0.12342   0.00000  Uiso   1.00
C154   C     0.21497   0.36509   0.11771   0.00000  Uiso   1.00
C155   C     0.26168   0.41008   0.14273   0.00000  Uiso   1.00
C156   C     0.08300   0.51554   0.07786   0.00000  Uiso   1.00
C157   C     0.07204   0.53192   0.03386   0.00000  Uiso   1.00
C158   C     0.05339   0.65320   0.02052   0.00000  Uiso   1.00
C159   C     0.05817   0.36057   0.13449   0.00000  Uiso   1.00
C160   C     0.02631   0.24668   0.13808   0.00000  Uiso   1.00
C161   C     0.98674   0.23751   0.17241   0.00000  Uiso   1.00
H162   H     0.08431   0.65615   0.17712   0.00000  Uiso   1.00
H163   H     0.19413   0.64946   0.20103   0.00000  Uiso   1.00
H164   H     0.05122   0.81626   0.11719   0.00000  Uiso   1.00
H165   H     0.00550   0.53106   0.22139   0.00000  Uiso   1.00
H166   H     0.31915   0.59746   0.21447   0.00000  Uiso   1.00
H167   H     0.01780   0.94915   0.03768   0.00000  Uiso   1.00
H168   H     0.92139   0.34777   0.25742   0.00000  Uiso   1.00
H169   H     0.10949   0.31236   0.07638   0.00000  Uiso   1.00
H170   H     0.22069   0.28680   0.09477   0.00000  Uiso   1.00
H171   H     0.07778   0.45361   0.01092   0.00000  Uiso   1.00
H172   H     0.03206   0.16841   0.11513   0.00000  Uiso   1.00
H173   H     0.34071   0.30312   0.12822   0.00000  Uiso   1.00
H174   H     0.03935   0.65481   0.95143   0.00000  Uiso   1.00
H175   H     0.94294   0.05342   0.17116   0.00000  Uiso   1.00
O176   O     0.40263   0.43971   0.18525   0.00000  Uiso   1.00
O177   O     0.00725   0.90111   0.95331   0.00000  Uiso   1.00
O178   O     0.88077   0.11211   0.24160   0.00000  Uiso   1.00
N179   N     0.30896   0.53168   0.19165   0.00000  Uiso   1.00
N180   N     0.02722   0.86050   0.02637   0.00000  Uiso   1.00
N181   N     0.93707   0.29826   0.23179   0.00000  Uiso   1.00
N182   N     0.32056   0.37330   0.14524   0.00000  Uiso   1.00
N183   N     0.03882   0.70211   0.97995   0.00000  Uiso   1.00
N184   N     0.94867   0.13988   0.18538   0.00000  Uiso   1.00
C185   C     0.40992   0.07738   0.15404   0.00000  Uiso   1.00
C186   C     0.34676   0.02607   0.15307   0.00000  Uiso   1.00
C187   C     0.30012   0.07116   0.17810   0.00000  Uiso   1.00
C188   C     0.24574   0.01143   0.17243   0.00000  Uiso   1.00
C189   C     0.14880   0.94719   0.17541   0.00000  Uiso   1.00
C190   C     0.42440   0.11670   0.10751   0.00000  Uiso   1.00
C191   C     0.44305   0.23799   0.09424   0.00000  Uiso   1.00
C192   C     0.45403   0.25455   0.05022   0.00000  Uiso   1.00
C193   C     0.47767   0.33099   0.98249   0.00000  Uiso   1.00
C194   C     0.44924   0.96174   0.16413   0.00000  Uiso   1.00
C195   C     0.48878   0.95275   0.19846   0.00000  Uiso   1.00
C196   C     0.52069   0.83886   0.20211   0.00000  Uiso   1.00
C197   C     0.58288   0.67471   0.22228   0.00000  Uiso   1.00
C198   C     0.39628   0.89112   0.09946   0.00000  Uiso   1.00
C199   C     0.33936   0.92490   0.12342   0.00000  Uiso   1.00
C200   C     0.28503   0.86509   0.11771   0.00000  Uiso   1.00
C201   C     0.23832   0.91008   0.14273   0.00000  Uiso   1.00
C202   C     0.41700   0.01554   0.07786   0.00000  Uiso   1.00
C203   C     0.42796   0.03192   0.03386   0.00000  Uiso   1.00
C204   C     0.44661   0.15320   0.02052   0.00000  Uiso   1.00
C205   C     0.44183   0.86057   0.13449   0.00000  Uiso   1.00
C206   C     0.47369   0.74668   0.13808   0.00000  Uiso   1.00
C207   C     0.51326   0.73751   0.17241   0.00000  Uiso   1.00
H208   H     0.41569   0.15615   0.17712   0.00000  Uiso   1.00
H209   H     0.30587   0.14946   0.20103   0.00000  Uiso   1.00
H210   H     0.44878   0.31626   0.11719   0.00000  Uiso   1.00
H211   H     0.49450   0.03106   0.22139   0.00000  Uiso   1.00
H212   H     0.18085   0.09746   0.21447   0.00000  Uiso   1.00
H213   H     0.48220   0.44915   0.03768   0.00000  Uiso   1.00
H214   H     0.57861   0.84777   0.25742   0.00000  Uiso   1.00
H215   H     0.39051   0.81236   0.07638   0.00000  Uiso   1.00
H216   H     0.27931   0.78680   0.09477   0.00000  Uiso   1.00
H217   H     0.42222   0.95361   0.01092   0.00000  Uiso   1.00
H218   H     0.46794   0.66841   0.11513   0.00000  Uiso   1.00
H219   H     0.15929   0.80312   0.12822   0.00000  Uiso   1.00
H220   H     0.46065   0.15481   0.95143   0.00000  Uiso   1.00
H221   H     0.55706   0.55342   0.17116   0.00000  Uiso   1.00
O222   O     0.09737   0.93971   0.18525   0.00000  Uiso   1.00
O223   O     0.49275   0.40111   0.95331   0.00000  Uiso   1.00
O224   O     0.61923   0.61211   0.24160   0.00000  Uiso   1.00
N225   N     0.19104   0.03168   0.19165   0.00000  Uiso   1.00
N226   N     0.47278   0.36050   0.02637   0.00000  Uiso   1.00
N227   N     0.56293   0.79826   0.23179   0.00000  Uiso   1.00
N228   N     0.17944   0.87330   0.14524   0.00000  Uiso   1.00
N229   N     0.46118   0.20211   0.97995   0.00000  Uiso   1.00
N230   N     0.55133   0.63988   0.18538   0.00000  Uiso   1.00
C231   C     0.09008   0.92262   0.65404   0.00000  Uiso   1.00
C232   C     0.15324   0.97393   0.65307   0.00000  Uiso   1.00
C233   C     0.19988   0.92884   0.67810   0.00000  Uiso   1.00
C234   C     0.25426   0.98857   0.67243   0.00000  Uiso   1.00
C235   C     0.35120   0.05281   0.67541   0.00000  Uiso   1.00
C236   C     0.07560   0.88330   0.60751   0.00000  Uiso   1.00
C237   C     0.05695   0.76201   0.59424   0.00000  Uiso   1.00
C238   C     0.04597   0.74545   0.55022   0.00000  Uiso   1.00
C239   C     0.02233   0.66901   0.48249   0.00000  Uiso   1.00
C240   C     0.05076   0.03826   0.66413   0.00000  Uiso   1.00
C241   C     0.01122   0.04725   0.69846   0.00000  Uiso   1.00
C242   C     0.97931   0.16114   0.70211   0.00000  Uiso   1.00
C243   C     0.91712   0.32529   0.72228   0.00000  Uiso   1.00
C244   C     0.10372   0.10888   0.59946   0.00000  Uiso   1.00
C245   C     0.16064   0.07510   0.62342   0.00000  Uiso   1.00
C246   C     0.21497   0.13491   0.61771   0.00000  Uiso   1.00
C247   C     0.26168   0.08992   0.64273   0.00000  Uiso   1.00
C248   C     0.08300   0.98446   0.57786   0.00000  Uiso   1.00
C249   C     0.07204   0.96808   0.53386   0.00000  Uiso   1.00
C250   C     0.05339   0.84680   0.52052   0.00000  Uiso   1.00
C251   C     0.05817   0.13943   0.63449   0.00000  Uiso   1.00
C252   C     0.02631   0.25332   0.63808   0.00000  Uiso   1.00
C253   C     0.98674   0.26249   0.67241   0.00000  Uiso   1.00
H254   H     0.08431   0.84385   0.67712   0.00000  Uiso   1.00
H255   H     0.19413   0.85054   0.70103   0.00000  Uiso   1.00
H256   H     0.05122   0.68374   0.61719   0.00000  Uiso   1.00
H257   H     0.00550   0.96894   0.72139   0.00000  Uiso   1.00
H258   H     0.31915   0.90254   0.71447   0.00000  Uiso   1.00
H259   H     0.01780   0.55085   0.53768   0.00000  Uiso   1.00
H260   H     0.92139   0.15223   0.75742   0.00000  Uiso   1.00
H261   H     0.10949   0.18764   0.57638   0.00000  Uiso   1.00
H262   H     0.22069   0.21320   0.59477   0.00000  Uiso   1.00
H263   H     0.07778   0.04639   0.51092   0.00000  Uiso   1.00
H264   H     0.03206   0.33159   0.61513   0.00000  Uiso   1.00
H265   H     0.34071   0.19688   0.62822   0.00000  Uiso   1.00
H266   H     0.03935   0.84519   0.45143   0.00000  Uiso   1.00
H267   H     0.94294   0.44658   0.67116   0.00000  Uiso   1.00
O268   O     0.40263   0.06029   0.68525   0.00000  Uiso   1.00
O269   O     0.00725   0.59889   0.45331   0.00000  Uiso   1.00
O270   O     0.88077   0.38789   0.74160   0.00000  Uiso   1.00
N271   N     0.30896   0.96832   0.69165   0.00000  Uiso   1.00
N272   N     0.02722   0.63950   0.52637   0.00000  Uiso   1.00
N273   N     0.93707   0.20174   0.73179   0.00000  Uiso   1.00
N274   N     0.32056   0.12670   0.64524   0.00000  Uiso   1.00
N275   N     0.03882   0.79789   0.47995   0.00000  Uiso   1.00
N276   N     0.94867   0.36012   0.68538   0.00000  Uiso   1.00
C277   C     0.59008   0.57738   0.34596   0.00000  Uiso   1.00
C278   C     0.65324   0.52607   0.34693   0.00000  Uiso   1.00
C279   C     0.69988   0.57116   0.32190   0.00000  Uiso   1.00
C280   C     0.75426   0.51143   0.32757   0.00000  Uiso   1.00
C281   C     0.85120   0.44719   0.32459   0.00000  Uiso   1.00
C282   C     0.57560   0.61670   0.39249   0.00000  Uiso   1.00
C283   C     0.55695   0.73799   0.40576   0.00000  Uiso   1.00
C284   C     0.54597   0.75455   0.44978   0.00000  Uiso   1.00
C285   C     0.52233   0.83099   0.51751   0.00000  Uiso   1.00
C286   C     0.55076   0.46174   0.33587   0.00000  Uiso   1.00
C287   C     0.51122   0.45275   0.30154   0.00000  Uiso   1.00
C288   C     0.47931   0.33886   0.29789   0.00000  Uiso   1.00
C289   C     0.41712   0.17471   0.27772   0.00000  Uiso   1.00
C290   C     0.60372   0.39112   0.40054   0.00000  Uiso   1.00
C291   C     0.66064   0.42490   0.37658   0.00000  Uiso   1.00
C292   C     0.71497   0.36509   0.38229   0.00000  Uiso   1.00
C293   C     0.76168   0.41008   0.35727   0.00000  Uiso   1.00
C294   C     0.58300   0.51554   0.42214   0.00000  Uiso   1.00
C295   C     0.57204   0.53192   0.46614   0.00000  Uiso   1.00
C296   C     0.55339   0.65320   0.47948   0.00000  Uiso   1.00
C297   C     0.55817   0.36057   0.36551   0.00000  Uiso   1.00
C298   C     0.52631   0.24668   0.36192   0.00000  Uiso   1.00
C299   C     0.48674   0.23751   0.32759   0.00000  Uiso   1.00
H300   H     0.58431   0.65615   0.32288   0.00000  Uiso   1.00
H301   H     0.69413   0.64946   0.29897   0.00000  Uiso   1.00
H302   H     0.55122   0.81626   0.38281   0.00000  Uiso   1.00
H303   H     0.50550   0.53106   0.27861   0.00000  Uiso   1.00
H304   H     0.81915   0.59746   0.28553   0.00000  Uiso   1.00
H305   H     0.51780   0.94915   0.46232   0.00000  Uiso   1.00
H306   H     0.42139   0.34777   0.24258   0.00000  Uiso   1.00
H307   H     0.60949   0.31236   0.42362   0.00000  Uiso   1.00
H308   H     0.72069   0.28680   0.40523   0.00000  Uiso   1.00
H309   H     0.57778   0.45361   0.48908   0.00000  Uiso   1.00
H310   H     0.53206   0.16841   0.38487   0.00000  Uiso   1.00
H311   H     0.84071   0.30312   0.37178   0.00000  Uiso   1.00
H312   H     0.53935   0.65481   0.54857   0.00000  Uiso   1.00
H313   H     0.44294   0.05342   0.32884   0.00000  Uiso   1.00
O314   O     0.90263   0.43971   0.31475   0.00000  Uiso   1.00
O315   O     0.50725   0.90111   0.54669   0.00000  Uiso   1.00
O316   O     0.38077   0.11211   0.25840   0.00000  Uiso   1.00
N317   N     0.80896   0.53168   0.30835   0.00000  Uiso   1.00
N318   N     0.52722   0.86050   0.47363   0.00000  Uiso   1.00
N319   N     0.43707   0.29826   0.26821   0.00000  Uiso   1.00
N320   N     0.82056   0.37330   0.35476   0.00000  Uiso   1.00
N321   N     0.53882   0.70211   0.52005   0.00000  Uiso   1.00
N322   N     0.44867   0.13988   0.31462   0.00000  Uiso   1.00
C323   C     0.90992   0.42262   0.84596   0.00000  Uiso   1.00
C324   C     0.84676   0.47393   0.84693   0.00000  Uiso   1.00
C325   C     0.80012   0.42884   0.82190   0.00000  Uiso   1.00
C326   C     0.74574   0.48857   0.82757   0.00000  Uiso   1.00
C327   C     0.64880   0.55281   0.82459   0.00000  Uiso   1.00
C328   C     0.92440   0.38330   0.89249   0.00000  Uiso   1.00
C329   C     0.94305   0.26201   0.90576   0.00000  Uiso   1.00
C330   C     0.95403   0.24545   0.94978   0.00000  Uiso   1.00
C331   C     0.97767   0.16901   0.01751   0.00000  Uiso   1.00
C332   C     0.94924   0.53826   0.83587   0.00000  Uiso   1.00
C333   C     0.98878   0.54725   0.80154   0.00000  Uiso   1.00
C334   C     0.02069   0.66114   0.79789   0.00000  Uiso   1.00
C335   C     0.08288   0.82529   0.77772   0.00000  Uiso   1.00
C336   C     0.89628   0.60888   0.90054   0.00000  Uiso   1.00
C337   C     0.83936   0.57510   0.87658   0.00000  Uiso   1.00
C338   C     0.78503   0.63491   0.88229   0.00000  Uiso   1.00
C339   C     0.73832   0.58992   0.85727   0.00000  Uiso   1.00
C340   C     0.91700   0.48446   0.92214   0.00000  Uiso   1.00
C341   C     0.92796   0.46808   0.96614   0.00000  Uiso   1.00
C342   C     0.94661   0.34680   0.97948   0.00000  Uiso   1.00
C343   C     0.94183   0.63943   0.86551   0.00000  Uiso   1.00
C344   C     0.97369   0.75332   0.86192   0.00000  Uiso   1.00
C345   C     0.01326   0.76249   0.82759   0.00000  Uiso   1.00
H346   H     0.91569   0.34385   0.82288   0.00000  Uiso   1.00
H347   H     0.80587   0.35054   0.79897   0.00000  Uiso   1.00
H348   H     0.94878   0.18374   0.88281   0.00000  Uiso   1.00
H349   H     0.99450   0.46894   0.77861   0.00000  Uiso   1.00
H350   H     0.68085   0.40254   0.78553   0.00000  Uiso   1.00
H351   H     0.98220   0.05085   0.96232   0.00000  Uiso   1.00
H352   H     0.07861   0.65223   0.74258   0.00000  Uiso   1.00
H353   H     0.89051   0.68764   0.92362   0.00000  Uiso   1.00
H354   H     0.77931   0.71320   0.90523   0.00000  Uiso   1.00
H355   H     0.92222   0.54639   0.98908   0.00000  Uiso   1.00
H356   H     0.96794   0.83159   0.88487   0.00000  Uiso   1.00
H357   H     0.65929   0.69688   0.87178   0.00000  Uiso   1.00
H358   H     0.96065   0.34519   0.04857   0.00000  Uiso   1.00
H359   H     0.05706   0.94658   0.82884   0.00000  Uiso   1.00
O360   O     0.59737   0.56029   0.81475   0.00000  Uiso   1.00
O361   O     0.99275   0.09889   0.04669   0.00000  Uiso   1.00
O362   O     0.11923   0.88789   0.75840   0.00000  Uiso   1.00
N363   N     0.69104   0.46832   0.80835   0.00000  Uiso   1.00
N364   N     0.97278   0.13950   0.97363   0.00000  Uiso   1.00
N365   N     0.06293   0.70174   0.76821   0.00000  Uiso   1.00
N366   N     0.67944   0.62670   0.85476   0.00000  Uiso   1.00
N367   N     0.96118   0.29789   0.02005   0.00000  Uiso   1.00
N368   N     0.05133   0.86012   0.81462   0.00000  Uiso   1.00
