data_job_00591
_audit_creation_date              2018-12-19
_audit_creation_method            'Materials Studio'
_symmetry_space_group_name_H-M    'P1'
_symmetry_Int_Tables_number       1
_symmetry_cell_setting            triclinic
loop_
_symmetry_equiv_pos_as_xyz
  x,y,z
_cell_length_a                    12.6139
_cell_length_b                    12.6139
_cell_length_c                    24.5126
_cell_angle_alpha                 90.0000
_cell_angle_beta                  90.0000
_cell_angle_gamma                 120.0000
loop_
_atom_site_label
_atom_site_type_symbol
_atom_site_fract_x
_atom_site_fract_y
_atom_site_fract_z
_atom_site_U_iso_or_equiv
_atom_site_adp_type
_atom_site_occupancy
C1     C     0.64878   0.26457   0.31507   0.00000  Uiso   1.00
C2     C     0.71693   0.23130   0.27327   0.00000  Uiso   1.00
C3     C     0.69980   0.22581   0.21720   0.00000  Uiso   1.00
C4     C     0.77111   0.19357   0.18593   0.00000  Uiso   1.00
C5     C     0.86390   0.14577   0.11739   0.00000  Uiso   1.00
C6     C     0.59015   0.15743   0.35486   0.00000  Uiso   1.00
C7     C     0.46643   0.08985   0.36739   0.00000  Uiso   1.00
C8     C     0.43103   0.99543   0.40482   0.00000  Uiso   1.00
C9     C     0.32701   0.83301   0.46297   0.00000  Uiso   1.00
C10    C     0.74691   0.37240   0.34735   0.00000  Uiso   1.00
C11    C     0.75499   0.48557   0.35359   0.00000  Uiso   1.00
C12    C     0.85155   0.57214   0.38471   0.00000  Uiso   1.00
C13    C     0.99093   0.74351   0.43121   0.00000  Uiso   1.00
C14    C     0.80589   0.21706   0.35926   0.00000  Uiso   1.00
C15    C     0.80226   0.20549   0.29728   0.00000  Uiso   1.00
C16    C     0.87362   0.17325   0.26609   0.00000  Uiso   1.00
C17    C     0.85660   0.16772   0.20998   0.00000  Uiso   1.00
C18    C     0.67548   0.13162   0.37887   0.00000  Uiso   1.00
C19    C     0.64026   0.03729   0.41629   0.00000  Uiso   1.00
C20    C     0.51652   0.96957   0.42887   0.00000  Uiso   1.00
C21    C     0.83225   0.34661   0.37136   0.00000  Uiso   1.00
C22    C     0.92881   0.43301   0.40248   0.00000  Uiso   1.00
C23    C     0.93704   0.54629   0.40876   0.00000  Uiso   1.00
H24    H     0.58234   0.28465   0.29638   0.00000  Uiso   1.00
H25    H     0.63374   0.24578   0.19863   0.00000  Uiso   1.00
H26    H     0.40042   0.10984   0.34881   0.00000  Uiso   1.00
H27    H     0.68893   0.50551   0.33500   0.00000  Uiso   1.00
H28    H     0.72833   0.19125   0.10085   0.00000  Uiso   1.00
H29    H     0.23636   0.90466   0.41752   0.00000  Uiso   1.00
H30    H     0.84475   0.73899   0.38841   0.00000  Uiso   1.00
H31    H     0.87233   0.19697   0.37795   0.00000  Uiso   1.00
H32    H     0.93965   0.15329   0.28468   0.00000  Uiso   1.00
H33    H     0.70632   0.01735   0.43486   0.00000  Uiso   1.00
H34    H     0.99483   0.41301   0.42105   0.00000  Uiso   1.00
H35    H     0.97662   0.11618   0.17069   0.00000  Uiso   1.00
H36    H     0.48464   0.82959   0.48737   0.00000  Uiso   1.00
H37    H     0.09303   0.66392   0.45825   0.00000  Uiso   1.00
O38    O     0.89150   0.12652   0.07295   0.00000  Uiso   1.00
O39    O     0.24606   0.75054   0.48841   0.00000  Uiso   1.00
O40    O     0.04424   0.84516   0.45022   0.00000  Uiso   1.00
N41    N     0.77755   0.17961   0.13009   0.00000  Uiso   1.00
N42    N     0.31758   0.91164   0.42615   0.00000  Uiso   1.00
N43    N     0.88635   0.69166   0.39895   0.00000  Uiso   1.00
N44    N     0.91115   0.13921   0.16767   0.00000  Uiso   1.00
N45    N     0.45118   0.87125   0.46373   0.00000  Uiso   1.00
N46    N     0.01995   0.65127   0.43653   0.00000  Uiso   1.00
C47    C     0.73543   0.38422   0.98173   0.00000  Uiso   1.00
C48    C     0.76870   0.48563   0.93994   0.00000  Uiso   1.00
C49    C     0.77419   0.47399   0.88386   0.00000  Uiso   1.00
C50    C     0.80643   0.57754   0.85260   0.00000  Uiso   1.00
C51    C     0.85423   0.71813   0.78405   0.00000  Uiso   1.00
C52    C     0.84257   0.43273   0.02153   0.00000  Uiso   1.00
C53    C     0.91015   0.37659   0.03406   0.00000  Uiso   1.00
C54    C     0.00457   0.43560   0.07148   0.00000  Uiso   1.00
C55    C     0.16699   0.49400   0.12964   0.00000  Uiso   1.00
C56    C     0.62760   0.37451   0.01402   0.00000  Uiso   1.00
C57    C     0.51443   0.26941   0.02025   0.00000  Uiso   1.00
C58    C     0.42786   0.27941   0.05137   0.00000  Uiso   1.00
C59    C     0.25649   0.24742   0.09787   0.00000  Uiso   1.00
C60    C     0.78294   0.58883   0.02593   0.00000  Uiso   1.00
C61    C     0.79451   0.59677   0.96394   0.00000  Uiso   1.00
C62    C     0.82675   0.70037   0.93276   0.00000  Uiso   1.00
C63    C     0.83228   0.68888   0.87665   0.00000  Uiso   1.00
C64    C     0.86838   0.54386   0.04553   0.00000  Uiso   1.00
C65    C     0.96271   0.60297   0.08295   0.00000  Uiso   1.00
C66    C     0.03043   0.54694   0.09554   0.00000  Uiso   1.00
C67    C     0.65339   0.48565   0.03803   0.00000  Uiso   1.00
C68    C     0.56699   0.49580   0.06915   0.00000  Uiso   1.00
C69    C     0.45371   0.39075   0.07542   0.00000  Uiso   1.00
H70    H     0.71535   0.29769   0.96305   0.00000  Uiso   1.00
H71    H     0.75422   0.38797   0.86530   0.00000  Uiso   1.00
H72    H     0.89016   0.29058   0.01548   0.00000  Uiso   1.00
H73    H     0.49449   0.18343   0.00167   0.00000  Uiso   1.00
H74    H     0.80875   0.53708   0.76752   0.00000  Uiso   1.00
H75    H     0.09534   0.33171   0.08419   0.00000  Uiso   1.00
H76    H     0.26101   0.10575   0.05508   0.00000  Uiso   1.00
H77    H     0.80303   0.67536   0.04462   0.00000  Uiso   1.00
H78    H     0.84671   0.78636   0.95135   0.00000  Uiso   1.00
H79    H     0.98265   0.68897   0.10153   0.00000  Uiso   1.00
H80    H     0.58699   0.58182   0.08772   0.00000  Uiso   1.00
H81    H     0.88382   0.86044   0.83736   0.00000  Uiso   1.00
H82    H     0.17041   0.65506   0.15403   0.00000  Uiso   1.00
H83    H     0.33608   0.42911   0.12492   0.00000  Uiso   1.00
O84    O     0.87348   0.76498   0.73961   0.00000  Uiso   1.00
O85    O     0.24946   0.49552   0.15508   0.00000  Uiso   1.00
O86    O     0.15484   0.19908   0.11688   0.00000  Uiso   1.00
N87    N     0.82039   0.59794   0.79676   0.00000  Uiso   1.00
N88    N     0.08836   0.40594   0.09282   0.00000  Uiso   1.00
N89    N     0.30834   0.19468   0.06561   0.00000  Uiso   1.00
N90    N     0.86079   0.77194   0.83434   0.00000  Uiso   1.00
N91    N     0.12875   0.57993   0.13040   0.00000  Uiso   1.00
N92    N     0.34873   0.36868   0.10319   0.00000  Uiso   1.00
C93    C     0.61578   0.35122   0.64840   0.00000  Uiso   1.00
C94    C     0.51437   0.28307   0.60660   0.00000  Uiso   1.00
C95    C     0.52601   0.30020   0.55053   0.00000  Uiso   1.00
C96    C     0.42246   0.22889   0.51927   0.00000  Uiso   1.00
C97    C     0.28187   0.13610   0.45072   0.00000  Uiso   1.00
C98    C     0.56727   0.40985   0.68819   0.00000  Uiso   1.00
C99    C     0.62341   0.53357   0.70072   0.00000  Uiso   1.00
C100   C     0.56440   0.56897   0.73815   0.00000  Uiso   1.00
C101   C     0.50600   0.67299   0.79631   0.00000  Uiso   1.00
C102   C     0.62549   0.25309   0.68069   0.00000  Uiso   1.00
C103   C     0.73059   0.24501   0.68692   0.00000  Uiso   1.00
C104   C     0.72059   0.14845   0.71804   0.00000  Uiso   1.00
C105   C     0.75258   0.00907   0.76454   0.00000  Uiso   1.00
C106   C     0.41117   0.19411   0.69260   0.00000  Uiso   1.00
C107   C     0.40323   0.19774   0.63061   0.00000  Uiso   1.00
C108   C     0.29963   0.12638   0.59943   0.00000  Uiso   1.00
C109   C     0.31112   0.14340   0.54331   0.00000  Uiso   1.00
C110   C     0.45614   0.32452   0.71220   0.00000  Uiso   1.00
C111   C     0.39703   0.35974   0.74962   0.00000  Uiso   1.00
C112   C     0.45306   0.48348   0.76220   0.00000  Uiso   1.00
C113   C     0.51435   0.16775   0.70469   0.00000  Uiso   1.00
C114   C     0.50420   0.07119   0.73582   0.00000  Uiso   1.00
C115   C     0.60925   0.06296   0.74209   0.00000  Uiso   1.00
H116   H     0.70231   0.41766   0.62971   0.00000  Uiso   1.00
H117   H     0.61203   0.36626   0.53197   0.00000  Uiso   1.00
H118   H     0.70942   0.59958   0.68214   0.00000  Uiso   1.00
H119   H     0.81657   0.31107   0.66834   0.00000  Uiso   1.00
H120   H     0.46292   0.27167   0.43419   0.00000  Uiso   1.00
H121   H     0.66829   0.76364   0.75086   0.00000  Uiso   1.00
H122   H     0.89425   0.15525   0.72175   0.00000  Uiso   1.00
H123   H     0.32464   0.12767   0.71129   0.00000  Uiso   1.00
H124   H     0.21364   0.06035   0.61802   0.00000  Uiso   1.00
H125   H     0.31103   0.29368   0.76819   0.00000  Uiso   1.00
H126   H     0.41818   0.00517   0.75439   0.00000  Uiso   1.00
H127   H     0.13956   0.02338   0.50403   0.00000  Uiso   1.00
H128   H     0.34494   0.51536   0.82070   0.00000  Uiso   1.00
H129   H     0.57089   0.90697   0.79159   0.00000  Uiso   1.00
O130   O     0.23502   0.10850   0.40628   0.00000  Uiso   1.00
O131   O     0.50448   0.75394   0.82174   0.00000  Uiso   1.00
O132   O     0.80092   0.95576   0.78355   0.00000  Uiso   1.00
N133   N     0.40206   0.22245   0.46342   0.00000  Uiso   1.00
N134   N     0.59406   0.68242   0.75948   0.00000  Uiso   1.00
N135   N     0.80532   0.11365   0.73228   0.00000  Uiso   1.00
N136   N     0.22806   0.08885   0.50100   0.00000  Uiso   1.00
N137   N     0.42007   0.54882   0.79706   0.00000  Uiso   1.00
N138   N     0.63132   0.98005   0.76986   0.00000  Uiso   1.00
C139   C     0.26457   0.64878   0.68493   0.00000  Uiso   1.00
C140   C     0.23130   0.71693   0.72673   0.00000  Uiso   1.00
C141   C     0.22581   0.69980   0.78280   0.00000  Uiso   1.00
C142   C     0.19357   0.77111   0.81407   0.00000  Uiso   1.00
C143   C     0.14577   0.86390   0.88261   0.00000  Uiso   1.00
C144   C     0.15743   0.59015   0.64514   0.00000  Uiso   1.00
C145   C     0.08985   0.46643   0.63261   0.00000  Uiso   1.00
C146   C     0.99543   0.43103   0.59518   0.00000  Uiso   1.00
C147   C     0.83301   0.32701   0.53703   0.00000  Uiso   1.00
C148   C     0.37240   0.74691   0.65265   0.00000  Uiso   1.00
C149   C     0.48557   0.75499   0.64641   0.00000  Uiso   1.00
C150   C     0.57214   0.85155   0.61529   0.00000  Uiso   1.00
C151   C     0.74351   0.99093   0.56879   0.00000  Uiso   1.00
C152   C     0.21706   0.80589   0.64074   0.00000  Uiso   1.00
C153   C     0.20549   0.80226   0.70272   0.00000  Uiso   1.00
C154   C     0.17325   0.87362   0.73391   0.00000  Uiso   1.00
C155   C     0.16772   0.85660   0.79002   0.00000  Uiso   1.00
C156   C     0.13162   0.67548   0.62113   0.00000  Uiso   1.00
C157   C     0.03729   0.64026   0.58371   0.00000  Uiso   1.00
C158   C     0.96957   0.51652   0.57113   0.00000  Uiso   1.00
C159   C     0.34661   0.83225   0.62864   0.00000  Uiso   1.00
C160   C     0.43301   0.92881   0.59752   0.00000  Uiso   1.00
C161   C     0.54629   0.93704   0.59124   0.00000  Uiso   1.00
H162   H     0.28465   0.58234   0.70362   0.00000  Uiso   1.00
H163   H     0.24578   0.63374   0.80137   0.00000  Uiso   1.00
H164   H     0.10984   0.40042   0.65119   0.00000  Uiso   1.00
H165   H     0.50551   0.68893   0.66500   0.00000  Uiso   1.00
H166   H     0.19125   0.72833   0.89915   0.00000  Uiso   1.00
H167   H     0.90466   0.23636   0.58248   0.00000  Uiso   1.00
H168   H     0.73899   0.84475   0.61159   0.00000  Uiso   1.00
H169   H     0.19697   0.87233   0.62205   0.00000  Uiso   1.00
H170   H     0.15329   0.93965   0.71532   0.00000  Uiso   1.00
H171   H     0.01735   0.70632   0.56514   0.00000  Uiso   1.00
H172   H     0.41301   0.99483   0.57895   0.00000  Uiso   1.00
H173   H     0.11618   0.97662   0.82931   0.00000  Uiso   1.00
H174   H     0.82959   0.48464   0.51263   0.00000  Uiso   1.00
H175   H     0.66392   0.09303   0.54175   0.00000  Uiso   1.00
O176   O     0.12652   0.89150   0.92705   0.00000  Uiso   1.00
O177   O     0.75054   0.24606   0.51159   0.00000  Uiso   1.00
O178   O     0.84516   0.04424   0.54978   0.00000  Uiso   1.00
N179   N     0.17961   0.77755   0.86991   0.00000  Uiso   1.00
N180   N     0.91164   0.31758   0.57385   0.00000  Uiso   1.00
N181   N     0.69166   0.88635   0.60105   0.00000  Uiso   1.00
N182   N     0.13921   0.91115   0.83233   0.00000  Uiso   1.00
N183   N     0.87125   0.45118   0.53627   0.00000  Uiso   1.00
N184   N     0.65127   0.01995   0.56347   0.00000  Uiso   1.00
C185   C     0.38422   0.73543   0.01827   0.00000  Uiso   1.00
C186   C     0.48563   0.76870   0.06006   0.00000  Uiso   1.00
C187   C     0.47399   0.77419   0.11614   0.00000  Uiso   1.00
C188   C     0.57754   0.80643   0.14740   0.00000  Uiso   1.00
C189   C     0.71813   0.85423   0.21595   0.00000  Uiso   1.00
C190   C     0.43273   0.84257   0.97847   0.00000  Uiso   1.00
C191   C     0.37659   0.91015   0.96594   0.00000  Uiso   1.00
C192   C     0.43560   0.00457   0.92852   0.00000  Uiso   1.00
C193   C     0.49400   0.16699   0.87036   0.00000  Uiso   1.00
C194   C     0.37451   0.62760   0.98598   0.00000  Uiso   1.00
C195   C     0.26941   0.51443   0.97975   0.00000  Uiso   1.00
C196   C     0.27941   0.42786   0.94863   0.00000  Uiso   1.00
C197   C     0.24742   0.25649   0.90213   0.00000  Uiso   1.00
C198   C     0.58883   0.78294   0.97407   0.00000  Uiso   1.00
C199   C     0.59677   0.79451   0.03606   0.00000  Uiso   1.00
C200   C     0.70037   0.82675   0.06724   0.00000  Uiso   1.00
C201   C     0.68888   0.83228   0.12335   0.00000  Uiso   1.00
C202   C     0.54386   0.86838   0.95447   0.00000  Uiso   1.00
C203   C     0.60297   0.96271   0.91705   0.00000  Uiso   1.00
C204   C     0.54694   0.03043   0.90446   0.00000  Uiso   1.00
C205   C     0.48565   0.65339   0.96197   0.00000  Uiso   1.00
C206   C     0.49580   0.56699   0.93085   0.00000  Uiso   1.00
C207   C     0.39075   0.45371   0.92458   0.00000  Uiso   1.00
H208   H     0.29769   0.71535   0.03695   0.00000  Uiso   1.00
H209   H     0.38797   0.75422   0.13470   0.00000  Uiso   1.00
H210   H     0.29058   0.89016   0.98452   0.00000  Uiso   1.00
H211   H     0.18343   0.49449   0.99833   0.00000  Uiso   1.00
H212   H     0.53708   0.80875   0.23248   0.00000  Uiso   1.00
H213   H     0.33171   0.09534   0.91581   0.00000  Uiso   1.00
H214   H     0.10575   0.26101   0.94492   0.00000  Uiso   1.00
H215   H     0.67536   0.80303   0.95538   0.00000  Uiso   1.00
H216   H     0.78636   0.84671   0.04865   0.00000  Uiso   1.00
H217   H     0.68897   0.98265   0.89847   0.00000  Uiso   1.00
H218   H     0.58182   0.58699   0.91228   0.00000  Uiso   1.00
H219   H     0.86044   0.88382   0.16264   0.00000  Uiso   1.00
H220   H     0.65506   0.17041   0.84597   0.00000  Uiso   1.00
H221   H     0.42911   0.33608   0.87508   0.00000  Uiso   1.00
O222   O     0.76498   0.87348   0.26039   0.00000  Uiso   1.00
O223   O     0.49552   0.24946   0.84492   0.00000  Uiso   1.00
O224   O     0.19908   0.15484   0.88312   0.00000  Uiso   1.00
N225   N     0.59794   0.82039   0.20324   0.00000  Uiso   1.00
N226   N     0.40594   0.08836   0.90718   0.00000  Uiso   1.00
N227   N     0.19468   0.30834   0.93439   0.00000  Uiso   1.00
N228   N     0.77194   0.86079   0.16566   0.00000  Uiso   1.00
N229   N     0.57993   0.12875   0.86960   0.00000  Uiso   1.00
N230   N     0.36868   0.34873   0.89681   0.00000  Uiso   1.00
C231   C     0.35122   0.61578   0.35160   0.00000  Uiso   1.00
C232   C     0.28307   0.51437   0.39340   0.00000  Uiso   1.00
C233   C     0.30020   0.52601   0.44947   0.00000  Uiso   1.00
C234   C     0.22889   0.42246   0.48073   0.00000  Uiso   1.00
C235   C     0.13610   0.28187   0.54928   0.00000  Uiso   1.00
C236   C     0.40985   0.56727   0.31181   0.00000  Uiso   1.00
C237   C     0.53357   0.62341   0.29928   0.00000  Uiso   1.00
C238   C     0.56897   0.56440   0.26185   0.00000  Uiso   1.00
C239   C     0.67299   0.50600   0.20369   0.00000  Uiso   1.00
C240   C     0.25309   0.62549   0.31931   0.00000  Uiso   1.00
C241   C     0.24501   0.73059   0.31308   0.00000  Uiso   1.00
C242   C     0.14845   0.72059   0.28196   0.00000  Uiso   1.00
C243   C     0.00907   0.75258   0.23546   0.00000  Uiso   1.00
C244   C     0.19411   0.41117   0.30740   0.00000  Uiso   1.00
C245   C     0.19774   0.40323   0.36939   0.00000  Uiso   1.00
C246   C     0.12638   0.29963   0.40057   0.00000  Uiso   1.00
C247   C     0.14340   0.31112   0.45669   0.00000  Uiso   1.00
C248   C     0.32452   0.45614   0.28780   0.00000  Uiso   1.00
C249   C     0.35974   0.39703   0.25038   0.00000  Uiso   1.00
C250   C     0.48348   0.45306   0.23780   0.00000  Uiso   1.00
C251   C     0.16775   0.51435   0.29531   0.00000  Uiso   1.00
C252   C     0.07119   0.50420   0.26418   0.00000  Uiso   1.00
C253   C     0.06296   0.60925   0.25791   0.00000  Uiso   1.00
H254   H     0.41766   0.70231   0.37029   0.00000  Uiso   1.00
H255   H     0.36626   0.61203   0.46803   0.00000  Uiso   1.00
H256   H     0.59958   0.70942   0.31786   0.00000  Uiso   1.00
H257   H     0.31107   0.81657   0.33166   0.00000  Uiso   1.00
H258   H     0.27167   0.46292   0.56581   0.00000  Uiso   1.00
H259   H     0.76364   0.66829   0.24914   0.00000  Uiso   1.00
H260   H     0.15525   0.89425   0.27825   0.00000  Uiso   1.00
H261   H     0.12767   0.32464   0.28871   0.00000  Uiso   1.00
H262   H     0.06035   0.21364   0.38198   0.00000  Uiso   1.00
H263   H     0.29368   0.31103   0.23181   0.00000  Uiso   1.00
H264   H     0.00517   0.41818   0.24561   0.00000  Uiso   1.00
H265   H     0.02338   0.13956   0.49597   0.00000  Uiso   1.00
H266   H     0.51536   0.34494   0.17930   0.00000  Uiso   1.00
H267   H     0.90697   0.57089   0.20841   0.00000  Uiso   1.00
O268   O     0.10850   0.23502   0.59372   0.00000  Uiso   1.00
O269   O     0.75394   0.50448   0.17826   0.00000  Uiso   1.00
O270   O     0.95576   0.80092   0.21645   0.00000  Uiso   1.00
N271   N     0.22245   0.40206   0.53658   0.00000  Uiso   1.00
N272   N     0.68242   0.59406   0.24052   0.00000  Uiso   1.00
N273   N     0.11365   0.80532   0.26772   0.00000  Uiso   1.00
N274   N     0.08885   0.22806   0.49900   0.00000  Uiso   1.00
N275   N     0.54882   0.42007   0.20294   0.00000  Uiso   1.00
N276   N     0.98005   0.63132   0.23014   0.00000  Uiso   1.00
