data_job_02302
_audit_creation_date              2018-12-19
_audit_creation_method            'Materials Studio'
_symmetry_space_group_name_H-M    'P1'
_symmetry_Int_Tables_number       1
_symmetry_cell_setting            triclinic
loop_
_symmetry_equiv_pos_as_xyz
  x,y,z
_cell_length_a                    19.4119
_cell_length_b                    9.4975
_cell_length_c                    17.7117
_cell_angle_alpha                 90.0000
_cell_angle_beta                  77.2134
_cell_angle_gamma                 90.0000
loop_
_atom_site_label
_atom_site_type_symbol
_atom_site_fract_x
_atom_site_fract_y
_atom_site_fract_z
_atom_site_U_iso_or_equiv
_atom_site_adp_type
_atom_site_occupancy
C1     C     0.21295   0.96715   0.20480   0.00000  Uiso   1.00
C2     C     0.24739   0.07211   0.25021   0.00000  Uiso   1.00
C3     C     0.24323   0.21765   0.24584   0.00000  Uiso   1.00
C4     C     0.27844   0.29528   0.29203   0.00000  Uiso   1.00
C5     C     0.32616   0.46825   0.35509   0.00000  Uiso   1.00
C6     C     0.27255   0.87420   0.16083   0.00000  Uiso   1.00
C7     C     0.28954   0.85333   0.08131   0.00000  Uiso   1.00
C8     C     0.34593   0.76434   0.05227   0.00000  Uiso   1.00
C9     C     0.43268   0.62998   0.97657   0.00000  Uiso   1.00
C10    C     0.16684   0.87225   0.26491   0.00000  Uiso   1.00
C11    C     0.09495   0.84969   0.27289   0.00000  Uiso   1.00
C12    C     0.06233   0.75903   0.33146   0.00000  Uiso   1.00
C13    C     0.98495   0.62163   0.41736   0.00000  Uiso   1.00
C14    C     0.28287   0.84620   0.29462   0.00000  Uiso   1.00
C15    C     0.28537   0.00642   0.29899   0.00000  Uiso   1.00
C16    C     0.32059   0.08384   0.34521   0.00000  Uiso   1.00
C17    C     0.31648   0.22947   0.34091   0.00000  Uiso   1.00
C18    C     0.31053   0.80851   0.20961   0.00000  Uiso   1.00
C19    C     0.36690   0.71953   0.18068   0.00000  Uiso   1.00
C20    C     0.38397   0.69853   0.10114   0.00000  Uiso   1.00
C21    C     0.20481   0.80655   0.31370   0.00000  Uiso   1.00
C22    C     0.17230   0.71589   0.37226   0.00000  Uiso   1.00
C23    C     0.10038   0.69321   0.38033   0.00000  Uiso   1.00
H24    H     0.18339   0.01829   0.16682   0.00000  Uiso   1.00
H25    H     0.21384   0.26845   0.20807   0.00000  Uiso   1.00
H26    H     0.26014   0.90417   0.04358   0.00000  Uiso   1.00
H27    H     0.06558   0.90055   0.23513   0.00000  Uiso   1.00
H28    H     0.26438   0.51683   0.27531   0.00000  Uiso   1.00
H29    H     0.36198   0.74870   0.92845   0.00000  Uiso   1.00
H30    H     0.95171   0.74104   0.33237   0.00000  Uiso   1.00
H31    H     0.31244   0.79506   0.33260   0.00000  Uiso   1.00
H32    H     0.34997   0.03298   0.38295   0.00000  Uiso   1.00
H33    H     0.39627   0.66870   0.21845   0.00000  Uiso   1.00
H34    H     0.20171   0.66508   0.41000   0.00000  Uiso   1.00
H35    H     0.37487   0.32572   0.41724   0.00000  Uiso   1.00
H36    H     0.47247   0.55758   0.07039   0.00000  Uiso   1.00
H37    H     0.06220   0.54993   0.47431   0.00000  Uiso   1.00
O38    O     0.34200   0.58181   0.37639   0.00000  Uiso   1.00
O39    O     0.47005   0.57404   0.92133   0.00000  Uiso   1.00
O40    O     0.93178   0.56400   0.45127   0.00000  Uiso   1.00
N41    N     0.28522   0.43920   0.30181   0.00000  Uiso   1.00
N42    N     0.37648   0.72106   0.97752   0.00000  Uiso   1.00
N43    N     0.99291   0.71388   0.35514   0.00000  Uiso   1.00
N44    N     0.34467   0.33636   0.37819   0.00000  Uiso   1.00
N45    N     0.43593   0.61823   0.05390   0.00000  Uiso   1.00
N46    N     0.05236   0.61104   0.43152   0.00000  Uiso   1.00
C47    C     0.78705   0.46715   0.29520   0.00000  Uiso   1.00
C48    C     0.75261   0.57211   0.24979   0.00000  Uiso   1.00
C49    C     0.75677   0.71765   0.25416   0.00000  Uiso   1.00
C50    C     0.72156   0.79528   0.20797   0.00000  Uiso   1.00
C51    C     0.67384   0.96825   0.14491   0.00000  Uiso   1.00
C52    C     0.72745   0.37420   0.33917   0.00000  Uiso   1.00
C53    C     0.71046   0.35333   0.41869   0.00000  Uiso   1.00
C54    C     0.65407   0.26434   0.44773   0.00000  Uiso   1.00
C55    C     0.56732   0.12998   0.52343   0.00000  Uiso   1.00
C56    C     0.83316   0.37225   0.23509   0.00000  Uiso   1.00
C57    C     0.90505   0.34969   0.22711   0.00000  Uiso   1.00
C58    C     0.93767   0.25903   0.16854   0.00000  Uiso   1.00
C59    C     0.01505   0.12163   0.08264   0.00000  Uiso   1.00
C60    C     0.71713   0.34620   0.20538   0.00000  Uiso   1.00
C61    C     0.71463   0.50642   0.20101   0.00000  Uiso   1.00
C62    C     0.67941   0.58384   0.15479   0.00000  Uiso   1.00
C63    C     0.68352   0.72947   0.15909   0.00000  Uiso   1.00
C64    C     0.68947   0.30851   0.29039   0.00000  Uiso   1.00
C65    C     0.63310   0.21953   0.31932   0.00000  Uiso   1.00
C66    C     0.61603   0.19853   0.39886   0.00000  Uiso   1.00
C67    C     0.79519   0.30655   0.18630   0.00000  Uiso   1.00
C68    C     0.82770   0.21589   0.12774   0.00000  Uiso   1.00
C69    C     0.89962   0.19321   0.11967   0.00000  Uiso   1.00
H70    H     0.81661   0.51829   0.33318   0.00000  Uiso   1.00
H71    H     0.78616   0.76845   0.29193   0.00000  Uiso   1.00
H72    H     0.73986   0.40417   0.45642   0.00000  Uiso   1.00
H73    H     0.93442   0.40055   0.26487   0.00000  Uiso   1.00
H74    H     0.73562   0.01683   0.22469   0.00000  Uiso   1.00
H75    H     0.63802   0.24870   0.57155   0.00000  Uiso   1.00
H76    H     0.04829   0.24104   0.16763   0.00000  Uiso   1.00
H77    H     0.68756   0.29506   0.16740   0.00000  Uiso   1.00
H78    H     0.65003   0.53298   0.11705   0.00000  Uiso   1.00
H79    H     0.60373   0.16870   0.28155   0.00000  Uiso   1.00
H80    H     0.79829   0.16508   0.09000   0.00000  Uiso   1.00
H81    H     0.62513   0.82572   0.08276   0.00000  Uiso   1.00
H82    H     0.52753   0.05758   0.42961   0.00000  Uiso   1.00
H83    H     0.93780   0.04993   0.02569   0.00000  Uiso   1.00
O84    O     0.65800   0.08181   0.12361   0.00000  Uiso   1.00
O85    O     0.52995   0.07404   0.57867   0.00000  Uiso   1.00
O86    O     0.06822   0.06400   0.04873   0.00000  Uiso   1.00
N87    N     0.71478   0.93920   0.19819   0.00000  Uiso   1.00
N88    N     0.62352   0.22106   0.52248   0.00000  Uiso   1.00
N89    N     0.00709   0.21388   0.14486   0.00000  Uiso   1.00
N90    N     0.65533   0.83636   0.12181   0.00000  Uiso   1.00
N91    N     0.56407   0.11823   0.44610   0.00000  Uiso   1.00
N92    N     0.94764   0.11104   0.06848   0.00000  Uiso   1.00
C93    C     0.78705   0.03285   0.79520   0.00000  Uiso   1.00
C94    C     0.75261   0.92789   0.74979   0.00000  Uiso   1.00
C95    C     0.75677   0.78235   0.75416   0.00000  Uiso   1.00
C96    C     0.72156   0.70472   0.70797   0.00000  Uiso   1.00
C97    C     0.67384   0.53175   0.64491   0.00000  Uiso   1.00
C98    C     0.72745   0.12580   0.83917   0.00000  Uiso   1.00
C99    C     0.71046   0.14667   0.91869   0.00000  Uiso   1.00
C100   C     0.65407   0.23566   0.94773   0.00000  Uiso   1.00
C101   C     0.56732   0.37002   0.02343   0.00000  Uiso   1.00
C102   C     0.83316   0.12775   0.73509   0.00000  Uiso   1.00
C103   C     0.90505   0.15031   0.72711   0.00000  Uiso   1.00
C104   C     0.93767   0.24097   0.66854   0.00000  Uiso   1.00
C105   C     0.01505   0.37837   0.58264   0.00000  Uiso   1.00
C106   C     0.71713   0.15380   0.70538   0.00000  Uiso   1.00
C107   C     0.71463   0.99358   0.70101   0.00000  Uiso   1.00
C108   C     0.67941   0.91616   0.65479   0.00000  Uiso   1.00
C109   C     0.68352   0.77053   0.65909   0.00000  Uiso   1.00
C110   C     0.68947   0.19149   0.79039   0.00000  Uiso   1.00
C111   C     0.63310   0.28047   0.81932   0.00000  Uiso   1.00
C112   C     0.61603   0.30147   0.89886   0.00000  Uiso   1.00
C113   C     0.79519   0.19345   0.68630   0.00000  Uiso   1.00
C114   C     0.82770   0.28411   0.62774   0.00000  Uiso   1.00
C115   C     0.89962   0.30679   0.61967   0.00000  Uiso   1.00
H116   H     0.81661   0.98171   0.83318   0.00000  Uiso   1.00
H117   H     0.78616   0.73155   0.79193   0.00000  Uiso   1.00
H118   H     0.73986   0.09583   0.95642   0.00000  Uiso   1.00
H119   H     0.93442   0.09945   0.76487   0.00000  Uiso   1.00
H120   H     0.73562   0.48317   0.72469   0.00000  Uiso   1.00
H121   H     0.63802   0.25130   0.07155   0.00000  Uiso   1.00
H122   H     0.04829   0.25896   0.66763   0.00000  Uiso   1.00
H123   H     0.68756   0.20494   0.66740   0.00000  Uiso   1.00
H124   H     0.65003   0.96702   0.61705   0.00000  Uiso   1.00
H125   H     0.60373   0.33130   0.78155   0.00000  Uiso   1.00
H126   H     0.79829   0.33492   0.59000   0.00000  Uiso   1.00
H127   H     0.62513   0.67428   0.58276   0.00000  Uiso   1.00
H128   H     0.52753   0.44242   0.92961   0.00000  Uiso   1.00
H129   H     0.93780   0.45007   0.52569   0.00000  Uiso   1.00
O130   O     0.65800   0.41819   0.62361   0.00000  Uiso   1.00
O131   O     0.52995   0.42596   0.07867   0.00000  Uiso   1.00
O132   O     0.06822   0.43600   0.54873   0.00000  Uiso   1.00
N133   N     0.71478   0.56080   0.69819   0.00000  Uiso   1.00
N134   N     0.62352   0.27894   0.02248   0.00000  Uiso   1.00
N135   N     0.00709   0.28612   0.64486   0.00000  Uiso   1.00
N136   N     0.65533   0.66364   0.62181   0.00000  Uiso   1.00
N137   N     0.56407   0.38177   0.94610   0.00000  Uiso   1.00
N138   N     0.94764   0.38896   0.56848   0.00000  Uiso   1.00
C139   C     0.21295   0.53285   0.70480   0.00000  Uiso   1.00
C140   C     0.24739   0.42789   0.75021   0.00000  Uiso   1.00
C141   C     0.24323   0.28235   0.74584   0.00000  Uiso   1.00
C142   C     0.27844   0.20472   0.79203   0.00000  Uiso   1.00
C143   C     0.32616   0.03175   0.85509   0.00000  Uiso   1.00
C144   C     0.27255   0.62580   0.66083   0.00000  Uiso   1.00
C145   C     0.28954   0.64667   0.58131   0.00000  Uiso   1.00
C146   C     0.34593   0.73566   0.55227   0.00000  Uiso   1.00
C147   C     0.43268   0.87002   0.47657   0.00000  Uiso   1.00
C148   C     0.16684   0.62775   0.76491   0.00000  Uiso   1.00
C149   C     0.09495   0.65031   0.77289   0.00000  Uiso   1.00
C150   C     0.06233   0.74097   0.83146   0.00000  Uiso   1.00
C151   C     0.98495   0.87837   0.91736   0.00000  Uiso   1.00
C152   C     0.28287   0.65380   0.79462   0.00000  Uiso   1.00
C153   C     0.28537   0.49358   0.79899   0.00000  Uiso   1.00
C154   C     0.32059   0.41616   0.84521   0.00000  Uiso   1.00
C155   C     0.31648   0.27053   0.84091   0.00000  Uiso   1.00
C156   C     0.31053   0.69149   0.70961   0.00000  Uiso   1.00
C157   C     0.36690   0.78047   0.68068   0.00000  Uiso   1.00
C158   C     0.38397   0.80147   0.60114   0.00000  Uiso   1.00
C159   C     0.20481   0.69345   0.81370   0.00000  Uiso   1.00
C160   C     0.17230   0.78411   0.87226   0.00000  Uiso   1.00
C161   C     0.10038   0.80679   0.88033   0.00000  Uiso   1.00
H162   H     0.18339   0.48171   0.66682   0.00000  Uiso   1.00
H163   H     0.21384   0.23155   0.70807   0.00000  Uiso   1.00
H164   H     0.26014   0.59583   0.54358   0.00000  Uiso   1.00
H165   H     0.06558   0.59945   0.73513   0.00000  Uiso   1.00
H166   H     0.26438   0.98317   0.77531   0.00000  Uiso   1.00
H167   H     0.36198   0.75130   0.42845   0.00000  Uiso   1.00
H168   H     0.95171   0.75896   0.83237   0.00000  Uiso   1.00
H169   H     0.31244   0.70494   0.83260   0.00000  Uiso   1.00
H170   H     0.34997   0.46702   0.88295   0.00000  Uiso   1.00
H171   H     0.39627   0.83130   0.71845   0.00000  Uiso   1.00
H172   H     0.20171   0.83492   0.91000   0.00000  Uiso   1.00
H173   H     0.37487   0.17428   0.91724   0.00000  Uiso   1.00
H174   H     0.47247   0.94242   0.57039   0.00000  Uiso   1.00
H175   H     0.06220   0.95007   0.97431   0.00000  Uiso   1.00
O176   O     0.34200   0.91819   0.87639   0.00000  Uiso   1.00
O177   O     0.47005   0.92596   0.42133   0.00000  Uiso   1.00
O178   O     0.93178   0.93600   0.95127   0.00000  Uiso   1.00
N179   N     0.28522   0.06080   0.80181   0.00000  Uiso   1.00
N180   N     0.37648   0.77894   0.47752   0.00000  Uiso   1.00
N181   N     0.99291   0.78612   0.85514   0.00000  Uiso   1.00
N182   N     0.34467   0.16364   0.87819   0.00000  Uiso   1.00
N183   N     0.43593   0.88177   0.55390   0.00000  Uiso   1.00
N184   N     0.05236   0.88896   0.93152   0.00000  Uiso   1.00
