data_job_00626
_audit_creation_date              2018-12-19
_audit_creation_method            'Materials Studio'
_symmetry_space_group_name_H-M    'P1'
_symmetry_Int_Tables_number       1
_symmetry_cell_setting            triclinic
loop_
_symmetry_equiv_pos_as_xyz
  x,y,z
_cell_length_a                    14.5417
_cell_length_b                    42.2493
_cell_length_c                    11.8014
_cell_angle_alpha                 90.0000
_cell_angle_beta                  90.0000
_cell_angle_gamma                 90.0000
loop_
_atom_site_label
_atom_site_type_symbol
_atom_site_fract_x
_atom_site_fract_y
_atom_site_fract_z
_atom_site_U_iso_or_equiv
_atom_site_adp_type
_atom_site_occupancy
C1     C     0.56735   0.65620   0.90084   0.00000  Uiso   1.00
C2     C     0.51128   0.67291   0.80948   0.00000  Uiso   1.00
C3     C     0.54090   0.67951   0.70022   0.00000  Uiso   1.00
C4     C     0.47931   0.69496   0.62937   0.00000  Uiso   1.00
C5     C     0.40562   0.71959   0.48183   0.00000  Uiso   1.00
C6     C     0.51015   0.62779   0.93804   0.00000  Uiso   1.00
C7     C     0.53883   0.59646   0.93689   0.00000  Uiso   1.00
C8     C     0.47628   0.57394   0.97428   0.00000  Uiso   1.00
C9     C     0.40087   0.52852   0.02640   0.00000  Uiso   1.00
C10    C     0.56954   0.67867   0.00194   0.00000  Uiso   1.00
C11    C     0.64816   0.69011   0.05454   0.00000  Uiso   1.00
C12    C     0.63561   0.71042   0.14575   0.00000  Uiso   1.00
C13    C     0.65241   0.74400   0.29708   0.00000  Uiso   1.00
C14    C     0.40527   0.67191   0.96931   0.00000  Uiso   1.00
C15    C     0.42325   0.68144   0.84667   0.00000  Uiso   1.00
C16    C     0.36159   0.69688   0.77597   0.00000  Uiso   1.00
C17    C     0.39112   0.70351   0.66663   0.00000  Uiso   1.00
C18    C     0.42212   0.63632   0.97523   0.00000  Uiso   1.00
C19    C     0.35952   0.61384   0.01264   0.00000  Uiso   1.00
C20    C     0.38809   0.58248   0.01154   0.00000  Uiso   1.00
C21    C     0.48151   0.68720   0.03913   0.00000  Uiso   1.00
C22    C     0.46884   0.70749   0.13028   0.00000  Uiso   1.00
C23    C     0.54742   0.71896   0.18300   0.00000  Uiso   1.00
H24    H     0.63588   0.64956   0.87189   0.00000  Uiso   1.00
H25    H     0.60903   0.67290   0.67147   0.00000  Uiso   1.00
H26    H     0.60696   0.58987   0.90811   0.00000  Uiso   1.00
H27    H     0.71627   0.68351   0.02573   0.00000  Uiso   1.00
H28    H     0.54043   0.70253   0.46565   0.00000  Uiso   1.00
H29    H     0.53608   0.52745   0.96465   0.00000  Uiso   1.00
H30    H     0.76658   0.72491   0.21269   0.00000  Uiso   1.00
H31    H     0.33673   0.67855   0.99827   0.00000  Uiso   1.00
H32    H     0.29347   0.70348   0.80478   0.00000  Uiso   1.00
H33    H     0.29140   0.62044   0.04142   0.00000  Uiso   1.00
H34    H     0.40071   0.71408   0.15904   0.00000  Uiso   1.00
H35    H     0.28431   0.72735   0.57384   0.00000  Uiso   1.00
H36    H     0.27996   0.55227   0.07286   0.00000  Uiso   1.00
H37    H     0.51045   0.74972   0.32089   0.00000  Uiso   1.00
O38    O     0.38929   0.73081   0.39017   0.00000  Uiso   1.00
O39    O     0.38359   0.50111   0.04487   0.00000  Uiso   1.00
O40    O     0.68600   0.76017   0.37027   0.00000  Uiso   1.00
N41    N     0.48610   0.70496   0.51767   0.00000  Uiso   1.00
N42    N     0.48202   0.54127   0.98420   0.00000  Uiso   1.00
N43    N     0.69752   0.72586   0.21611   0.00000  Uiso   1.00
N44    N     0.34828   0.71831   0.57589   0.00000  Uiso   1.00
N45    N     0.34420   0.55462   0.04242   0.00000  Uiso   1.00
N46    N     0.55970   0.73922   0.27433   0.00000  Uiso   1.00
C47    C     0.93265   0.34380   0.40084   0.00000  Uiso   1.00
C48    C     0.98872   0.32709   0.30948   0.00000  Uiso   1.00
C49    C     0.95910   0.32049   0.20022   0.00000  Uiso   1.00
C50    C     0.02069   0.30504   0.12937   0.00000  Uiso   1.00
C51    C     0.09438   0.28041   0.98183   0.00000  Uiso   1.00
C52    C     0.98985   0.37221   0.43804   0.00000  Uiso   1.00
C53    C     0.96117   0.40354   0.43689   0.00000  Uiso   1.00
C54    C     0.02372   0.42606   0.47428   0.00000  Uiso   1.00
C55    C     0.09913   0.47148   0.52640   0.00000  Uiso   1.00
C56    C     0.93046   0.32133   0.50194   0.00000  Uiso   1.00
C57    C     0.85184   0.30989   0.55454   0.00000  Uiso   1.00
C58    C     0.86439   0.28958   0.64575   0.00000  Uiso   1.00
C59    C     0.84759   0.25600   0.79708   0.00000  Uiso   1.00
C60    C     0.09473   0.32809   0.46931   0.00000  Uiso   1.00
C61    C     0.07675   0.31856   0.34667   0.00000  Uiso   1.00
C62    C     0.13841   0.30312   0.27597   0.00000  Uiso   1.00
C63    C     0.10888   0.29649   0.16663   0.00000  Uiso   1.00
C64    C     0.07788   0.36368   0.47523   0.00000  Uiso   1.00
C65    C     0.14048   0.38616   0.51264   0.00000  Uiso   1.00
C66    C     0.11191   0.41752   0.51154   0.00000  Uiso   1.00
C67    C     0.01849   0.31280   0.53913   0.00000  Uiso   1.00
C68    C     0.03116   0.29251   0.63028   0.00000  Uiso   1.00
C69    C     0.95258   0.28104   0.68300   0.00000  Uiso   1.00
H70    H     0.86412   0.35044   0.37189   0.00000  Uiso   1.00
H71    H     0.89097   0.32710   0.17147   0.00000  Uiso   1.00
H72    H     0.89304   0.41013   0.40811   0.00000  Uiso   1.00
H73    H     0.78373   0.31649   0.52573   0.00000  Uiso   1.00
H74    H     0.95957   0.29747   0.96565   0.00000  Uiso   1.00
H75    H     0.96392   0.47255   0.46465   0.00000  Uiso   1.00
H76    H     0.73342   0.27509   0.71269   0.00000  Uiso   1.00
H77    H     0.16327   0.32145   0.49827   0.00000  Uiso   1.00
H78    H     0.20653   0.29652   0.30478   0.00000  Uiso   1.00
H79    H     0.20860   0.37956   0.54142   0.00000  Uiso   1.00
H80    H     0.09929   0.28592   0.65904   0.00000  Uiso   1.00
H81    H     0.21569   0.27265   0.07384   0.00000  Uiso   1.00
H82    H     0.22004   0.44773   0.57286   0.00000  Uiso   1.00
H83    H     0.98955   0.25028   0.82089   0.00000  Uiso   1.00
O84    O     0.11071   0.26919   0.89017   0.00000  Uiso   1.00
O85    O     0.11641   0.49889   0.54487   0.00000  Uiso   1.00
O86    O     0.81400   0.23983   0.87027   0.00000  Uiso   1.00
N87    N     0.01390   0.29504   0.01767   0.00000  Uiso   1.00
N88    N     0.01798   0.45873   0.48420   0.00000  Uiso   1.00
N89    N     0.80248   0.27414   0.71611   0.00000  Uiso   1.00
N90    N     0.15172   0.28169   0.07589   0.00000  Uiso   1.00
N91    N     0.15580   0.44538   0.54242   0.00000  Uiso   1.00
N92    N     0.94030   0.26078   0.77433   0.00000  Uiso   1.00
C93    C     0.43265   0.15620   0.59916   0.00000  Uiso   1.00
C94    C     0.48872   0.17291   0.69052   0.00000  Uiso   1.00
C95    C     0.45910   0.17951   0.79978   0.00000  Uiso   1.00
C96    C     0.52069   0.19496   0.87063   0.00000  Uiso   1.00
C97    C     0.59438   0.21959   0.01817   0.00000  Uiso   1.00
C98    C     0.48985   0.12779   0.56196   0.00000  Uiso   1.00
C99    C     0.46117   0.09646   0.56311   0.00000  Uiso   1.00
C100   C     0.52372   0.07394   0.52572   0.00000  Uiso   1.00
C101   C     0.59913   0.02852   0.47360   0.00000  Uiso   1.00
C102   C     0.43046   0.17867   0.49806   0.00000  Uiso   1.00
C103   C     0.35184   0.19011   0.44546   0.00000  Uiso   1.00
C104   C     0.36439   0.21042   0.35425   0.00000  Uiso   1.00
C105   C     0.34759   0.24400   0.20292   0.00000  Uiso   1.00
C106   C     0.59473   0.17191   0.53069   0.00000  Uiso   1.00
C107   C     0.57675   0.18144   0.65333   0.00000  Uiso   1.00
C108   C     0.63841   0.19688   0.72403   0.00000  Uiso   1.00
C109   C     0.60888   0.20351   0.83337   0.00000  Uiso   1.00
C110   C     0.57788   0.13632   0.52477   0.00000  Uiso   1.00
C111   C     0.64048   0.11384   0.48736   0.00000  Uiso   1.00
C112   C     0.61191   0.08248   0.48846   0.00000  Uiso   1.00
C113   C     0.51849   0.18720   0.46087   0.00000  Uiso   1.00
C114   C     0.53116   0.20749   0.36972   0.00000  Uiso   1.00
C115   C     0.45258   0.21896   0.31700   0.00000  Uiso   1.00
H116   H     0.36412   0.14956   0.62811   0.00000  Uiso   1.00
H117   H     0.39097   0.17290   0.82853   0.00000  Uiso   1.00
H118   H     0.39304   0.08987   0.59189   0.00000  Uiso   1.00
H119   H     0.28373   0.18351   0.47427   0.00000  Uiso   1.00
H120   H     0.45957   0.20253   0.03435   0.00000  Uiso   1.00
H121   H     0.46392   0.02745   0.53535   0.00000  Uiso   1.00
H122   H     0.23342   0.22491   0.28731   0.00000  Uiso   1.00
H123   H     0.66327   0.17855   0.50173   0.00000  Uiso   1.00
H124   H     0.70653   0.20348   0.69522   0.00000  Uiso   1.00
H125   H     0.70860   0.12044   0.45858   0.00000  Uiso   1.00
H126   H     0.59929   0.21408   0.34096   0.00000  Uiso   1.00
H127   H     0.71569   0.22735   0.92616   0.00000  Uiso   1.00
H128   H     0.72004   0.05227   0.42714   0.00000  Uiso   1.00
H129   H     0.48955   0.24972   0.17911   0.00000  Uiso   1.00
O130   O     0.61071   0.23081   0.10983   0.00000  Uiso   1.00
O131   O     0.61641   0.00111   0.45513   0.00000  Uiso   1.00
O132   O     0.31400   0.26017   0.12973   0.00000  Uiso   1.00
N133   N     0.51390   0.20496   0.98233   0.00000  Uiso   1.00
N134   N     0.51798   0.04127   0.51580   0.00000  Uiso   1.00
N135   N     0.30248   0.22586   0.28389   0.00000  Uiso   1.00
N136   N     0.65172   0.21831   0.92411   0.00000  Uiso   1.00
N137   N     0.65580   0.05462   0.45758   0.00000  Uiso   1.00
N138   N     0.44030   0.23922   0.22567   0.00000  Uiso   1.00
C139   C     0.06735   0.84380   0.09916   0.00000  Uiso   1.00
C140   C     0.01128   0.82709   0.19052   0.00000  Uiso   1.00
C141   C     0.04090   0.82049   0.29978   0.00000  Uiso   1.00
C142   C     0.97931   0.80504   0.37063   0.00000  Uiso   1.00
C143   C     0.90562   0.78041   0.51817   0.00000  Uiso   1.00
C144   C     0.01015   0.87221   0.06196   0.00000  Uiso   1.00
C145   C     0.03883   0.90354   0.06311   0.00000  Uiso   1.00
C146   C     0.97628   0.92606   0.02572   0.00000  Uiso   1.00
C147   C     0.90087   0.97148   0.97360   0.00000  Uiso   1.00
C148   C     0.06954   0.82133   0.99806   0.00000  Uiso   1.00
C149   C     0.14816   0.80989   0.94546   0.00000  Uiso   1.00
C150   C     0.13561   0.78958   0.85425   0.00000  Uiso   1.00
C151   C     0.15241   0.75600   0.70292   0.00000  Uiso   1.00
C152   C     0.90527   0.82809   0.03069   0.00000  Uiso   1.00
C153   C     0.92325   0.81856   0.15333   0.00000  Uiso   1.00
C154   C     0.86159   0.80312   0.22403   0.00000  Uiso   1.00
C155   C     0.89112   0.79649   0.33337   0.00000  Uiso   1.00
C156   C     0.92212   0.86368   0.02477   0.00000  Uiso   1.00
C157   C     0.85952   0.88616   0.98736   0.00000  Uiso   1.00
C158   C     0.88809   0.91752   0.98846   0.00000  Uiso   1.00
C159   C     0.98151   0.81280   0.96087   0.00000  Uiso   1.00
C160   C     0.96884   0.79251   0.86972   0.00000  Uiso   1.00
C161   C     0.04742   0.78104   0.81700   0.00000  Uiso   1.00
H162   H     0.13588   0.85044   0.12811   0.00000  Uiso   1.00
H163   H     0.10903   0.82710   0.32853   0.00000  Uiso   1.00
H164   H     0.10696   0.91013   0.09189   0.00000  Uiso   1.00
H165   H     0.21627   0.81649   0.97427   0.00000  Uiso   1.00
H166   H     0.04043   0.79747   0.53435   0.00000  Uiso   1.00
H167   H     0.03608   0.97255   0.03535   0.00000  Uiso   1.00
H168   H     0.26658   0.77509   0.78731   0.00000  Uiso   1.00
H169   H     0.83673   0.82145   0.00173   0.00000  Uiso   1.00
H170   H     0.79347   0.79652   0.19522   0.00000  Uiso   1.00
H171   H     0.79140   0.87956   0.95858   0.00000  Uiso   1.00
H172   H     0.90071   0.78592   0.84096   0.00000  Uiso   1.00
H173   H     0.78431   0.77265   0.42616   0.00000  Uiso   1.00
H174   H     0.77996   0.94773   0.92714   0.00000  Uiso   1.00
H175   H     0.01045   0.75028   0.67911   0.00000  Uiso   1.00
O176   O     0.88929   0.76919   0.60983   0.00000  Uiso   1.00
O177   O     0.88359   0.99889   0.95513   0.00000  Uiso   1.00
O178   O     0.18600   0.73983   0.62973   0.00000  Uiso   1.00
N179   N     0.98610   0.79504   0.48233   0.00000  Uiso   1.00
N180   N     0.98202   0.95873   0.01580   0.00000  Uiso   1.00
N181   N     0.19752   0.77414   0.78389   0.00000  Uiso   1.00
N182   N     0.84828   0.78169   0.42411   0.00000  Uiso   1.00
N183   N     0.84420   0.94538   0.95758   0.00000  Uiso   1.00
N184   N     0.05970   0.76078   0.72567   0.00000  Uiso   1.00
C185   C     0.43265   0.34380   0.09916   0.00000  Uiso   1.00
C186   C     0.48872   0.32709   0.19052   0.00000  Uiso   1.00
C187   C     0.45910   0.32049   0.29978   0.00000  Uiso   1.00
C188   C     0.52069   0.30504   0.37063   0.00000  Uiso   1.00
C189   C     0.59438   0.28041   0.51817   0.00000  Uiso   1.00
C190   C     0.48985   0.37221   0.06196   0.00000  Uiso   1.00
C191   C     0.46117   0.40354   0.06311   0.00000  Uiso   1.00
C192   C     0.52372   0.42606   0.02572   0.00000  Uiso   1.00
C193   C     0.59913   0.47148   0.97360   0.00000  Uiso   1.00
C194   C     0.43046   0.32133   0.99806   0.00000  Uiso   1.00
C195   C     0.35184   0.30989   0.94546   0.00000  Uiso   1.00
C196   C     0.36439   0.28958   0.85425   0.00000  Uiso   1.00
C197   C     0.34759   0.25600   0.70292   0.00000  Uiso   1.00
C198   C     0.59473   0.32809   0.03069   0.00000  Uiso   1.00
C199   C     0.57675   0.31856   0.15333   0.00000  Uiso   1.00
C200   C     0.63841   0.30312   0.22403   0.00000  Uiso   1.00
C201   C     0.60888   0.29649   0.33337   0.00000  Uiso   1.00
C202   C     0.57788   0.36368   0.02477   0.00000  Uiso   1.00
C203   C     0.64048   0.38616   0.98736   0.00000  Uiso   1.00
C204   C     0.61191   0.41752   0.98846   0.00000  Uiso   1.00
C205   C     0.51849   0.31280   0.96087   0.00000  Uiso   1.00
C206   C     0.53116   0.29251   0.86972   0.00000  Uiso   1.00
C207   C     0.45258   0.28104   0.81700   0.00000  Uiso   1.00
H208   H     0.36412   0.35044   0.12811   0.00000  Uiso   1.00
H209   H     0.39097   0.32710   0.32853   0.00000  Uiso   1.00
H210   H     0.39304   0.41013   0.09189   0.00000  Uiso   1.00
H211   H     0.28373   0.31649   0.97427   0.00000  Uiso   1.00
H212   H     0.45957   0.29747   0.53435   0.00000  Uiso   1.00
H213   H     0.46392   0.47255   0.03535   0.00000  Uiso   1.00
H214   H     0.23342   0.27509   0.78731   0.00000  Uiso   1.00
H215   H     0.66327   0.32145   0.00173   0.00000  Uiso   1.00
H216   H     0.70653   0.29652   0.19522   0.00000  Uiso   1.00
H217   H     0.70860   0.37956   0.95858   0.00000  Uiso   1.00
H218   H     0.59929   0.28592   0.84096   0.00000  Uiso   1.00
H219   H     0.71569   0.27265   0.42616   0.00000  Uiso   1.00
H220   H     0.72004   0.44773   0.92714   0.00000  Uiso   1.00
H221   H     0.48955   0.25028   0.67911   0.00000  Uiso   1.00
O222   O     0.61071   0.26919   0.60983   0.00000  Uiso   1.00
O223   O     0.61641   0.49889   0.95513   0.00000  Uiso   1.00
O224   O     0.31400   0.23983   0.62973   0.00000  Uiso   1.00
N225   N     0.51390   0.29504   0.48233   0.00000  Uiso   1.00
N226   N     0.51798   0.45873   0.01580   0.00000  Uiso   1.00
N227   N     0.30248   0.27414   0.78389   0.00000  Uiso   1.00
N228   N     0.65172   0.28169   0.42411   0.00000  Uiso   1.00
N229   N     0.65580   0.44538   0.95758   0.00000  Uiso   1.00
N230   N     0.44030   0.26078   0.72567   0.00000  Uiso   1.00
C231   C     0.06735   0.65620   0.59916   0.00000  Uiso   1.00
C232   C     0.01128   0.67291   0.69052   0.00000  Uiso   1.00
C233   C     0.04090   0.67951   0.79978   0.00000  Uiso   1.00
C234   C     0.97931   0.69496   0.87063   0.00000  Uiso   1.00
C235   C     0.90562   0.71959   0.01817   0.00000  Uiso   1.00
C236   C     0.01015   0.62779   0.56196   0.00000  Uiso   1.00
C237   C     0.03883   0.59646   0.56311   0.00000  Uiso   1.00
C238   C     0.97628   0.57394   0.52572   0.00000  Uiso   1.00
C239   C     0.90087   0.52852   0.47360   0.00000  Uiso   1.00
C240   C     0.06954   0.67867   0.49806   0.00000  Uiso   1.00
C241   C     0.14816   0.69011   0.44546   0.00000  Uiso   1.00
C242   C     0.13561   0.71042   0.35425   0.00000  Uiso   1.00
C243   C     0.15241   0.74400   0.20292   0.00000  Uiso   1.00
C244   C     0.90527   0.67191   0.53069   0.00000  Uiso   1.00
C245   C     0.92325   0.68144   0.65333   0.00000  Uiso   1.00
C246   C     0.86159   0.69688   0.72403   0.00000  Uiso   1.00
C247   C     0.89112   0.70351   0.83337   0.00000  Uiso   1.00
C248   C     0.92212   0.63632   0.52477   0.00000  Uiso   1.00
C249   C     0.85952   0.61384   0.48736   0.00000  Uiso   1.00
C250   C     0.88809   0.58248   0.48846   0.00000  Uiso   1.00
C251   C     0.98151   0.68720   0.46087   0.00000  Uiso   1.00
C252   C     0.96884   0.70749   0.36972   0.00000  Uiso   1.00
C253   C     0.04742   0.71896   0.31700   0.00000  Uiso   1.00
H254   H     0.13588   0.64956   0.62811   0.00000  Uiso   1.00
H255   H     0.10903   0.67290   0.82853   0.00000  Uiso   1.00
H256   H     0.10696   0.58987   0.59189   0.00000  Uiso   1.00
H257   H     0.21627   0.68351   0.47427   0.00000  Uiso   1.00
H258   H     0.04043   0.70253   0.03435   0.00000  Uiso   1.00
H259   H     0.03608   0.52745   0.53535   0.00000  Uiso   1.00
H260   H     0.26658   0.72491   0.28731   0.00000  Uiso   1.00
H261   H     0.83673   0.67855   0.50173   0.00000  Uiso   1.00
H262   H     0.79347   0.70348   0.69522   0.00000  Uiso   1.00
H263   H     0.79140   0.62044   0.45858   0.00000  Uiso   1.00
H264   H     0.90071   0.71408   0.34096   0.00000  Uiso   1.00
H265   H     0.78431   0.72735   0.92616   0.00000  Uiso   1.00
H266   H     0.77996   0.55227   0.42714   0.00000  Uiso   1.00
H267   H     0.01045   0.74972   0.17911   0.00000  Uiso   1.00
O268   O     0.88929   0.73081   0.10983   0.00000  Uiso   1.00
O269   O     0.88359   0.50111   0.45513   0.00000  Uiso   1.00
O270   O     0.18600   0.76017   0.12973   0.00000  Uiso   1.00
N271   N     0.98610   0.70496   0.98233   0.00000  Uiso   1.00
N272   N     0.98202   0.54127   0.51580   0.00000  Uiso   1.00
N273   N     0.19752   0.72586   0.28389   0.00000  Uiso   1.00
N274   N     0.84828   0.71831   0.92411   0.00000  Uiso   1.00
N275   N     0.84420   0.55462   0.45758   0.00000  Uiso   1.00
N276   N     0.05970   0.73922   0.22567   0.00000  Uiso   1.00
C277   C     0.56735   0.84380   0.40084   0.00000  Uiso   1.00
C278   C     0.51128   0.82709   0.30948   0.00000  Uiso   1.00
C279   C     0.54090   0.82049   0.20022   0.00000  Uiso   1.00
C280   C     0.47931   0.80504   0.12937   0.00000  Uiso   1.00
C281   C     0.40562   0.78041   0.98183   0.00000  Uiso   1.00
C282   C     0.51015   0.87221   0.43804   0.00000  Uiso   1.00
C283   C     0.53883   0.90354   0.43689   0.00000  Uiso   1.00
C284   C     0.47628   0.92606   0.47428   0.00000  Uiso   1.00
C285   C     0.40087   0.97148   0.52640   0.00000  Uiso   1.00
C286   C     0.56954   0.82133   0.50194   0.00000  Uiso   1.00
C287   C     0.64816   0.80989   0.55454   0.00000  Uiso   1.00
C288   C     0.63561   0.78958   0.64575   0.00000  Uiso   1.00
C289   C     0.65241   0.75600   0.79708   0.00000  Uiso   1.00
C290   C     0.40527   0.82809   0.46931   0.00000  Uiso   1.00
C291   C     0.42325   0.81856   0.34667   0.00000  Uiso   1.00
C292   C     0.36159   0.80312   0.27597   0.00000  Uiso   1.00
C293   C     0.39112   0.79649   0.16663   0.00000  Uiso   1.00
C294   C     0.42212   0.86368   0.47523   0.00000  Uiso   1.00
C295   C     0.35952   0.88616   0.51264   0.00000  Uiso   1.00
C296   C     0.38809   0.91752   0.51154   0.00000  Uiso   1.00
C297   C     0.48151   0.81280   0.53913   0.00000  Uiso   1.00
C298   C     0.46884   0.79251   0.63028   0.00000  Uiso   1.00
C299   C     0.54742   0.78104   0.68300   0.00000  Uiso   1.00
H300   H     0.63588   0.85044   0.37189   0.00000  Uiso   1.00
H301   H     0.60903   0.82710   0.17147   0.00000  Uiso   1.00
H302   H     0.60696   0.91013   0.40811   0.00000  Uiso   1.00
H303   H     0.71627   0.81649   0.52573   0.00000  Uiso   1.00
H304   H     0.54043   0.79747   0.96565   0.00000  Uiso   1.00
H305   H     0.53608   0.97255   0.46465   0.00000  Uiso   1.00
H306   H     0.76658   0.77509   0.71269   0.00000  Uiso   1.00
H307   H     0.33673   0.82145   0.49827   0.00000  Uiso   1.00
H308   H     0.29347   0.79652   0.30478   0.00000  Uiso   1.00
H309   H     0.29140   0.87956   0.54142   0.00000  Uiso   1.00
H310   H     0.40071   0.78592   0.65904   0.00000  Uiso   1.00
H311   H     0.28431   0.77265   0.07384   0.00000  Uiso   1.00
H312   H     0.27996   0.94773   0.57286   0.00000  Uiso   1.00
H313   H     0.51045   0.75028   0.82089   0.00000  Uiso   1.00
O314   O     0.38929   0.76919   0.89017   0.00000  Uiso   1.00
O315   O     0.38359   0.99889   0.54487   0.00000  Uiso   1.00
O316   O     0.68600   0.73983   0.87027   0.00000  Uiso   1.00
N317   N     0.48610   0.79504   0.01767   0.00000  Uiso   1.00
N318   N     0.48202   0.95873   0.48420   0.00000  Uiso   1.00
N319   N     0.69752   0.77414   0.71611   0.00000  Uiso   1.00
N320   N     0.34828   0.78169   0.07589   0.00000  Uiso   1.00
N321   N     0.34420   0.94538   0.54242   0.00000  Uiso   1.00
N322   N     0.55970   0.76078   0.77433   0.00000  Uiso   1.00
C323   C     0.93265   0.15620   0.90084   0.00000  Uiso   1.00
C324   C     0.98872   0.17291   0.80948   0.00000  Uiso   1.00
C325   C     0.95910   0.17951   0.70022   0.00000  Uiso   1.00
C326   C     0.02069   0.19496   0.62937   0.00000  Uiso   1.00
C327   C     0.09438   0.21959   0.48183   0.00000  Uiso   1.00
C328   C     0.98985   0.12779   0.93804   0.00000  Uiso   1.00
C329   C     0.96117   0.09646   0.93689   0.00000  Uiso   1.00
C330   C     0.02372   0.07394   0.97428   0.00000  Uiso   1.00
C331   C     0.09913   0.02852   0.02640   0.00000  Uiso   1.00
C332   C     0.93046   0.17867   0.00194   0.00000  Uiso   1.00
C333   C     0.85184   0.19011   0.05454   0.00000  Uiso   1.00
C334   C     0.86439   0.21042   0.14575   0.00000  Uiso   1.00
C335   C     0.84759   0.24400   0.29708   0.00000  Uiso   1.00
C336   C     0.09473   0.17191   0.96931   0.00000  Uiso   1.00
C337   C     0.07675   0.18144   0.84667   0.00000  Uiso   1.00
C338   C     0.13841   0.19688   0.77597   0.00000  Uiso   1.00
C339   C     0.10888   0.20351   0.66663   0.00000  Uiso   1.00
C340   C     0.07788   0.13632   0.97523   0.00000  Uiso   1.00
C341   C     0.14048   0.11384   0.01264   0.00000  Uiso   1.00
C342   C     0.11191   0.08248   0.01154   0.00000  Uiso   1.00
C343   C     0.01849   0.18720   0.03913   0.00000  Uiso   1.00
C344   C     0.03116   0.20749   0.13028   0.00000  Uiso   1.00
C345   C     0.95258   0.21896   0.18300   0.00000  Uiso   1.00
H346   H     0.86412   0.14956   0.87189   0.00000  Uiso   1.00
H347   H     0.89097   0.17290   0.67147   0.00000  Uiso   1.00
H348   H     0.89304   0.08987   0.90811   0.00000  Uiso   1.00
H349   H     0.78373   0.18351   0.02573   0.00000  Uiso   1.00
H350   H     0.95957   0.20253   0.46565   0.00000  Uiso   1.00
H351   H     0.96392   0.02745   0.96465   0.00000  Uiso   1.00
H352   H     0.73342   0.22491   0.21269   0.00000  Uiso   1.00
H353   H     0.16327   0.17855   0.99827   0.00000  Uiso   1.00
H354   H     0.20653   0.20348   0.80478   0.00000  Uiso   1.00
H355   H     0.20860   0.12044   0.04142   0.00000  Uiso   1.00
H356   H     0.09929   0.21408   0.15904   0.00000  Uiso   1.00
H357   H     0.21569   0.22735   0.57384   0.00000  Uiso   1.00
H358   H     0.22004   0.05227   0.07286   0.00000  Uiso   1.00
H359   H     0.98955   0.24972   0.32089   0.00000  Uiso   1.00
O360   O     0.11071   0.23081   0.39017   0.00000  Uiso   1.00
O361   O     0.11641   0.00111   0.04487   0.00000  Uiso   1.00
O362   O     0.81400   0.26017   0.37027   0.00000  Uiso   1.00
N363   N     0.01390   0.20496   0.51767   0.00000  Uiso   1.00
N364   N     0.01798   0.04127   0.98420   0.00000  Uiso   1.00
N365   N     0.80248   0.22586   0.21611   0.00000  Uiso   1.00
N366   N     0.15172   0.21831   0.57589   0.00000  Uiso   1.00
N367   N     0.15580   0.05462   0.04242   0.00000  Uiso   1.00
N368   N     0.94030   0.23922   0.27433   0.00000  Uiso   1.00
