data_job_03763
_audit_creation_date              2018-12-19
_audit_creation_method            'Materials Studio'
_symmetry_space_group_name_H-M    'P1'
_symmetry_Int_Tables_number       1
_symmetry_cell_setting            triclinic
loop_
_symmetry_equiv_pos_as_xyz
  x,y,z
_cell_length_a                    46.2481
_cell_length_b                    7.2839
_cell_length_c                    23.6816
_cell_angle_alpha                 90.0000
_cell_angle_beta                  90.0000
_cell_angle_gamma                 90.0000
loop_
_atom_site_label
_atom_site_type_symbol
_atom_site_fract_x
_atom_site_fract_y
_atom_site_fract_z
_atom_site_U_iso_or_equiv
_atom_site_adp_type
_atom_site_occupancy
C1     C     0.11132   0.73075   0.21106   0.00000  Uiso   1.00
C2     C     0.09640   0.75857   0.26784   0.00000  Uiso   1.00
C3     C     0.09288   0.62573   0.30928   0.00000  Uiso   1.00
C4     C     0.07862   0.67843   0.35827   0.00000  Uiso   1.00
C5     C     0.05702   0.69436   0.44533   0.00000  Uiso   1.00
C6     C     0.08925   0.78523   0.16625   0.00000  Uiso   1.00
C7     C     0.07972   0.67481   0.12227   0.00000  Uiso   1.00
C8     C     0.05944   0.74997   0.08573   0.00000  Uiso   1.00
C9     C     0.02675   0.80734   0.01504   0.00000  Uiso   1.00
C10    C     0.13525   0.87446   0.20820   0.00000  Uiso   1.00
C11    C     0.16440   0.83908   0.19947   0.00000  Uiso   1.00
C12    C     0.18285   0.98938   0.19823   0.00000  Uiso   1.00
C13    C     0.22158   0.18529   0.19266   0.00000  Uiso   1.00
C14    C     0.09227   0.06058   0.22436   0.00000  Uiso   1.00
C15    C     0.08605   0.93773   0.27507   0.00000  Uiso   1.00
C16    C     0.07180   0.99065   0.32400   0.00000  Uiso   1.00
C17    C     0.06826   0.85791   0.36551   0.00000  Uiso   1.00
C18    C     0.07890   0.96438   0.17347   0.00000  Uiso   1.00
C19    C     0.05864   0.03973   0.13699   0.00000  Uiso   1.00
C20    C     0.04908   0.92945   0.09296   0.00000  Uiso   1.00
C21    C     0.12490   0.05362   0.21542   0.00000  Uiso   1.00
C22    C     0.14332   0.20400   0.21419   0.00000  Uiso   1.00
C23    C     0.17248   0.16885   0.20546   0.00000  Uiso   1.00
H24    H     0.11938   0.59127   0.20543   0.00000  Uiso   1.00
H25    H     0.10089   0.48709   0.30367   0.00000  Uiso   1.00
H26    H     0.08773   0.53618   0.11669   0.00000  Uiso   1.00
H27    H     0.17240   0.70042   0.19388   0.00000  Uiso   1.00
H28    H     0.07582   0.45059   0.41577   0.00000  Uiso   1.00
H29    H     0.04808   0.55410   0.02149   0.00000  Uiso   1.00
H30    H     0.22661   0.90044   0.18425   0.00000  Uiso   1.00
H31    H     0.08421   0.20007   0.22998   0.00000  Uiso   1.00
H32    H     0.06379   0.12930   0.32958   0.00000  Uiso   1.00
H33    H     0.05064   0.17838   0.14259   0.00000  Uiso   1.00
H34    H     0.13530   0.34262   0.21978   0.00000  Uiso   1.00
H35    H     0.04571   0.97182   0.43680   0.00000  Uiso   1.00
H36    H     0.01798   0.07534   0.04251   0.00000  Uiso   1.00
H37    H     0.19651   0.42168   0.20528   0.00000  Uiso   1.00
O38    O     0.04796   0.65365   0.49135   0.00000  Uiso   1.00
O39    O     0.01158   0.78947   0.97405   0.00000  Uiso   1.00
O40    O     0.24580   0.24386   0.18761   0.00000  Uiso   1.00
N41    N     0.07154   0.58298   0.40706   0.00000  Uiso   1.00
N42    N     0.04561   0.67975   0.03843   0.00000  Uiso   1.00
N43    N     0.21252   0.00355   0.19059   0.00000  Uiso   1.00
N44    N     0.05534   0.86345   0.41837   0.00000  Uiso   1.00
N45    N     0.02940   0.96023   0.04974   0.00000  Uiso   1.00
N46    N     0.19632   0.28403   0.20190   0.00000  Uiso   1.00
C47    C     0.38868   0.26925   0.21106   0.00000  Uiso   1.00
C48    C     0.40360   0.24143   0.26784   0.00000  Uiso   1.00
C49    C     0.40712   0.37427   0.30928   0.00000  Uiso   1.00
C50    C     0.42138   0.32157   0.35827   0.00000  Uiso   1.00
C51    C     0.44298   0.30564   0.44533   0.00000  Uiso   1.00
C52    C     0.41075   0.21477   0.16625   0.00000  Uiso   1.00
C53    C     0.42028   0.32519   0.12227   0.00000  Uiso   1.00
C54    C     0.44056   0.25003   0.08573   0.00000  Uiso   1.00
C55    C     0.47325   0.19266   0.01504   0.00000  Uiso   1.00
C56    C     0.36475   0.12554   0.20820   0.00000  Uiso   1.00
C57    C     0.33560   0.16092   0.19947   0.00000  Uiso   1.00
C58    C     0.31715   0.01062   0.19823   0.00000  Uiso   1.00
C59    C     0.27842   0.81471   0.19266   0.00000  Uiso   1.00
C60    C     0.40773   0.93942   0.22436   0.00000  Uiso   1.00
C61    C     0.41395   0.06227   0.27507   0.00000  Uiso   1.00
C62    C     0.42820   0.00935   0.32400   0.00000  Uiso   1.00
C63    C     0.43174   0.14209   0.36551   0.00000  Uiso   1.00
C64    C     0.42110   0.03562   0.17347   0.00000  Uiso   1.00
C65    C     0.44136   0.96027   0.13699   0.00000  Uiso   1.00
C66    C     0.45092   0.07055   0.09296   0.00000  Uiso   1.00
C67    C     0.37510   0.94638   0.21542   0.00000  Uiso   1.00
C68    C     0.35668   0.79600   0.21419   0.00000  Uiso   1.00
C69    C     0.32752   0.83115   0.20546   0.00000  Uiso   1.00
H70    H     0.38062   0.40873   0.20543   0.00000  Uiso   1.00
H71    H     0.39911   0.51291   0.30367   0.00000  Uiso   1.00
H72    H     0.41227   0.46382   0.11669   0.00000  Uiso   1.00
H73    H     0.32760   0.29958   0.19388   0.00000  Uiso   1.00
H74    H     0.42418   0.54941   0.41577   0.00000  Uiso   1.00
H75    H     0.45192   0.44590   0.02149   0.00000  Uiso   1.00
H76    H     0.27339   0.09956   0.18425   0.00000  Uiso   1.00
H77    H     0.41579   0.79993   0.22998   0.00000  Uiso   1.00
H78    H     0.43621   0.87070   0.32958   0.00000  Uiso   1.00
H79    H     0.44936   0.82162   0.14259   0.00000  Uiso   1.00
H80    H     0.36470   0.65738   0.21978   0.00000  Uiso   1.00
H81    H     0.45429   0.02818   0.43680   0.00000  Uiso   1.00
H82    H     0.48202   0.92466   0.04251   0.00000  Uiso   1.00
H83    H     0.30349   0.57832   0.20528   0.00000  Uiso   1.00
O84    O     0.45204   0.34635   0.49135   0.00000  Uiso   1.00
O85    O     0.48842   0.21053   0.97405   0.00000  Uiso   1.00
O86    O     0.25420   0.75614   0.18761   0.00000  Uiso   1.00
N87    N     0.42846   0.41702   0.40706   0.00000  Uiso   1.00
N88    N     0.45439   0.32025   0.03843   0.00000  Uiso   1.00
N89    N     0.28748   0.99645   0.19059   0.00000  Uiso   1.00
N90    N     0.44466   0.13655   0.41837   0.00000  Uiso   1.00
N91    N     0.47060   0.03977   0.04974   0.00000  Uiso   1.00
N92    N     0.30368   0.71597   0.20190   0.00000  Uiso   1.00
C93    C     0.88868   0.73075   0.28894   0.00000  Uiso   1.00
C94    C     0.90360   0.75857   0.23216   0.00000  Uiso   1.00
C95    C     0.90712   0.62573   0.19072   0.00000  Uiso   1.00
C96    C     0.92138   0.67843   0.14173   0.00000  Uiso   1.00
C97    C     0.94298   0.69436   0.05467   0.00000  Uiso   1.00
C98    C     0.91075   0.78523   0.33375   0.00000  Uiso   1.00
C99    C     0.92028   0.67481   0.37773   0.00000  Uiso   1.00
C100   C     0.94056   0.74997   0.41427   0.00000  Uiso   1.00
C101   C     0.97325   0.80734   0.48496   0.00000  Uiso   1.00
C102   C     0.86475   0.87446   0.29180   0.00000  Uiso   1.00
C103   C     0.83560   0.83908   0.30053   0.00000  Uiso   1.00
C104   C     0.81715   0.98938   0.30177   0.00000  Uiso   1.00
C105   C     0.77842   0.18529   0.30734   0.00000  Uiso   1.00
C106   C     0.90773   0.06058   0.27564   0.00000  Uiso   1.00
C107   C     0.91395   0.93773   0.22493   0.00000  Uiso   1.00
C108   C     0.92820   0.99065   0.17600   0.00000  Uiso   1.00
C109   C     0.93174   0.85791   0.13449   0.00000  Uiso   1.00
C110   C     0.92110   0.96438   0.32653   0.00000  Uiso   1.00
C111   C     0.94136   0.03973   0.36301   0.00000  Uiso   1.00
C112   C     0.95092   0.92945   0.40704   0.00000  Uiso   1.00
C113   C     0.87510   0.05362   0.28458   0.00000  Uiso   1.00
C114   C     0.85668   0.20400   0.28581   0.00000  Uiso   1.00
C115   C     0.82752   0.16885   0.29454   0.00000  Uiso   1.00
H116   H     0.88062   0.59127   0.29457   0.00000  Uiso   1.00
H117   H     0.89911   0.48709   0.19633   0.00000  Uiso   1.00
H118   H     0.91227   0.53618   0.38331   0.00000  Uiso   1.00
H119   H     0.82760   0.70042   0.30612   0.00000  Uiso   1.00
H120   H     0.92418   0.45059   0.08423   0.00000  Uiso   1.00
H121   H     0.95192   0.55410   0.47851   0.00000  Uiso   1.00
H122   H     0.77339   0.90044   0.31575   0.00000  Uiso   1.00
H123   H     0.91579   0.20007   0.27002   0.00000  Uiso   1.00
H124   H     0.93621   0.12930   0.17042   0.00000  Uiso   1.00
H125   H     0.94936   0.17838   0.35741   0.00000  Uiso   1.00
H126   H     0.86470   0.34262   0.28022   0.00000  Uiso   1.00
H127   H     0.95429   0.97182   0.06320   0.00000  Uiso   1.00
H128   H     0.98202   0.07534   0.45749   0.00000  Uiso   1.00
H129   H     0.80349   0.42168   0.29472   0.00000  Uiso   1.00
O130   O     0.95204   0.65365   0.00865   0.00000  Uiso   1.00
O131   O     0.98842   0.78947   0.52595   0.00000  Uiso   1.00
O132   O     0.75420   0.24386   0.31239   0.00000  Uiso   1.00
N133   N     0.92846   0.58298   0.09294   0.00000  Uiso   1.00
N134   N     0.95439   0.67975   0.46157   0.00000  Uiso   1.00
N135   N     0.78748   0.00355   0.30941   0.00000  Uiso   1.00
N136   N     0.94466   0.86345   0.08163   0.00000  Uiso   1.00
N137   N     0.97060   0.96023   0.45026   0.00000  Uiso   1.00
N138   N     0.80368   0.28403   0.29810   0.00000  Uiso   1.00
C139   C     0.61132   0.26925   0.28894   0.00000  Uiso   1.00
C140   C     0.59640   0.24143   0.23216   0.00000  Uiso   1.00
C141   C     0.59288   0.37427   0.19072   0.00000  Uiso   1.00
C142   C     0.57862   0.32157   0.14173   0.00000  Uiso   1.00
C143   C     0.55702   0.30564   0.05467   0.00000  Uiso   1.00
C144   C     0.58925   0.21477   0.33375   0.00000  Uiso   1.00
C145   C     0.57972   0.32519   0.37773   0.00000  Uiso   1.00
C146   C     0.55944   0.25003   0.41427   0.00000  Uiso   1.00
C147   C     0.52675   0.19266   0.48496   0.00000  Uiso   1.00
C148   C     0.63525   0.12554   0.29180   0.00000  Uiso   1.00
C149   C     0.66440   0.16092   0.30053   0.00000  Uiso   1.00
C150   C     0.68285   0.01062   0.30177   0.00000  Uiso   1.00
C151   C     0.72158   0.81471   0.30734   0.00000  Uiso   1.00
C152   C     0.59227   0.93942   0.27564   0.00000  Uiso   1.00
C153   C     0.58605   0.06227   0.22493   0.00000  Uiso   1.00
C154   C     0.57180   0.00935   0.17600   0.00000  Uiso   1.00
C155   C     0.56826   0.14209   0.13449   0.00000  Uiso   1.00
C156   C     0.57890   0.03562   0.32653   0.00000  Uiso   1.00
C157   C     0.55864   0.96027   0.36301   0.00000  Uiso   1.00
C158   C     0.54908   0.07055   0.40704   0.00000  Uiso   1.00
C159   C     0.62490   0.94638   0.28458   0.00000  Uiso   1.00
C160   C     0.64332   0.79600   0.28581   0.00000  Uiso   1.00
C161   C     0.67248   0.83115   0.29454   0.00000  Uiso   1.00
H162   H     0.61938   0.40873   0.29457   0.00000  Uiso   1.00
H163   H     0.60089   0.51291   0.19633   0.00000  Uiso   1.00
H164   H     0.58773   0.46382   0.38331   0.00000  Uiso   1.00
H165   H     0.67240   0.29958   0.30612   0.00000  Uiso   1.00
H166   H     0.57582   0.54941   0.08423   0.00000  Uiso   1.00
H167   H     0.54808   0.44590   0.47851   0.00000  Uiso   1.00
H168   H     0.72661   0.09956   0.31575   0.00000  Uiso   1.00
H169   H     0.58421   0.79993   0.27002   0.00000  Uiso   1.00
H170   H     0.56379   0.87070   0.17042   0.00000  Uiso   1.00
H171   H     0.55064   0.82162   0.35741   0.00000  Uiso   1.00
H172   H     0.63530   0.65738   0.28022   0.00000  Uiso   1.00
H173   H     0.54571   0.02818   0.06320   0.00000  Uiso   1.00
H174   H     0.51798   0.92466   0.45749   0.00000  Uiso   1.00
H175   H     0.69651   0.57832   0.29472   0.00000  Uiso   1.00
O176   O     0.54796   0.34635   0.00865   0.00000  Uiso   1.00
O177   O     0.51158   0.21053   0.52595   0.00000  Uiso   1.00
O178   O     0.74580   0.75614   0.31239   0.00000  Uiso   1.00
N179   N     0.57154   0.41702   0.09294   0.00000  Uiso   1.00
N180   N     0.54561   0.32025   0.46157   0.00000  Uiso   1.00
N181   N     0.71252   0.99645   0.30941   0.00000  Uiso   1.00
N182   N     0.55534   0.13655   0.08163   0.00000  Uiso   1.00
N183   N     0.52940   0.03977   0.45026   0.00000  Uiso   1.00
N184   N     0.69632   0.71597   0.29810   0.00000  Uiso   1.00
C185   C     0.88868   0.26925   0.78894   0.00000  Uiso   1.00
C186   C     0.90360   0.24143   0.73216   0.00000  Uiso   1.00
C187   C     0.90712   0.37427   0.69072   0.00000  Uiso   1.00
C188   C     0.92138   0.32157   0.64173   0.00000  Uiso   1.00
C189   C     0.94298   0.30564   0.55467   0.00000  Uiso   1.00
C190   C     0.91075   0.21477   0.83375   0.00000  Uiso   1.00
C191   C     0.92028   0.32519   0.87773   0.00000  Uiso   1.00
C192   C     0.94056   0.25003   0.91427   0.00000  Uiso   1.00
C193   C     0.97325   0.19266   0.98496   0.00000  Uiso   1.00
C194   C     0.86475   0.12554   0.79180   0.00000  Uiso   1.00
C195   C     0.83560   0.16092   0.80053   0.00000  Uiso   1.00
C196   C     0.81715   0.01062   0.80177   0.00000  Uiso   1.00
C197   C     0.77842   0.81471   0.80734   0.00000  Uiso   1.00
C198   C     0.90773   0.93942   0.77564   0.00000  Uiso   1.00
C199   C     0.91395   0.06227   0.72493   0.00000  Uiso   1.00
C200   C     0.92820   0.00935   0.67600   0.00000  Uiso   1.00
C201   C     0.93174   0.14209   0.63449   0.00000  Uiso   1.00
C202   C     0.92110   0.03562   0.82653   0.00000  Uiso   1.00
C203   C     0.94136   0.96027   0.86301   0.00000  Uiso   1.00
C204   C     0.95092   0.07055   0.90704   0.00000  Uiso   1.00
C205   C     0.87510   0.94638   0.78458   0.00000  Uiso   1.00
C206   C     0.85668   0.79600   0.78581   0.00000  Uiso   1.00
C207   C     0.82752   0.83115   0.79454   0.00000  Uiso   1.00
H208   H     0.88062   0.40873   0.79457   0.00000  Uiso   1.00
H209   H     0.89911   0.51291   0.69633   0.00000  Uiso   1.00
H210   H     0.91227   0.46382   0.88331   0.00000  Uiso   1.00
H211   H     0.82760   0.29958   0.80612   0.00000  Uiso   1.00
H212   H     0.92418   0.54941   0.58423   0.00000  Uiso   1.00
H213   H     0.95192   0.44590   0.97851   0.00000  Uiso   1.00
H214   H     0.77339   0.09956   0.81575   0.00000  Uiso   1.00
H215   H     0.91579   0.79993   0.77002   0.00000  Uiso   1.00
H216   H     0.93621   0.87070   0.67042   0.00000  Uiso   1.00
H217   H     0.94936   0.82162   0.85741   0.00000  Uiso   1.00
H218   H     0.86470   0.65738   0.78022   0.00000  Uiso   1.00
H219   H     0.95429   0.02818   0.56320   0.00000  Uiso   1.00
H220   H     0.98202   0.92466   0.95749   0.00000  Uiso   1.00
H221   H     0.80349   0.57832   0.79472   0.00000  Uiso   1.00
O222   O     0.95204   0.34635   0.50865   0.00000  Uiso   1.00
O223   O     0.98842   0.21053   0.02595   0.00000  Uiso   1.00
O224   O     0.75420   0.75614   0.81239   0.00000  Uiso   1.00
N225   N     0.92846   0.41702   0.59294   0.00000  Uiso   1.00
N226   N     0.95439   0.32025   0.96157   0.00000  Uiso   1.00
N227   N     0.78748   0.99645   0.80941   0.00000  Uiso   1.00
N228   N     0.94466   0.13655   0.58163   0.00000  Uiso   1.00
N229   N     0.97060   0.03977   0.95026   0.00000  Uiso   1.00
N230   N     0.80368   0.71597   0.79810   0.00000  Uiso   1.00
C231   C     0.61132   0.73075   0.78894   0.00000  Uiso   1.00
C232   C     0.59640   0.75857   0.73216   0.00000  Uiso   1.00
C233   C     0.59288   0.62573   0.69072   0.00000  Uiso   1.00
C234   C     0.57862   0.67843   0.64173   0.00000  Uiso   1.00
C235   C     0.55702   0.69436   0.55467   0.00000  Uiso   1.00
C236   C     0.58925   0.78523   0.83375   0.00000  Uiso   1.00
C237   C     0.57972   0.67481   0.87773   0.00000  Uiso   1.00
C238   C     0.55944   0.74997   0.91427   0.00000  Uiso   1.00
C239   C     0.52675   0.80734   0.98496   0.00000  Uiso   1.00
C240   C     0.63525   0.87446   0.79180   0.00000  Uiso   1.00
C241   C     0.66440   0.83908   0.80053   0.00000  Uiso   1.00
C242   C     0.68285   0.98938   0.80177   0.00000  Uiso   1.00
C243   C     0.72158   0.18529   0.80734   0.00000  Uiso   1.00
C244   C     0.59227   0.06058   0.77564   0.00000  Uiso   1.00
C245   C     0.58605   0.93773   0.72493   0.00000  Uiso   1.00
C246   C     0.57180   0.99065   0.67600   0.00000  Uiso   1.00
C247   C     0.56826   0.85791   0.63449   0.00000  Uiso   1.00
C248   C     0.57890   0.96438   0.82653   0.00000  Uiso   1.00
C249   C     0.55864   0.03973   0.86301   0.00000  Uiso   1.00
C250   C     0.54908   0.92945   0.90704   0.00000  Uiso   1.00
C251   C     0.62490   0.05362   0.78458   0.00000  Uiso   1.00
C252   C     0.64332   0.20400   0.78581   0.00000  Uiso   1.00
C253   C     0.67248   0.16885   0.79454   0.00000  Uiso   1.00
H254   H     0.61938   0.59127   0.79457   0.00000  Uiso   1.00
H255   H     0.60089   0.48709   0.69633   0.00000  Uiso   1.00
H256   H     0.58773   0.53618   0.88331   0.00000  Uiso   1.00
H257   H     0.67240   0.70042   0.80612   0.00000  Uiso   1.00
H258   H     0.57582   0.45059   0.58423   0.00000  Uiso   1.00
H259   H     0.54808   0.55410   0.97851   0.00000  Uiso   1.00
H260   H     0.72661   0.90044   0.81575   0.00000  Uiso   1.00
H261   H     0.58421   0.20007   0.77002   0.00000  Uiso   1.00
H262   H     0.56379   0.12930   0.67042   0.00000  Uiso   1.00
H263   H     0.55064   0.17838   0.85741   0.00000  Uiso   1.00
H264   H     0.63530   0.34262   0.78022   0.00000  Uiso   1.00
H265   H     0.54571   0.97182   0.56320   0.00000  Uiso   1.00
H266   H     0.51798   0.07534   0.95749   0.00000  Uiso   1.00
H267   H     0.69651   0.42168   0.79472   0.00000  Uiso   1.00
O268   O     0.54796   0.65365   0.50865   0.00000  Uiso   1.00
O269   O     0.51158   0.78947   0.02595   0.00000  Uiso   1.00
O270   O     0.74580   0.24386   0.81239   0.00000  Uiso   1.00
N271   N     0.57154   0.58298   0.59294   0.00000  Uiso   1.00
N272   N     0.54561   0.67975   0.96157   0.00000  Uiso   1.00
N273   N     0.71252   0.00355   0.80941   0.00000  Uiso   1.00
N274   N     0.55534   0.86345   0.58163   0.00000  Uiso   1.00
N275   N     0.52940   0.96023   0.95026   0.00000  Uiso   1.00
N276   N     0.69632   0.28403   0.79810   0.00000  Uiso   1.00
C277   C     0.11132   0.26925   0.71106   0.00000  Uiso   1.00
C278   C     0.09640   0.24143   0.76784   0.00000  Uiso   1.00
C279   C     0.09288   0.37427   0.80928   0.00000  Uiso   1.00
C280   C     0.07862   0.32157   0.85827   0.00000  Uiso   1.00
C281   C     0.05702   0.30564   0.94533   0.00000  Uiso   1.00
C282   C     0.08925   0.21477   0.66625   0.00000  Uiso   1.00
C283   C     0.07972   0.32519   0.62227   0.00000  Uiso   1.00
C284   C     0.05944   0.25003   0.58573   0.00000  Uiso   1.00
C285   C     0.02675   0.19266   0.51504   0.00000  Uiso   1.00
C286   C     0.13525   0.12554   0.70820   0.00000  Uiso   1.00
C287   C     0.16440   0.16092   0.69947   0.00000  Uiso   1.00
C288   C     0.18285   0.01062   0.69823   0.00000  Uiso   1.00
C289   C     0.22158   0.81471   0.69266   0.00000  Uiso   1.00
C290   C     0.09227   0.93942   0.72436   0.00000  Uiso   1.00
C291   C     0.08605   0.06227   0.77507   0.00000  Uiso   1.00
C292   C     0.07180   0.00935   0.82400   0.00000  Uiso   1.00
C293   C     0.06826   0.14209   0.86551   0.00000  Uiso   1.00
C294   C     0.07890   0.03562   0.67347   0.00000  Uiso   1.00
C295   C     0.05864   0.96027   0.63699   0.00000  Uiso   1.00
C296   C     0.04908   0.07055   0.59296   0.00000  Uiso   1.00
C297   C     0.12490   0.94638   0.71542   0.00000  Uiso   1.00
C298   C     0.14332   0.79600   0.71419   0.00000  Uiso   1.00
C299   C     0.17248   0.83115   0.70546   0.00000  Uiso   1.00
H300   H     0.11938   0.40873   0.70543   0.00000  Uiso   1.00
H301   H     0.10089   0.51291   0.80367   0.00000  Uiso   1.00
H302   H     0.08773   0.46382   0.61669   0.00000  Uiso   1.00
H303   H     0.17240   0.29958   0.69388   0.00000  Uiso   1.00
H304   H     0.07582   0.54941   0.91577   0.00000  Uiso   1.00
H305   H     0.04808   0.44590   0.52149   0.00000  Uiso   1.00
H306   H     0.22661   0.09956   0.68425   0.00000  Uiso   1.00
H307   H     0.08421   0.79993   0.72998   0.00000  Uiso   1.00
H308   H     0.06379   0.87070   0.82958   0.00000  Uiso   1.00
H309   H     0.05064   0.82162   0.64259   0.00000  Uiso   1.00
H310   H     0.13530   0.65738   0.71978   0.00000  Uiso   1.00
H311   H     0.04571   0.02818   0.93680   0.00000  Uiso   1.00
H312   H     0.01798   0.92466   0.54251   0.00000  Uiso   1.00
H313   H     0.19651   0.57832   0.70528   0.00000  Uiso   1.00
O314   O     0.04796   0.34635   0.99135   0.00000  Uiso   1.00
O315   O     0.01158   0.21053   0.47405   0.00000  Uiso   1.00
O316   O     0.24580   0.75614   0.68761   0.00000  Uiso   1.00
N317   N     0.07154   0.41702   0.90706   0.00000  Uiso   1.00
N318   N     0.04561   0.32025   0.53843   0.00000  Uiso   1.00
N319   N     0.21252   0.99645   0.69059   0.00000  Uiso   1.00
N320   N     0.05534   0.13655   0.91837   0.00000  Uiso   1.00
N321   N     0.02940   0.03977   0.54974   0.00000  Uiso   1.00
N322   N     0.19632   0.71597   0.70190   0.00000  Uiso   1.00
C323   C     0.38868   0.73075   0.71106   0.00000  Uiso   1.00
C324   C     0.40360   0.75857   0.76784   0.00000  Uiso   1.00
C325   C     0.40712   0.62573   0.80928   0.00000  Uiso   1.00
C326   C     0.42138   0.67843   0.85827   0.00000  Uiso   1.00
C327   C     0.44298   0.69436   0.94533   0.00000  Uiso   1.00
C328   C     0.41075   0.78523   0.66625   0.00000  Uiso   1.00
C329   C     0.42028   0.67481   0.62227   0.00000  Uiso   1.00
C330   C     0.44056   0.74997   0.58573   0.00000  Uiso   1.00
C331   C     0.47325   0.80734   0.51504   0.00000  Uiso   1.00
C332   C     0.36475   0.87446   0.70820   0.00000  Uiso   1.00
C333   C     0.33560   0.83908   0.69947   0.00000  Uiso   1.00
C334   C     0.31715   0.98938   0.69823   0.00000  Uiso   1.00
C335   C     0.27842   0.18529   0.69266   0.00000  Uiso   1.00
C336   C     0.40773   0.06058   0.72436   0.00000  Uiso   1.00
C337   C     0.41395   0.93773   0.77507   0.00000  Uiso   1.00
C338   C     0.42820   0.99065   0.82400   0.00000  Uiso   1.00
C339   C     0.43174   0.85791   0.86551   0.00000  Uiso   1.00
C340   C     0.42110   0.96438   0.67347   0.00000  Uiso   1.00
C341   C     0.44136   0.03973   0.63699   0.00000  Uiso   1.00
C342   C     0.45092   0.92945   0.59296   0.00000  Uiso   1.00
C343   C     0.37510   0.05362   0.71542   0.00000  Uiso   1.00
C344   C     0.35668   0.20400   0.71419   0.00000  Uiso   1.00
C345   C     0.32752   0.16885   0.70546   0.00000  Uiso   1.00
H346   H     0.38062   0.59127   0.70543   0.00000  Uiso   1.00
H347   H     0.39911   0.48709   0.80367   0.00000  Uiso   1.00
H348   H     0.41227   0.53618   0.61669   0.00000  Uiso   1.00
H349   H     0.32760   0.70042   0.69388   0.00000  Uiso   1.00
H350   H     0.42418   0.45059   0.91577   0.00000  Uiso   1.00
H351   H     0.45192   0.55410   0.52149   0.00000  Uiso   1.00
H352   H     0.27339   0.90044   0.68425   0.00000  Uiso   1.00
H353   H     0.41579   0.20007   0.72998   0.00000  Uiso   1.00
H354   H     0.43621   0.12930   0.82958   0.00000  Uiso   1.00
H355   H     0.44936   0.17838   0.64259   0.00000  Uiso   1.00
H356   H     0.36470   0.34262   0.71978   0.00000  Uiso   1.00
H357   H     0.45429   0.97182   0.93680   0.00000  Uiso   1.00
H358   H     0.48202   0.07534   0.54251   0.00000  Uiso   1.00
H359   H     0.30349   0.42168   0.70528   0.00000  Uiso   1.00
O360   O     0.45204   0.65365   0.99135   0.00000  Uiso   1.00
O361   O     0.48842   0.78947   0.47405   0.00000  Uiso   1.00
O362   O     0.25420   0.24386   0.68761   0.00000  Uiso   1.00
N363   N     0.42846   0.58298   0.90706   0.00000  Uiso   1.00
N364   N     0.45439   0.67975   0.53843   0.00000  Uiso   1.00
N365   N     0.28748   0.00355   0.69059   0.00000  Uiso   1.00
N366   N     0.44466   0.86345   0.91837   0.00000  Uiso   1.00
N367   N     0.47060   0.96023   0.54974   0.00000  Uiso   1.00
N368   N     0.30368   0.28403   0.70190   0.00000  Uiso   1.00
