data_job_06722
_audit_creation_date              2018-12-19
_audit_creation_method            'Materials Studio'
_symmetry_space_group_name_H-M    'P1'
_symmetry_Int_Tables_number       1
_symmetry_cell_setting            triclinic
loop_
_symmetry_equiv_pos_as_xyz
  x,y,z
_cell_length_a                    17.5812
_cell_length_b                    20.1964
_cell_length_c                    27.4959
_cell_angle_alpha                 95.1202
_cell_angle_beta                  100.3223
_cell_angle_gamma                 112.7341
loop_
_atom_site_label
_atom_site_type_symbol
_atom_site_fract_x
_atom_site_fract_y
_atom_site_fract_z
_atom_site_U_iso_or_equiv
_atom_site_adp_type
_atom_site_occupancy
C1     C     0.40936   0.72663   0.55691   0.00000  Uiso   1.00
C2     C     0.32404   0.73013   0.53869   0.00000  Uiso   1.00
C3     C     0.29898   0.75248   0.49463   0.00000  Uiso   1.00
C4     C     0.21840   0.75181   0.48468   0.00000  Uiso   1.00
C5     C     0.09407   0.76067   0.45139   0.00000  Uiso   1.00
C6     C     0.44722   0.77341   0.60912   0.00000  Uiso   1.00
C7     C     0.52574   0.83213   0.62426   0.00000  Uiso   1.00
C8     C     0.54885   0.86788   0.67360   0.00000  Uiso   1.00
C9     C     0.61579   0.94388   0.74965   0.00000  Uiso   1.00
C10    C     0.38930   0.64830   0.56453   0.00000  Uiso   1.00
C11    C     0.41914   0.60184   0.54219   0.00000  Uiso   1.00
C12    C     0.39351   0.53226   0.55401   0.00000  Uiso   1.00
C13    C     0.37052   0.41402   0.56083   0.00000  Uiso   1.00
C14    C     0.31081   0.68569   0.61762   0.00000  Uiso   1.00
C15    C     0.27051   0.70790   0.57167   0.00000  Uiso   1.00
C16    C     0.18994   0.70718   0.56179   0.00000  Uiso   1.00
C17    C     0.16477   0.72953   0.51771   0.00000  Uiso   1.00
C18    C     0.39369   0.75117   0.64209   0.00000  Uiso   1.00
C19    C     0.41669   0.78683   0.69142   0.00000  Uiso   1.00
C20    C     0.49522   0.84560   0.70663   0.00000  Uiso   1.00
C21    C     0.33577   0.62606   0.59750   0.00000  Uiso   1.00
C22    C     0.31009   0.55654   0.60935   0.00000  Uiso   1.00
C23    C     0.33988   0.50998   0.58704   0.00000  Uiso   1.00
H24    H     0.45105   0.74395   0.53125   0.00000  Uiso   1.00
H25    H     0.34043   0.76970   0.46912   0.00000  Uiso   1.00
H26    H     0.56715   0.84933   0.59874   0.00000  Uiso   1.00
H27    H     0.46057   0.61907   0.51668   0.00000  Uiso   1.00
H28    H     0.19420   0.78846   0.41480   0.00000  Uiso   1.00
H29    H     0.67227   0.95635   0.68810   0.00000  Uiso   1.00
H30    H     0.44752   0.47081   0.51507   0.00000  Uiso   1.00
H31    H     0.26913   0.66837   0.64329   0.00000  Uiso   1.00
H32    H     0.14853   0.68997   0.58731   0.00000  Uiso   1.00
H33    H     0.37525   0.76961   0.71693   0.00000  Uiso   1.00
H34    H     0.26867   0.53935   0.63487   0.00000  Uiso   1.00
H35    H     0.03845   0.72376   0.51073   0.00000  Uiso   1.00
H36    H     0.51652   0.89165   0.78403   0.00000  Uiso   1.00
H37    H     0.29176   0.40611   0.61100   0.00000  Uiso   1.00
O38    O     0.04028   0.77170   0.42393   0.00000  Uiso   1.00
O39    O     0.66749   0.99196   0.78249   0.00000  Uiso   1.00
O40    O     0.37262   0.35494   0.55548   0.00000  Uiso   1.00
N41    N     0.17409   0.77025   0.44505   0.00000  Uiso   1.00
N42    N     0.62105   0.92723   0.70057   0.00000  Uiso   1.00
N43    N     0.41094   0.47330   0.53881   0.00000  Uiso   1.00
N44    N     0.09028   0.73544   0.49667   0.00000  Uiso   1.00
N45    N     0.53724   0.89241   0.75219   0.00000  Uiso   1.00
N46    N     0.32713   0.43848   0.59043   0.00000  Uiso   1.00
C47    C     0.87268   0.84341   0.43920   0.00000  Uiso   1.00
C48    C     0.83876   0.88335   0.40251   0.00000  Uiso   1.00
C49    C     0.88006   0.92064   0.36833   0.00000  Uiso   1.00
C50    C     0.83842   0.95358   0.33808   0.00000  Uiso   1.00
C51    C     0.79795   0.01627   0.28054   0.00000  Uiso   1.00
C52    C     0.87254   0.87637   0.49127   0.00000  Uiso   1.00
C53    C     0.94224   0.90778   0.53172   0.00000  Uiso   1.00
C54    C     0.92903   0.93484   0.57619   0.00000  Uiso   1.00
C55    C     0.94099   0.98665   0.65646   0.00000  Uiso   1.00
C56    C     0.80573   0.76516   0.42865   0.00000  Uiso   1.00
C57    C     0.81927   0.70306   0.41646   0.00000  Uiso   1.00
C58    C     0.74981   0.63648   0.40821   0.00000  Uiso   1.00
C59    C     0.65804   0.51562   0.39126   0.00000  Uiso   1.00
C60    C     0.72527   0.83559   0.44624   0.00000  Uiso   1.00
C61    C     0.75869   0.87910   0.40634   0.00000  Uiso   1.00
C62    C     0.71697   0.91199   0.37612   0.00000  Uiso   1.00
C63    C     0.75821   0.94932   0.34190   0.00000  Uiso   1.00
C64    C     0.79248   0.87212   0.49510   0.00000  Uiso   1.00
C65    C     0.77916   0.89913   0.53951   0.00000  Uiso   1.00
C66    C     0.84882   0.93059   0.58002   0.00000  Uiso   1.00
C67    C     0.72566   0.76091   0.43247   0.00000  Uiso   1.00
C68    C     0.65618   0.69441   0.42425   0.00000  Uiso   1.00
C69    C     0.66960   0.63223   0.41204   0.00000  Uiso   1.00
H70    H     0.93501   0.84672   0.43623   0.00000  Uiso   1.00
H71    H     0.94203   0.92392   0.36539   0.00000  Uiso   1.00
H72    H     0.00419   0.91106   0.52875   0.00000  Uiso   1.00
H73    H     0.88123   0.70637   0.41351   0.00000  Uiso   1.00
H74    H     0.91451   0.00766   0.28855   0.00000  Uiso   1.00
H75    H     0.04558   0.98052   0.63302   0.00000  Uiso   1.00
H76    H     0.78630   0.54889   0.39000   0.00000  Uiso   1.00
H77    H     0.66293   0.83228   0.44922   0.00000  Uiso   1.00
H78    H     0.65501   0.90869   0.37909   0.00000  Uiso   1.00
H79    H     0.71719   0.89583   0.54246   0.00000  Uiso   1.00
H80    H     0.59423   0.69114   0.42721   0.00000  Uiso   1.00
H81    H     0.68156   0.99530   0.29967   0.00000  Uiso   1.00
H82    H     0.81264   0.96816   0.64414   0.00000  Uiso   1.00
H83    H     0.55335   0.53654   0.40112   0.00000  Uiso   1.00
O84    O     0.79774   0.05203   0.24776   0.00000  Uiso   1.00
O85    O     0.96971   0.01641   0.69969   0.00000  Uiso   1.00
O86    O     0.62954   0.45013   0.38084   0.00000  Uiso   1.00
N87    N     0.86076   0.99425   0.30079   0.00000  Uiso   1.00
N88    N     0.98332   0.96889   0.62284   0.00000  Uiso   1.00
N89    N     0.74091   0.56535   0.39565   0.00000  Uiso   1.00
N90    N     0.73541   0.98760   0.30677   0.00000  Uiso   1.00
N91    N     0.85797   0.96224   0.62882   0.00000  Uiso   1.00
N92    N     0.61556   0.55871   0.40163   0.00000  Uiso   1.00
C93    C     0.54971   0.22897   0.52375   0.00000  Uiso   1.00
C94    C     0.56657   0.16121   0.52981   0.00000  Uiso   1.00
C95    C     0.51834   0.09203   0.50167   0.00000  Uiso   1.00
C96    C     0.54423   0.03727   0.51302   0.00000  Uiso   1.00
C97    C     0.55950   0.92991   0.51665   0.00000  Uiso   1.00
C98    C     0.54215   0.25770   0.57506   0.00000  Uiso   1.00
C99    C     0.47338   0.26966   0.58496   0.00000  Uiso   1.00
C100   C     0.47871   0.29613   0.63439   0.00000  Uiso   1.00
C101   C     0.45610   0.33863   0.70826   0.00000  Uiso   1.00
C102   C     0.63069   0.28566   0.51447   0.00000  Uiso   1.00
C103   C     0.63637   0.32114   0.47344   0.00000  Uiso   1.00
C104   C     0.71625   0.37117   0.47186   0.00000  Uiso   1.00
C105   C     0.83110   0.45708   0.45167   0.00000  Uiso   1.00
C106   C     0.68146   0.25473   0.59393   0.00000  Uiso   1.00
C107   C     0.63814   0.17520   0.56793   0.00000  Uiso   1.00
C108   C     0.66411   0.12053   0.57932   0.00000  Uiso   1.00
C109   C     0.61592   0.05128   0.55120   0.00000  Uiso   1.00
C110   C     0.61371   0.27169   0.61318   0.00000  Uiso   1.00
C111   C     0.61915   0.29815   0.66261   0.00000  Uiso   1.00
C112   C     0.55041   0.31015   0.67258   0.00000  Uiso   1.00
C113   C     0.70225   0.29965   0.55259   0.00000  Uiso   1.00
C114   C     0.78214   0.34963   0.55108   0.00000  Uiso   1.00
C115   C     0.78794   0.38519   0.51005   0.00000  Uiso   1.00
H116   H     0.49399   0.21808   0.49407   0.00000  Uiso   1.00
H117   H     0.46295   0.08123   0.47218   0.00000  Uiso   1.00
H118   H     0.41801   0.25883   0.55545   0.00000  Uiso   1.00
H119   H     0.58097   0.31030   0.44395   0.00000  Uiso   1.00
H120   H     0.46009   0.93566   0.46473   0.00000  Uiso   1.00
H121   H     0.36533   0.31018   0.64031   0.00000  Uiso   1.00
H122   H     0.70897   0.41872   0.40518   0.00000  Uiso   1.00
H123   H     0.73718   0.26562   0.62361   0.00000  Uiso   1.00
H124   H     0.71949   0.13137   0.60882   0.00000  Uiso   1.00
H125   H     0.67454   0.30898   0.69209   0.00000  Uiso   1.00
H126   H     0.83751   0.36045   0.58059   0.00000  Uiso   1.00
H127   H     0.66830   0.97635   0.57564   0.00000  Uiso   1.00
H128   H     0.57354   0.35088   0.75121   0.00000  Uiso   1.00
H129   H     0.91718   0.45941   0.51608   0.00000  Uiso   1.00
O130   O     0.54815   0.86683   0.50813   0.00000  Uiso   1.00
O131   O     0.42384   0.35820   0.73848   0.00000  Uiso   1.00
O132   O     0.87469   0.50059   0.42999   0.00000  Uiso   1.00
N133   N     0.51153   0.96366   0.49285   0.00000  Uiso   1.00
N134   N     0.42293   0.31381   0.65701   0.00000  Uiso   1.00
N135   N     0.74420   0.41530   0.43719   0.00000  Uiso   1.00
N136   N     0.62357   0.98556   0.55253   0.00000  Uiso   1.00
N137   N     0.53497   0.33570   0.71669   0.00000  Uiso   1.00
N138   N     0.85624   0.43719   0.49687   0.00000  Uiso   1.00
C139   C     0.47815   0.86532   0.01374   0.00000  Uiso   1.00
C140   C     0.40835   0.82805   0.04055   0.00000  Uiso   1.00
C141   C     0.34658   0.75728   0.02577   0.00000  Uiso   1.00
C142   C     0.28841   0.73329   0.05535   0.00000  Uiso   1.00
C143   C     0.17951   0.66854   0.09049   0.00000  Uiso   1.00
C144   C     0.56160   0.89037   0.05277   0.00000  Uiso   1.00
C145   C     0.62869   0.87201   0.04826   0.00000  Uiso   1.00
C146   C     0.69952   0.90050   0.08812   0.00000  Uiso   1.00
C147   C     0.82857   0.93254   0.14222   0.00000  Uiso   1.00
C148   C     0.46898   0.93458   0.00191   0.00000  Uiso   1.00
C149   C     0.45821   0.95340   0.95462   0.00000  Uiso   1.00
C150   C     0.45109   0.01911   0.95166   0.00000  Uiso   1.00
C151   C     0.43634   0.11978   0.92677   0.00000  Uiso   1.00
C152   C     0.48468   0.94857   0.09255   0.00000  Uiso   1.00
C153   C     0.41190   0.87327   0.08336   0.00000  Uiso   1.00
C154   C     0.35380   0.84939   0.11297   0.00000  Uiso   1.00
C155   C     0.29196   0.77859   0.09823   0.00000  Uiso   1.00
C156   C     0.56515   0.93559   0.09558   0.00000  Uiso   1.00
C157   C     0.63591   0.96411   0.13546   0.00000  Uiso   1.00
C158   C     0.70307   0.94580   0.13101   0.00000  Uiso   1.00
C159   C     0.47253   0.97980   0.04471   0.00000  Uiso   1.00
C160   C     0.46543   0.04550   0.04182   0.00000  Uiso   1.00
C161   C     0.45464   0.06441   0.99455   0.00000  Uiso   1.00
H162   H     0.47540   0.83012   0.98041   0.00000  Uiso   1.00
H163   H     0.34386   0.72230   0.99264   0.00000  Uiso   1.00
H164   H     0.62593   0.83702   0.01513   0.00000  Uiso   1.00
H165   H     0.45547   0.91839   0.92151   0.00000  Uiso   1.00
H166   H     0.19962   0.62270   0.02509   0.00000  Uiso   1.00
H167   H     0.79437   0.86462   0.07249   0.00000  Uiso   1.00
H168   H     0.43494   0.03620   0.87507   0.00000  Uiso   1.00
H169   H     0.48745   0.98377   0.12588   0.00000  Uiso   1.00
H170   H     0.35657   0.88439   0.14610   0.00000  Uiso   1.00
H171   H     0.63863   0.99911   0.16858   0.00000  Uiso   1.00
H172   H     0.46818   0.08048   0.07496   0.00000  Uiso   1.00
H173   H     0.20993   0.75426   0.14964   0.00000  Uiso   1.00
H174   H     0.80468   0.99617   0.19704   0.00000  Uiso   1.00
H175   H     0.44525   0.16775   0.99962   0.00000  Uiso   1.00
O176   O     0.11848   0.62032   0.09805   0.00000  Uiso   1.00
O177   O     0.89877   0.93771   0.16023   0.00000  Uiso   1.00
O178   O     0.42721   0.16282   0.90122   0.00000  Uiso   1.00
N179   N     0.21999   0.66731   0.05162   0.00000  Uiso   1.00
N180   N     0.77605   0.89347   0.09594   0.00000  Uiso   1.00
N181   N     0.44003   0.05390   0.91137   0.00000  Uiso   1.00
N182   N     0.22554   0.73810   0.11864   0.00000  Uiso   1.00
N183   N     0.78160   0.96426   0.16296   0.00000  Uiso   1.00
N184   N     0.44558   0.12469   0.97839   0.00000  Uiso   1.00
C185   C     0.00686   0.00696   0.96093   0.00000  Uiso   1.00
C186   C     0.00522   0.94069   0.98406   0.00000  Uiso   1.00
C187   C     0.02300   0.88487   0.96296   0.00000  Uiso   1.00
C188   C     0.01804   0.82911   0.99004   0.00000  Uiso   1.00
C189   C     0.01888   0.72621   0.01890   0.00000  Uiso   1.00
C190   C     0.06838   0.07352   0.99981   0.00000  Uiso   1.00
C191   C     0.13926   0.12939   0.99195   0.00000  Uiso   1.00
C192   C     0.18747   0.18545   0.03229   0.00000  Uiso   1.00
C193   C     0.28633   0.28880   0.08559   0.00000  Uiso   1.00
C194   C     0.91928   0.00683   0.95759   0.00000  Uiso   1.00
C195   C     0.86480   0.00663   0.91422   0.00000  Uiso   1.00
C196   C     0.78748   0.00655   0.91902   0.00000  Uiso   1.00
C197   C     0.65484   0.00635   0.90676   0.00000  Uiso   1.00
C198   C     0.96643   0.00718   0.04655   0.00000  Uiso   1.00
C199   C     0.98326   0.94082   0.03057   0.00000  Uiso   1.00
C200   C     0.97827   0.88512   0.05769   0.00000  Uiso   1.00
C201   C     0.99604   0.82923   0.03663   0.00000  Uiso   1.00
C202   C     0.04643   0.07365   0.04632   0.00000  Uiso   1.00
C203   C     0.09454   0.12964   0.08668   0.00000  Uiso   1.00
C204   C     0.16547   0.18557   0.07888   0.00000  Uiso   1.00
C205   C     0.89732   0.00694   0.00409   0.00000  Uiso   1.00
C206   C     0.82007   0.00687   0.00895   0.00000  Uiso   1.00
C207   C     0.76548   0.00668   0.96561   0.00000  Uiso   1.00
H208   H     0.02396   0.00687   0.92472   0.00000  Uiso   1.00
H209   H     0.04000   0.88480   0.92697   0.00000  Uiso   1.00
H210   H     0.15623   0.12929   0.95595   0.00000  Uiso   1.00
H211   H     0.88181   0.00654   0.87824   0.00000  Uiso   1.00
H212   H     0.04813   0.74954   0.94998   0.00000  Uiso   1.00
H213   H     0.29321   0.26505   0.01109   0.00000  Uiso   1.00
H214   H     0.71453   0.00622   0.84722   0.00000  Uiso   1.00
H215   H     0.94934   0.00728   0.08276   0.00000  Uiso   1.00
H216   H     0.96128   0.88523   0.09367   0.00000  Uiso   1.00
H217   H     0.07752   0.12971   0.12266   0.00000  Uiso   1.00
H218   H     0.80310   0.00697   0.04495   0.00000  Uiso   1.00
H219   H     0.98424   0.74988   0.08528   0.00000  Uiso   1.00
H220   H     0.22932   0.26540   0.14639   0.00000  Uiso   1.00
H221   H     0.65065   0.00657   0.98253   0.00000  Uiso   1.00
O222   O     0.02542   0.66942   0.02197   0.00000  Uiso   1.00
O223   O     0.34694   0.34577   0.10214   0.00000  Uiso   1.00
O224   O     0.58773   0.00619   0.88715   0.00000  Uiso   1.00
N225   N     0.03144   0.76636   0.98032   0.00000  Uiso   1.00
N226   N     0.26058   0.24833   0.03746   0.00000  Uiso   1.00
N227   N     0.71958   0.00637   0.88425   0.00000  Uiso   1.00
N228   N     0.99706   0.76654   0.05312   0.00000  Uiso   1.00
N229   N     0.22620   0.24852   0.11026   0.00000  Uiso   1.00
N230   N     0.68520   0.00655   0.95706   0.00000  Uiso   1.00
C231   C     0.59617   0.46985   0.02036   0.00000  Uiso   1.00
C232   C     0.64353   0.54798   0.01301   0.00000  Uiso   1.00
C233   C     0.61149   0.58451   0.98036   0.00000  Uiso   1.00
C234   C     0.66482   0.65576   0.97914   0.00000  Uiso   1.00
C235   C     0.72580   0.77199   0.96313   0.00000  Uiso   1.00
C236   C     0.59784   0.47396   0.07621   0.00000  Uiso   1.00
C237   C     0.52739   0.44825   0.09669   0.00000  Uiso   1.00
C238   C     0.54226   0.45718   0.14868   0.00000  Uiso   1.00
C239   C     0.53232   0.45845   0.23079   0.00000  Uiso   1.00
C240   C     0.65109   0.42981   0.01017   0.00000  Uiso   1.00
C241   C     0.62541   0.36696   0.97513   0.00000  Uiso   1.00
C242   C     0.68512   0.33870   0.97152   0.00000  Uiso   1.00
C243   C     0.75786   0.27141   0.95108   0.00000  Uiso   1.00
C244   C     0.74786   0.53141   0.07626   0.00000  Uiso   1.00
C245   C     0.72592   0.58141   0.04338   0.00000  Uiso   1.00
C246   C     0.77931   0.65262   0.04221   0.00000  Uiso   1.00
C247   C     0.74736   0.68925   0.00956   0.00000  Uiso   1.00
C248   C     0.68022   0.50740   0.10657   0.00000  Uiso   1.00
C249   C     0.69521   0.51636   0.15854   0.00000  Uiso   1.00
C250   C     0.62480   0.49067   0.17910   0.00000  Uiso   1.00
C251   C     0.73348   0.46324   0.04053   0.00000  Uiso   1.00
C252   C     0.79324   0.43507   0.03698   0.00000  Uiso   1.00
C253   C     0.76766   0.37219   0.00194   0.00000  Uiso   1.00
H254   H     0.53202   0.44382   0.99672   0.00000  Uiso   1.00
H255   H     0.54772   0.55862   0.95687   0.00000  Uiso   1.00
H256   H     0.46364   0.42238   0.07319   0.00000  Uiso   1.00
H257   H     0.56165   0.34110   0.95164   0.00000  Uiso   1.00
H258   H     0.60145   0.70065   0.92609   0.00000  Uiso   1.00
H259   H     0.42415   0.41335   0.17135   0.00000  Uiso   1.00
H260   H     0.63083   0.24196   0.91504   0.00000  Uiso   1.00
H261   H     0.81200   0.55744   0.09990   0.00000  Uiso   1.00
H262   H     0.84307   0.67848   0.06571   0.00000  Uiso   1.00
H263   H     0.75898   0.54223   0.18203   0.00000  Uiso   1.00
H264   H     0.85699   0.46096   0.06048   0.00000  Uiso   1.00
H265   H     0.84116   0.79793   0.01443   0.00000  Uiso   1.00
H266   H     0.66386   0.51062   0.25969   0.00000  Uiso   1.00
H267   H     0.87054   0.33924   0.00338   0.00000  Uiso   1.00
O268   O     0.73668   0.82687   0.94592   0.00000  Uiso   1.00
O269   O     0.50407   0.44992   0.26769   0.00000  Uiso   1.00
O270   O     0.77523   0.22507   0.93142   0.00000  Uiso   1.00
N271   N     0.65361   0.70693   0.95157   0.00000  Uiso   1.00
N272   N     0.48784   0.43833   0.18087   0.00000  Uiso   1.00
N273   N     0.68106   0.27808   0.94125   0.00000  Uiso   1.00
N274   N     0.78259   0.75928   0.99910   0.00000  Uiso   1.00
N275   N     0.61683   0.49067   0.22841   0.00000  Uiso   1.00
N276   N     0.81005   0.33043   0.98879   0.00000  Uiso   1.00
C277   C     0.52574   0.67526   0.27076   0.00000  Uiso   1.00
C278   C     0.61428   0.71277   0.26154   0.00000  Uiso   1.00
C279   C     0.68501   0.70138   0.28282   0.00000  Uiso   1.00
C280   C     0.76025   0.74100   0.26962   0.00000  Uiso   1.00
C281   C     0.89707   0.79173   0.26036   0.00000  Uiso   1.00
C282   C     0.46660   0.63891   0.21921   0.00000  Uiso   1.00
C283   C     0.41314   0.56542   0.20489   0.00000  Uiso   1.00
C284   C     0.36405   0.54287   0.15605   0.00000  Uiso   1.00
C285   C     0.27154   0.47894   0.08107   0.00000  Uiso   1.00
C286   C     0.50172   0.73619   0.28952   0.00000  Uiso   1.00
C287   C     0.47777   0.74448   0.33431   0.00000  Uiso   1.00
C288   C     0.45822   0.80382   0.34466   0.00000  Uiso   1.00
C289   C     0.42024   0.89093   0.37884   0.00000  Uiso   1.00
C290   C     0.53358   0.76588   0.20947   0.00000  Uiso   1.00
C291   C     0.61854   0.76199   0.22825   0.00000  Uiso   1.00
C292   C     0.69369   0.80164   0.21501   0.00000  Uiso   1.00
C293   C     0.76451   0.79031   0.23627   0.00000  Uiso   1.00
C294   C     0.47085   0.68813   0.18591   0.00000  Uiso   1.00
C295   C     0.42182   0.66568   0.13708   0.00000  Uiso   1.00
C296   C     0.36831   0.59218   0.12270   0.00000  Uiso   1.00
C297   C     0.50598   0.78541   0.25622   0.00000  Uiso   1.00
C298   C     0.48645   0.84474   0.26650   0.00000  Uiso   1.00
C299   C     0.46248   0.85313   0.31131   0.00000  Uiso   1.00
H300   H     0.52242   0.63693   0.29667   0.00000  Uiso   1.00
H301   H     0.68169   0.66328   0.30858   0.00000  Uiso   1.00
H302   H     0.40986   0.52734   0.23067   0.00000  Uiso   1.00
H303   H     0.47448   0.70638   0.36007   0.00000  Uiso   1.00
H304   H     0.86013   0.71417   0.30709   0.00000  Uiso   1.00
H305   H     0.28694   0.42755   0.14280   0.00000  Uiso   1.00
H306   H     0.42321   0.80508   0.41567   0.00000  Uiso   1.00
H307   H     0.53689   0.80420   0.18354   0.00000  Uiso   1.00
H308   H     0.69696   0.83973   0.18925   0.00000  Uiso   1.00
H309   H     0.42513   0.70379   0.11133   0.00000  Uiso   1.00
H310   H     0.48975   0.88282   0.24073   0.00000  Uiso   1.00
H311   H     0.87253   0.85738   0.21023   0.00000  Uiso   1.00
H312   H     0.29933   0.57076   0.04594   0.00000  Uiso   1.00
H313   H     0.43560   0.94829   0.31881   0.00000  Uiso   1.00
O314   O     0.97136   0.80611   0.26444   0.00000  Uiso   1.00
O315   O     0.21934   0.43008   0.04891   0.00000  Uiso   1.00
O316   O     0.39813   0.92539   0.40690   0.00000  Uiso   1.00
N317   N     0.84109   0.74301   0.28352   0.00000  Uiso   1.00
N318   N     0.30520   0.47503   0.12992   0.00000  Uiso   1.00
N319   N     0.43257   0.82798   0.38502   0.00000  Uiso   1.00
N320   N     0.84776   0.82008   0.23140   0.00000  Uiso   1.00
N321   N     0.31187   0.55209   0.07780   0.00000  Uiso   1.00
N322   N     0.43924   0.90504   0.33290   0.00000  Uiso   1.00
C323   C     0.03137   0.50484   0.32485   0.00000  Uiso   1.00
C324   C     0.96827   0.42535   0.30863   0.00000  Uiso   1.00
C325   C     0.90364   0.38890   0.33161   0.00000  Uiso   1.00
C326   C     0.85268   0.31628   0.31108   0.00000  Uiso   1.00
C327   C     0.75266   0.19816   0.29227   0.00000  Uiso   1.00
C328   C     0.02338   0.54102   0.27898   0.00000  Uiso   1.00
C329   C     0.00508   0.60184   0.27702   0.00000  Uiso   1.00
C330   C     0.00053   0.62661   0.23153   0.00000  Uiso   1.00
C331   C     0.98612   0.68811   0.16668   0.00000  Uiso   1.00
C332   C     0.11920   0.50419   0.33398   0.00000  Uiso   1.00
C333   C     0.18149   0.53406   0.37826   0.00000  Uiso   1.00
C334   C     0.25762   0.52782   0.37907   0.00000  Uiso   1.00
C335   C     0.39200   0.53213   0.39962   0.00000  Uiso   1.00
C336   C     0.05582   0.44068   0.24755   0.00000  Uiso   1.00
C337   C     0.98155   0.39050   0.26665   0.00000  Uiso   1.00
C338   C     0.93068   0.31792   0.24608   0.00000  Uiso   1.00
C339   C     0.86598   0.28137   0.26902   0.00000  Uiso   1.00
C340   C     0.03666   0.50618   0.23699   0.00000  Uiso   1.00
C341   C     0.03213   0.53086   0.19149   0.00000  Uiso   1.00
C342   C     0.01383   0.59170   0.18946   0.00000  Uiso   1.00
C343   C     0.13248   0.46934   0.29199   0.00000  Uiso   1.00
C344   C     0.20854   0.46307   0.29273   0.00000  Uiso   1.00
C345   C     0.27093   0.49291   0.33701   0.00000  Uiso   1.00
H346   H     0.02103   0.53198   0.35754   0.00000  Uiso   1.00
H347   H     0.89337   0.41589   0.36410   0.00000  Uiso   1.00
H348   H     0.99482   0.62880   0.30952   0.00000  Uiso   1.00
H349   H     0.17119   0.56102   0.41074   0.00000  Uiso   1.00
H350   H     0.75768   0.27183   0.35284   0.00000  Uiso   1.00
H351   H     0.97161   0.72078   0.23776   0.00000  Uiso   1.00
H352   H     0.34353   0.57785   0.45121   0.00000  Uiso   1.00
H353   H     0.06616   0.41355   0.21486   0.00000  Uiso   1.00
H354   H     0.94098   0.29097   0.21359   0.00000  Uiso   1.00
H355   H     0.04242   0.50388   0.15901   0.00000  Uiso   1.00
H356   H     0.21879   0.43610   0.26023   0.00000  Uiso   1.00
H357   H     0.79631   0.17044   0.23068   0.00000  Uiso   1.00
H358   H     0.01024   0.61939   0.11560   0.00000  Uiso   1.00
H359   H     0.38216   0.47646   0.32905   0.00000  Uiso   1.00
O360   O     0.69382   0.14264   0.29348   0.00000  Uiso   1.00
O361   O     0.97449   0.73165   0.14251   0.00000  Uiso   1.00
O362   O     0.46245   0.54413   0.42255   0.00000  Uiso   1.00
N363   N     0.78396   0.26479   0.32427   0.00000  Uiso   1.00
N364   N     0.98396   0.68452   0.21667   0.00000  Uiso   1.00
N365   N     0.33168   0.55091   0.41623   0.00000  Uiso   1.00
N366   N     0.80475   0.21023   0.25853   0.00000  Uiso   1.00
N367   N     0.00474   0.62996   0.15094   0.00000  Uiso   1.00
N368   N     0.35247   0.49635   0.35050   0.00000  Uiso   1.00
C369   C     0.24422   0.18363   0.40021   0.00000  Uiso   1.00
C370   C     0.17768   0.19210   0.42589   0.00000  Uiso   1.00
C371   C     0.19303   0.22699   0.47471   0.00000  Uiso   1.00
C372   C     0.12365   0.22894   0.49122   0.00000  Uiso   1.00
C373   C     0.03278   0.24697   0.53584   0.00000  Uiso   1.00
C374   C     0.23753   0.21664   0.35271   0.00000  Uiso   1.00
C375   C     0.30320   0.27216   0.34000   0.00000  Uiso   1.00
C376   C     0.28421   0.29475   0.29490   0.00000  Uiso   1.00
C377   C     0.28627   0.35085   0.22588   0.00000  Uiso   1.00
C378   C     0.21431   0.10199   0.38263   0.00000  Uiso   1.00
C379   C     0.26046   0.06110   0.39506   0.00000  Uiso   1.00
C380   C     0.22192   0.98716   0.37515   0.00000  Uiso   1.00
C381   C     0.18792   0.86524   0.35258   0.00000  Uiso   1.00
C382   C     0.09372   0.12504   0.34271   0.00000  Uiso   1.00
C383   C     0.09594   0.16028   0.39466   0.00000  Uiso   1.00
C384   C     0.02652   0.16217   0.41110   0.00000  Uiso   1.00
C385   C     0.04176   0.19705   0.45994   0.00000  Uiso   1.00
C386   C     0.15579   0.18482   0.32148   0.00000  Uiso   1.00
C387   C     0.13670   0.20733   0.27638   0.00000  Uiso   1.00
C388   C     0.20232   0.26287   0.26361   0.00000  Uiso   1.00
C389   C     0.13257   0.07016   0.35140   0.00000  Uiso   1.00
C390   C     0.09395   0.99628   0.33145   0.00000  Uiso   1.00
C391   C     0.14003   0.95528   0.34386   0.00000  Uiso   1.00
H392   H     0.30786   0.20841   0.42452   0.00000  Uiso   1.00
H393   H     0.25630   0.25162   0.49887   0.00000  Uiso   1.00
H394   H     0.36646   0.29677   0.36417   0.00000  Uiso   1.00
H395   H     0.32372   0.08575   0.41923   0.00000  Uiso   1.00
H396   H     0.16309   0.28552   0.56752   0.00000  Uiso   1.00
H397   H     0.39537   0.38070   0.28350   0.00000  Uiso   1.00
H398   H     0.30525   0.93572   0.39960   0.00000  Uiso   1.00
H399   H     0.03008   0.10026   0.31839   0.00000  Uiso   1.00
H400   H     0.96327   0.13754   0.38692   0.00000  Uiso   1.00
H401   H     0.07343   0.18269   0.25222   0.00000  Uiso   1.00
H402   H     0.03069   0.97167   0.30728   0.00000  Uiso   1.00
H403   H     0.92526   0.19293   0.47665   0.00000  Uiso   1.00
H404   H     0.15754   0.28811   0.19263   0.00000  Uiso   1.00
H405   H     0.06741   0.84313   0.30874   0.00000  Uiso   1.00
O406   O     0.00524   0.26572   0.56907   0.00000  Uiso   1.00
O407   O     0.30999   0.39059   0.19645   0.00000  Uiso   1.00
O408   O     0.19175   0.80678   0.34877   0.00000  Uiso   1.00
N409   N     0.11628   0.25860   0.53673   0.00000  Uiso   1.00
N410   N     0.33345   0.34760   0.27119   0.00000  Uiso   1.00
N411   N     0.24920   0.93158   0.37973   0.00000  Uiso   1.00
N412   N     0.98831   0.20877   0.48784   0.00000  Uiso   1.00
N413   N     0.20547   0.29778   0.22230   0.00000  Uiso   1.00
N414   N     0.12122   0.88176   0.33084   0.00000  Uiso   1.00
C415   C     0.40217   0.67713   0.87370   0.00000  Uiso   1.00
C416   C     0.47366   0.70045   0.84611   0.00000  Uiso   1.00
C417   C     0.54837   0.76315   0.86105   0.00000  Uiso   1.00
C418   C     0.60582   0.77471   0.83067   0.00000  Uiso   1.00
C419   C     0.71936   0.81845   0.79446   0.00000  Uiso   1.00
C420   C     0.32227   0.66753   0.83581   0.00000  Uiso   1.00
C421   C     0.26967   0.70255   0.84209   0.00000  Uiso   1.00
C422   C     0.19967   0.68639   0.80303   0.00000  Uiso   1.00
C423   C     0.07813   0.67898   0.75085   0.00000  Uiso   1.00
C424   C     0.38945   0.60106   0.88401   0.00000  Uiso   1.00
C425   C     0.39332   0.58020   0.93081   0.00000  Uiso   1.00
C426   C     0.37986   0.50807   0.93233   0.00000  Uiso   1.00
C427   C     0.36263   0.39747   0.95498   0.00000  Uiso   1.00
C428   C     0.37135   0.58613   0.79318   0.00000  Uiso   1.00
C429   C     0.45692   0.65102   0.80237   0.00000  Uiso   1.00
C430   C     0.51427   0.66248   0.77196   0.00000  Uiso   1.00
C431   C     0.58905   0.72520   0.78685   0.00000  Uiso   1.00
C432   C     0.30553   0.61810   0.79207   0.00000  Uiso   1.00
C433   C     0.23558   0.60188   0.75300   0.00000  Uiso   1.00
C434   C     0.18290   0.63687   0.75921   0.00000  Uiso   1.00
C435   C     0.37271   0.55164   0.84027   0.00000  Uiso   1.00
C436   C     0.35923   0.47952   0.84172   0.00000  Uiso   1.00
C437   C     0.36309   0.45855   0.88851   0.00000  Uiso   1.00
H438   H     0.41519   0.71561   0.90775   0.00000  Uiso   1.00
H439   H     0.56129   0.80140   0.89490   0.00000  Uiso   1.00
H440   H     0.28264   0.74079   0.87594   0.00000  Uiso   1.00
H441   H     0.40627   0.61846   0.96465   0.00000  Uiso   1.00
H442   H     0.71588   0.87472   0.86135   0.00000  Uiso   1.00
H443   H     0.12831   0.74692   0.82139   0.00000  Uiso   1.00
H444   H     0.38901   0.48895   0.00844   0.00000  Uiso   1.00
H445   H     0.35832   0.54765   0.75912   0.00000  Uiso   1.00
H446   H     0.50130   0.62422   0.73811   0.00000  Uiso   1.00
H447   H     0.22265   0.56362   0.71916   0.00000  Uiso   1.00
H448   H     0.34628   0.44129   0.80786   0.00000  Uiso   1.00
H449   H     0.66719   0.73093   0.73409   0.00000  Uiso   1.00
H450   H     0.07961   0.60312   0.69413   0.00000  Uiso   1.00
H451   H     0.34031   0.34516   0.88119   0.00000  Uiso   1.00
O452   O     0.78660   0.85624   0.78657   0.00000  Uiso   1.00
O453   O     0.01573   0.68856   0.73415   0.00000  Uiso   1.00
O454   O     0.35776   0.35012   0.97956   0.00000  Uiso   1.00
N455   N     0.68480   0.83036   0.83429   0.00000  Uiso   1.00
N456   N     0.13547   0.71089   0.79692   0.00000  Uiso   1.00
N457   N     0.37918   0.46971   0.97180   0.00000  Uiso   1.00
N458   N     0.65860   0.75299   0.76581   0.00000  Uiso   1.00
N459   N     0.10927   0.63351   0.72845   0.00000  Uiso   1.00
N460   N     0.35298   0.39233   0.90333   0.00000  Uiso   1.00
C461   C     0.83486   0.36480   0.82547   0.00000  Uiso   1.00
C462   C     0.80261   0.41206   0.79500   0.00000  Uiso   1.00
C463   C     0.73535   0.42944   0.80083   0.00000  Uiso   1.00
C464   C     0.71571   0.47341   0.76928   0.00000  Uiso   1.00
C465   C     0.65860   0.54287   0.72744   0.00000  Uiso   1.00
C466   C     0.83138   0.30334   0.78742   0.00000  Uiso   1.00
C467   C     0.78831   0.22930   0.78688   0.00000  Uiso   1.00
C468   C     0.79290   0.18175   0.74895   0.00000  Uiso   1.00
C469   C     0.78050   0.08242   0.69536   0.00000  Uiso   1.00
C470   C     0.92866   0.41132   0.84848   0.00000  Uiso   1.00
C471   C     0.96741   0.42807   0.89928   0.00000  Uiso   1.00
C472   C     0.05392   0.47142   0.91276   0.00000  Uiso   1.00
C473   C     0.19257   0.53975   0.95399   0.00000  Uiso   1.00
C474   C     0.91960   0.41199   0.75908   0.00000  Uiso   1.00
C475   C     0.84863   0.43769   0.75894   0.00000  Uiso   1.00
C476   C     0.82909   0.48165   0.72737   0.00000  Uiso   1.00
C477   C     0.76182   0.49909   0.73315   0.00000  Uiso   1.00
C478   C     0.87740   0.32897   0.75136   0.00000  Uiso   1.00
C479   C     0.88206   0.28151   0.71342   0.00000  Uiso   1.00
C480   C     0.83901   0.20743   0.71282   0.00000  Uiso   1.00
C481   C     0.97469   0.43696   0.81242   0.00000  Uiso   1.00
C482   C     0.06115   0.48028   0.82583   0.00000  Uiso   1.00
C483   C     0.10002   0.49710   0.87664   0.00000  Uiso   1.00
H484   H     0.79903   0.34484   0.85354   0.00000  Uiso   1.00
H485   H     0.69974   0.40959   0.82874   0.00000  Uiso   1.00
H486   H     0.75271   0.20949   0.81479   0.00000  Uiso   1.00
H487   H     0.93178   0.40822   0.92718   0.00000  Uiso   1.00
H488   H     0.60994   0.49266   0.78532   0.00000  Uiso   1.00
H489   H     0.72164   0.07073   0.75592   0.00000  Uiso   1.00
H490   H     0.09924   0.48981   0.99292   0.00000  Uiso   1.00
H491   H     0.95543   0.43194   0.73100   0.00000  Uiso   1.00
H492   H     0.86472   0.50148   0.69947   0.00000  Uiso   1.00
H493   H     0.91768   0.30137   0.68552   0.00000  Uiso   1.00
H494   H     0.09675   0.50011   0.79791   0.00000  Uiso   1.00
H495   H     0.74384   0.56724   0.68040   0.00000  Uiso   1.00
H496   H     0.85554   0.14530   0.65101   0.00000  Uiso   1.00
H497   H     0.23314   0.56438   0.88800   0.00000  Uiso   1.00
O498   O     0.61438   0.57410   0.71432   0.00000  Uiso   1.00
O499   O     0.76094   0.02054   0.67576   0.00000  Uiso   1.00
O500   O     0.25634   0.57037   0.98669   0.00000  Uiso   1.00
N501   N     0.65391   0.50068   0.76496   0.00000  Uiso   1.00
N502   N     0.75833   0.10620   0.73747   0.00000  Uiso   1.00
N503   N     0.11136   0.49799   0.95904   0.00000  Uiso   1.00
N504   N     0.72596   0.54081   0.70850   0.00000  Uiso   1.00
N505   N     0.83038   0.14633   0.68102   0.00000  Uiso   1.00
N506   N     0.18341   0.53812   0.90258   0.00000  Uiso   1.00
C507   C     0.18052   0.19523   0.85980   0.00000  Uiso   1.00
C508   C     0.14833   0.11244   0.85292   0.00000  Uiso   1.00
C509   C     0.19452   0.07411   0.87142   0.00000  Uiso   1.00
C510   C     0.15369   0.99855   0.86107   0.00000  Uiso   1.00
C511   C     0.11650   0.87546   0.85460   0.00000  Uiso   1.00
C512   C     0.16853   0.21347   0.80710   0.00000  Uiso   1.00
C513   C     0.23170   0.26009   0.78709   0.00000  Uiso   1.00
C514   C     0.20787   0.26958   0.73817   0.00000  Uiso   1.00
C515   C     0.20202   0.30338   0.66059   0.00000  Uiso   1.00
C516   C     0.11873   0.21453   0.88422   0.00000  Uiso   1.00
C517   C     0.14003   0.26206   0.92905   0.00000  Uiso   1.00
C518   C     0.07427   0.27245   0.94505   0.00000  Uiso   1.00
C519   C     0.99111   0.30790   0.98721   0.00000  Uiso   1.00
C520   C     0.02587   0.12921   0.80851   0.00000  Uiso   1.00
C521   C     0.06433   0.07659   0.82506   0.00000  Uiso   1.00
C522   C     0.02342   0.00106   0.81468   0.00000  Uiso   1.00
C523   C     0.06954   0.96263   0.83316   0.00000  Uiso   1.00
C524   C     0.08453   0.17761   0.77924   0.00000  Uiso   1.00
C525   C     0.06060   0.18704   0.73034   0.00000  Uiso   1.00
C526   C     0.12372   0.23366   0.71026   0.00000  Uiso   1.00
C527   C     0.03473   0.17867   0.85637   0.00000  Uiso   1.00
C528   C     0.96893   0.18900   0.87230   0.00000  Uiso   1.00
C529   C     0.99012   0.23653   0.91714   0.00000  Uiso   1.00
H530   H     0.24592   0.22315   0.88148   0.00000  Uiso   1.00
H531   H     0.25953   0.10188   0.89298   0.00000  Uiso   1.00
H532   H     0.29670   0.28784   0.80866   0.00000  Uiso   1.00
H533   H     0.20504   0.28980   0.95059   0.00000  Uiso   1.00
H534   H     0.23759   0.95162   0.89341   0.00000  Uiso   1.00
H535   H     0.31595   0.34373   0.71563   0.00000  Uiso   1.00
H536   H     0.12268   0.34787   0.01493   0.00000  Uiso   1.00
H537   H     0.96047   0.10129   0.78682   0.00000  Uiso   1.00
H538   H     0.95841   0.97333   0.79312   0.00000  Uiso   1.00
H539   H     0.99559   0.15929   0.70880   0.00000  Uiso   1.00
H540   H     0.90393   0.16125   0.85073   0.00000  Uiso   1.00
H541   H     0.99319   0.84728   0.81236   0.00000  Uiso   1.00
H542   H     0.07156   0.23940   0.63458   0.00000  Uiso   1.00
H543   H     0.87828   0.24353   0.93388   0.00000  Uiso   1.00
O544   O     0.11919   0.81747   0.85873   0.00000  Uiso   1.00
O545   O     0.22201   0.33193   0.62549   0.00000  Uiso   1.00
O546   O     0.96843   0.33735   0.01816   0.00000  Uiso   1.00
N547   N     0.18034   0.94462   0.87348   0.00000  Uiso   1.00
N548   N     0.25362   0.31122   0.70726   0.00000  Uiso   1.00
N549   N     0.07292   0.31510   0.98708   0.00000  Uiso   1.00
N550   N     0.04883   0.88848   0.82987   0.00000  Uiso   1.00
N551   N     0.12211   0.25508   0.66365   0.00000  Uiso   1.00
N552   N     0.94141   0.25896   0.94346   0.00000  Uiso   1.00
