data_job_01959
_audit_creation_date              2018-12-19
_audit_creation_method            'Materials Studio'
_symmetry_space_group_name_H-M    'P1'
_symmetry_Int_Tables_number       1
_symmetry_cell_setting            triclinic
loop_
_symmetry_equiv_pos_as_xyz
  x,y,z
_cell_length_a                    23.3929
_cell_length_b                    14.1080
_cell_length_c                    16.4045
_cell_angle_alpha                 90.0000
_cell_angle_beta                  151.5500
_cell_angle_gamma                 90.0000
loop_
_atom_site_label
_atom_site_type_symbol
_atom_site_fract_x
_atom_site_fract_y
_atom_site_fract_z
_atom_site_U_iso_or_equiv
_atom_site_adp_type
_atom_site_occupancy
C1     C     0.77304   0.29839   0.15898   0.00000  Uiso   1.00
C2     C     0.88263   0.31202   0.35080   0.00000  Uiso   1.00
C3     C     0.97924   0.37111   0.45559   0.00000  Uiso   1.00
C4     C     0.07068   0.37364   0.62767   0.00000  Uiso   1.00
C5     C     0.24165   0.40308   0.91568   0.00000  Uiso   1.00
C6     C     0.76566   0.19236   0.13237   0.00000  Uiso   1.00
C7     C     0.76391   0.15084   0.05348   0.00000  Uiso   1.00
C8     C     0.75686   0.05265   0.04167   0.00000  Uiso   1.00
C9     C     0.74615   0.89632   0.99045   0.00000  Uiso   1.00
C10    C     0.66438   0.32186   0.07550   0.00000  Uiso   1.00
C11    C     0.57744   0.38921   0.94877   0.00000  Uiso   1.00
C12    C     0.48511   0.40002   0.88906   0.00000  Uiso   1.00
C13    C     0.31714   0.44476   0.74955   0.00000  Uiso   1.00
C14    C     0.76362   0.19782   0.27825   0.00000  Uiso   1.00
C15    C     0.87752   0.25739   0.41558   0.00000  Uiso   1.00
C16    C     0.96883   0.25984   0.58755   0.00000  Uiso   1.00
C17    C     0.06556   0.31892   0.69258   0.00000  Uiso   1.00
C18    C     0.76055   0.13774   0.19715   0.00000  Uiso   1.00
C19    C     0.75349   0.03958   0.18544   0.00000  Uiso   1.00
C20    C     0.75174   0.99792   0.10657   0.00000  Uiso   1.00
C21    C     0.65926   0.26724   0.14029   0.00000  Uiso   1.00
C22    C     0.56704   0.27794   0.08075   0.00000  Uiso   1.00
C23    C     0.47998   0.34530   0.95395   0.00000  Uiso   1.00
H24    H     0.77702   0.34091   0.10853   0.00000  Uiso   1.00
H25    H     0.98317   0.41336   0.40540   0.00000  Uiso   1.00
H26    H     0.76785   0.19313   0.00334   0.00000  Uiso   1.00
H27    H     0.58143   0.43146   0.89867   0.00000  Uiso   1.00
H28    H     0.20949   0.46957   0.76312   0.00000  Uiso   1.00
H29    H     0.75545   0.00521   0.91530   0.00000  Uiso   1.00
H30    H     0.36233   0.50778   0.69456   0.00000  Uiso   1.00
H31    H     0.75964   0.15529   0.32869   0.00000  Uiso   1.00
H32    H     0.96485   0.21756   0.63765   0.00000  Uiso   1.00
H33    H     0.74953   0.99733   0.23558   0.00000  Uiso   1.00
H34    H     0.56311   0.23566   0.13091   0.00000  Uiso   1.00
H35    H     0.19463   0.31065   0.95162   0.00000  Uiso   1.00
H36    H     0.74057   0.84629   0.10379   0.00000  Uiso   1.00
H37    H     0.34746   0.34885   0.88306   0.00000  Uiso   1.00
O38    O     0.33738   0.43440   0.05665   0.00000  Uiso   1.00
O39    O     0.74167   0.82518   0.94432   0.00000  Uiso   1.00
O40    O     0.22591   0.48453   0.65472   0.00000  Uiso   1.00
N41    N     0.17782   0.42364   0.76508   0.00000  Uiso   1.00
N42    N     0.75334   0.98949   0.97244   0.00000  Uiso   1.00
N43    N     0.38578   0.45933   0.76603   0.00000  Uiso   1.00
N44    N     0.16982   0.33812   0.86651   0.00000  Uiso   1.00
N45    N     0.74534   0.90398   0.07387   0.00000  Uiso   1.00
N46    N     0.37778   0.37381   0.86746   0.00000  Uiso   1.00
C47    C     0.22696   0.29839   0.34102   0.00000  Uiso   1.00
C48    C     0.11737   0.31202   0.14920   0.00000  Uiso   1.00
C49    C     0.02076   0.37111   0.04441   0.00000  Uiso   1.00
C50    C     0.92932   0.37364   0.87233   0.00000  Uiso   1.00
C51    C     0.75835   0.40308   0.58432   0.00000  Uiso   1.00
C52    C     0.23434   0.19236   0.36763   0.00000  Uiso   1.00
C53    C     0.23609   0.15084   0.44652   0.00000  Uiso   1.00
C54    C     0.24314   0.05265   0.45833   0.00000  Uiso   1.00
C55    C     0.25385   0.89632   0.50955   0.00000  Uiso   1.00
C56    C     0.33562   0.32186   0.42450   0.00000  Uiso   1.00
C57    C     0.42256   0.38921   0.55123   0.00000  Uiso   1.00
C58    C     0.51489   0.40002   0.61094   0.00000  Uiso   1.00
C59    C     0.68286   0.44476   0.75045   0.00000  Uiso   1.00
C60    C     0.23638   0.19782   0.22175   0.00000  Uiso   1.00
C61    C     0.12248   0.25739   0.08442   0.00000  Uiso   1.00
C62    C     0.03117   0.25984   0.91245   0.00000  Uiso   1.00
C63    C     0.93444   0.31892   0.80742   0.00000  Uiso   1.00
C64    C     0.23945   0.13774   0.30285   0.00000  Uiso   1.00
C65    C     0.24651   0.03958   0.31456   0.00000  Uiso   1.00
C66    C     0.24826   0.99792   0.39343   0.00000  Uiso   1.00
C67    C     0.34074   0.26724   0.35971   0.00000  Uiso   1.00
C68    C     0.43296   0.27794   0.41925   0.00000  Uiso   1.00
C69    C     0.52002   0.34530   0.54605   0.00000  Uiso   1.00
H70    H     0.22298   0.34091   0.39147   0.00000  Uiso   1.00
H71    H     0.01683   0.41336   0.09460   0.00000  Uiso   1.00
H72    H     0.23215   0.19313   0.49666   0.00000  Uiso   1.00
H73    H     0.41857   0.43146   0.60133   0.00000  Uiso   1.00
H74    H     0.79051   0.46957   0.73688   0.00000  Uiso   1.00
H75    H     0.24455   0.00521   0.58470   0.00000  Uiso   1.00
H76    H     0.63767   0.50778   0.80544   0.00000  Uiso   1.00
H77    H     0.24036   0.15529   0.17131   0.00000  Uiso   1.00
H78    H     0.03515   0.21756   0.86235   0.00000  Uiso   1.00
H79    H     0.25047   0.99733   0.26442   0.00000  Uiso   1.00
H80    H     0.43689   0.23566   0.36909   0.00000  Uiso   1.00
H81    H     0.80537   0.31065   0.54838   0.00000  Uiso   1.00
H82    H     0.25943   0.84629   0.39621   0.00000  Uiso   1.00
H83    H     0.65254   0.34885   0.61694   0.00000  Uiso   1.00
O84    O     0.66262   0.43440   0.44335   0.00000  Uiso   1.00
O85    O     0.25833   0.82518   0.55568   0.00000  Uiso   1.00
O86    O     0.77409   0.48453   0.84528   0.00000  Uiso   1.00
N87    N     0.82218   0.42364   0.73492   0.00000  Uiso   1.00
N88    N     0.24666   0.98949   0.52756   0.00000  Uiso   1.00
N89    N     0.61422   0.45933   0.73397   0.00000  Uiso   1.00
N90    N     0.83018   0.33812   0.63349   0.00000  Uiso   1.00
N91    N     0.25466   0.90398   0.42613   0.00000  Uiso   1.00
N92    N     0.62222   0.37381   0.63254   0.00000  Uiso   1.00
C93    C     0.22696   0.70161   0.84102   0.00000  Uiso   1.00
C94    C     0.11737   0.68798   0.64920   0.00000  Uiso   1.00
C95    C     0.02076   0.62889   0.54441   0.00000  Uiso   1.00
C96    C     0.92932   0.62636   0.37233   0.00000  Uiso   1.00
C97    C     0.75835   0.59692   0.08432   0.00000  Uiso   1.00
C98    C     0.23434   0.80764   0.86763   0.00000  Uiso   1.00
C99    C     0.23609   0.84916   0.94652   0.00000  Uiso   1.00
C100   C     0.24314   0.94735   0.95833   0.00000  Uiso   1.00
C101   C     0.25385   0.10368   0.00955   0.00000  Uiso   1.00
C102   C     0.33562   0.67814   0.92450   0.00000  Uiso   1.00
C103   C     0.42256   0.61079   0.05123   0.00000  Uiso   1.00
C104   C     0.51489   0.59998   0.11094   0.00000  Uiso   1.00
C105   C     0.68286   0.55524   0.25045   0.00000  Uiso   1.00
C106   C     0.23638   0.80218   0.72175   0.00000  Uiso   1.00
C107   C     0.12248   0.74261   0.58442   0.00000  Uiso   1.00
C108   C     0.03117   0.74016   0.41245   0.00000  Uiso   1.00
C109   C     0.93444   0.68108   0.30742   0.00000  Uiso   1.00
C110   C     0.23945   0.86226   0.80285   0.00000  Uiso   1.00
C111   C     0.24651   0.96042   0.81456   0.00000  Uiso   1.00
C112   C     0.24826   0.00208   0.89343   0.00000  Uiso   1.00
C113   C     0.34074   0.73276   0.85971   0.00000  Uiso   1.00
C114   C     0.43296   0.72206   0.91925   0.00000  Uiso   1.00
C115   C     0.52002   0.65470   0.04605   0.00000  Uiso   1.00
H116   H     0.22298   0.65909   0.89147   0.00000  Uiso   1.00
H117   H     0.01683   0.58664   0.59460   0.00000  Uiso   1.00
H118   H     0.23215   0.80686   0.99666   0.00000  Uiso   1.00
H119   H     0.41857   0.56854   0.10133   0.00000  Uiso   1.00
H120   H     0.79051   0.53043   0.23688   0.00000  Uiso   1.00
H121   H     0.24455   0.99479   0.08470   0.00000  Uiso   1.00
H122   H     0.63767   0.49222   0.30544   0.00000  Uiso   1.00
H123   H     0.24036   0.84471   0.67131   0.00000  Uiso   1.00
H124   H     0.03515   0.78244   0.36235   0.00000  Uiso   1.00
H125   H     0.25047   0.00267   0.76442   0.00000  Uiso   1.00
H126   H     0.43689   0.76434   0.86909   0.00000  Uiso   1.00
H127   H     0.80537   0.68935   0.04838   0.00000  Uiso   1.00
H128   H     0.25943   0.15371   0.89621   0.00000  Uiso   1.00
H129   H     0.65254   0.65115   0.11694   0.00000  Uiso   1.00
O130   O     0.66262   0.56560   0.94335   0.00000  Uiso   1.00
O131   O     0.25833   0.17482   0.05568   0.00000  Uiso   1.00
O132   O     0.77409   0.51547   0.34528   0.00000  Uiso   1.00
N133   N     0.82218   0.57636   0.23492   0.00000  Uiso   1.00
N134   N     0.24666   0.01051   0.02756   0.00000  Uiso   1.00
N135   N     0.61422   0.54067   0.23397   0.00000  Uiso   1.00
N136   N     0.83018   0.66188   0.13349   0.00000  Uiso   1.00
N137   N     0.25466   0.09602   0.92613   0.00000  Uiso   1.00
N138   N     0.62222   0.62619   0.13254   0.00000  Uiso   1.00
C139   C     0.77304   0.70161   0.65898   0.00000  Uiso   1.00
C140   C     0.88263   0.68798   0.85080   0.00000  Uiso   1.00
C141   C     0.97924   0.62889   0.95559   0.00000  Uiso   1.00
C142   C     0.07068   0.62636   0.12767   0.00000  Uiso   1.00
C143   C     0.24165   0.59692   0.41568   0.00000  Uiso   1.00
C144   C     0.76566   0.80764   0.63237   0.00000  Uiso   1.00
C145   C     0.76391   0.84916   0.55348   0.00000  Uiso   1.00
C146   C     0.75686   0.94735   0.54167   0.00000  Uiso   1.00
C147   C     0.74615   0.10368   0.49045   0.00000  Uiso   1.00
C148   C     0.66438   0.67814   0.57550   0.00000  Uiso   1.00
C149   C     0.57744   0.61079   0.44877   0.00000  Uiso   1.00
C150   C     0.48511   0.59998   0.38906   0.00000  Uiso   1.00
C151   C     0.31714   0.55524   0.24955   0.00000  Uiso   1.00
C152   C     0.76362   0.80218   0.77825   0.00000  Uiso   1.00
C153   C     0.87752   0.74261   0.91558   0.00000  Uiso   1.00
C154   C     0.96883   0.74016   0.08755   0.00000  Uiso   1.00
C155   C     0.06556   0.68108   0.19258   0.00000  Uiso   1.00
C156   C     0.76055   0.86226   0.69715   0.00000  Uiso   1.00
C157   C     0.75349   0.96042   0.68544   0.00000  Uiso   1.00
C158   C     0.75174   0.00208   0.60657   0.00000  Uiso   1.00
C159   C     0.65926   0.73276   0.64029   0.00000  Uiso   1.00
C160   C     0.56704   0.72206   0.58075   0.00000  Uiso   1.00
C161   C     0.47998   0.65470   0.45395   0.00000  Uiso   1.00
H162   H     0.77702   0.65909   0.60853   0.00000  Uiso   1.00
H163   H     0.98317   0.58664   0.90540   0.00000  Uiso   1.00
H164   H     0.76785   0.80686   0.50334   0.00000  Uiso   1.00
H165   H     0.58143   0.56854   0.39867   0.00000  Uiso   1.00
H166   H     0.20949   0.53043   0.26312   0.00000  Uiso   1.00
H167   H     0.75545   0.99479   0.41530   0.00000  Uiso   1.00
H168   H     0.36233   0.49222   0.19456   0.00000  Uiso   1.00
H169   H     0.75964   0.84471   0.82869   0.00000  Uiso   1.00
H170   H     0.96485   0.78244   0.13765   0.00000  Uiso   1.00
H171   H     0.74953   0.00267   0.73558   0.00000  Uiso   1.00
H172   H     0.56311   0.76434   0.63091   0.00000  Uiso   1.00
H173   H     0.19463   0.68935   0.45162   0.00000  Uiso   1.00
H174   H     0.74057   0.15371   0.60379   0.00000  Uiso   1.00
H175   H     0.34746   0.65115   0.38306   0.00000  Uiso   1.00
O176   O     0.33738   0.56560   0.55665   0.00000  Uiso   1.00
O177   O     0.74167   0.17482   0.44432   0.00000  Uiso   1.00
O178   O     0.22591   0.51547   0.15472   0.00000  Uiso   1.00
N179   N     0.17782   0.57636   0.26508   0.00000  Uiso   1.00
N180   N     0.75334   0.01051   0.47244   0.00000  Uiso   1.00
N181   N     0.38578   0.54067   0.26603   0.00000  Uiso   1.00
N182   N     0.16982   0.66188   0.36651   0.00000  Uiso   1.00
N183   N     0.74534   0.09602   0.57387   0.00000  Uiso   1.00
N184   N     0.37778   0.62619   0.36746   0.00000  Uiso   1.00
