data_job_05060
_audit_creation_date              2018-12-19
_audit_creation_method            'Materials Studio'
_symmetry_space_group_name_H-M    'P1'
_symmetry_Int_Tables_number       1
_symmetry_cell_setting            triclinic
loop_
_symmetry_equiv_pos_as_xyz
  x,y,z
_cell_length_a                    11.5544
_cell_length_b                    12.1523
_cell_length_c                    23.4130
_cell_angle_alpha                 90.0000
_cell_angle_beta                  121.7194
_cell_angle_gamma                 90.0000
loop_
_atom_site_label
_atom_site_type_symbol
_atom_site_fract_x
_atom_site_fract_y
_atom_site_fract_z
_atom_site_U_iso_or_equiv
_atom_site_adp_type
_atom_site_occupancy
C1     C     0.22230   0.20616   0.23131   0.00000  Uiso   1.00
C2     C     0.07234   0.21618   0.17653   0.00000  Uiso   1.00
C3     C     0.96411   0.17309   0.17925   0.00000  Uiso   1.00
C4     C     0.83452   0.19116   0.12398   0.00000  Uiso   1.00
C5     C     0.60478   0.19769   0.04741   0.00000  Uiso   1.00
C6     C     0.29206   0.15330   0.19811   0.00000  Uiso   1.00
C7     C     0.36859   0.05734   0.21899   0.00000  Uiso   1.00
C8     C     0.42396   0.02249   0.18189   0.00000  Uiso   1.00
C9     C     0.53543   0.93144   0.13886   0.00000  Uiso   1.00
C10    C     0.27667   0.32351   0.24871   0.00000  Uiso   1.00
C11    C     0.34029   0.37067   0.31213   0.00000  Uiso   1.00
C12    C     0.38274   0.47913   0.31763   0.00000  Uiso   1.00
C13    C     0.47032   0.65235   0.35316   0.00000  Uiso   1.00
C14    C     0.18460   0.31491   0.12831   0.00000  Uiso   1.00
C15    C     0.05186   0.27525   0.12058   0.00000  Uiso   1.00
C16    C     0.92239   0.29340   0.06529   0.00000  Uiso   1.00
C17    C     0.81400   0.25034   0.06793   0.00000  Uiso   1.00
C18    C     0.27158   0.21236   0.14217   0.00000  Uiso   1.00
C19    C     0.32687   0.17765   0.10503   0.00000  Uiso   1.00
C20    C     0.40345   0.08166   0.12584   0.00000  Uiso   1.00
C21    C     0.25619   0.38258   0.19276   0.00000  Uiso   1.00
C22    C     0.29856   0.49098   0.19817   0.00000  Uiso   1.00
C23    C     0.36223   0.53830   0.26158   0.00000  Uiso   1.00
H24    H     0.23825   0.16018   0.27487   0.00000  Uiso   1.00
H25    H     0.98001   0.12737   0.22256   0.00000  Uiso   1.00
H26    H     0.38443   0.01166   0.26230   0.00000  Uiso   1.00
H27    H     0.35612   0.32494   0.35542   0.00000  Uiso   1.00
H28    H     0.68466   0.11702   0.13987   0.00000  Uiso   1.00
H29    H     0.53744   0.87304   0.22368   0.00000  Uiso   1.00
H30    H     0.47777   0.53366   0.42005   0.00000  Uiso   1.00
H31    H     0.16865   0.36089   0.08475   0.00000  Uiso   1.00
H32    H     0.90658   0.33911   0.02200   0.00000  Uiso   1.00
H33    H     0.31100   0.22338   0.06174   0.00000  Uiso   1.00
H34    H     0.28270   0.53667   0.15486   0.00000  Uiso   1.00
H35    H     0.62507   0.28887   0.97709   0.00000  Uiso   1.00
H36    H     0.47786   0.04489   0.06089   0.00000  Uiso   1.00
H37    H     0.41818   0.70550   0.25726   0.00000  Uiso   1.00
O38    O     0.48372   0.18496   0.02062   0.00000  Uiso   1.00
O39    O     0.60256   0.86488   0.13058   0.00000  Uiso   1.00
O40    O     0.52426   0.73159   0.38821   0.00000  Uiso   1.00
N41    N     0.70660   0.16047   0.11018   0.00000  Uiso   1.00
N42    N     0.50388   0.93236   0.18852   0.00000  Uiso   1.00
N43    N     0.44813   0.54997   0.37212   0.00000  Uiso   1.00
N44    N     0.67453   0.25294   0.02258   0.00000  Uiso   1.00
N45    N     0.47181   0.02483   0.10093   0.00000  Uiso   1.00
N46    N     0.41606   0.64244   0.28453   0.00000  Uiso   1.00
C47    C     0.05720   0.84489   0.10339   0.00000  Uiso   1.00
C48    C     0.11243   0.76752   0.07199   0.00000  Uiso   1.00
C49    C     0.21778   0.79093   0.06178   0.00000  Uiso   1.00
C50    C     0.25322   0.70922   0.03229   0.00000  Uiso   1.00
C51    C     0.34921   0.60453   0.98632   0.00000  Uiso   1.00
C52    C     0.90536   0.85645   0.05203   0.00000  Uiso   1.00
C53    C     0.83661   0.95463   0.02505   0.00000  Uiso   1.00
C54    C     0.69772   0.94778   0.97878   0.00000  Uiso   1.00
C55    C     0.47222   0.98117   0.90186   0.00000  Uiso   1.00
C56    C     0.06855   0.78272   0.16271   0.00000  Uiso   1.00
C57    C     0.13698   0.81893   0.22879   0.00000  Uiso   1.00
C58    C     0.13546   0.75002   0.27570   0.00000  Uiso   1.00
C59    C     0.16333   0.66894   0.37063   0.00000  Uiso   1.00
C60    C     0.93280   0.65813   0.06919   0.00000  Uiso   1.00
C61    C     0.04486   0.66608   0.05341   0.00000  Uiso   1.00
C62    C     0.08015   0.58431   0.02393   0.00000  Uiso   1.00
C63    C     0.18553   0.60759   0.01368   0.00000  Uiso   1.00
C64    C     0.83779   0.75501   0.03345   0.00000  Uiso   1.00
C65    C     0.69897   0.74801   0.98721   0.00000  Uiso   1.00
C66    C     0.63003   0.84616   0.96016   0.00000  Uiso   1.00
C67    C     0.00098   0.68128   0.14413   0.00000  Uiso   1.00
C68    C     0.99935   0.61231   0.19094   0.00000  Uiso   1.00
C69    C     0.06777   0.64840   0.25708   0.00000  Uiso   1.00
H70    H     0.10980   0.92386   0.11786   0.00000  Uiso   1.00
H71    H     0.27004   0.86944   0.07615   0.00000  Uiso   1.00
H72    H     0.88892   0.03312   0.03945   0.00000  Uiso   1.00
H73    H     0.18926   0.89743   0.24315   0.00000  Uiso   1.00
H74    H     0.41787   0.76439   0.02170   0.00000  Uiso   1.00
H75    H     0.61425   0.10951   0.94432   0.00000  Uiso   1.00
H76    H     0.24756   0.82340   0.37387   0.00000  Uiso   1.00
H77    H     0.88019   0.57916   0.05472   0.00000  Uiso   1.00
H78    H     0.02784   0.50582   0.00956   0.00000  Uiso   1.00
H79    H     0.64671   0.66950   0.97285   0.00000  Uiso   1.00
H80    H     0.94705   0.53382   0.17655   0.00000  Uiso   1.00
H81    H     0.22128   0.46926   0.96765   0.00000  Uiso   1.00
H82    H     0.41766   0.81439   0.89026   0.00000  Uiso   1.00
H83    H     0.05097   0.52827   0.31981   0.00000  Uiso   1.00
O84    O     0.42081   0.57481   0.96608   0.00000  Uiso   1.00
O85    O     0.36650   0.02761   0.86457   0.00000  Uiso   1.00
O86    O     0.19739   0.65223   0.42813   0.00000  Uiso   1.00
N87    N     0.35136   0.70499   0.01519   0.00000  Uiso   1.00
N88    N     0.60003   0.02766   0.94283   0.00000  Uiso   1.00
N89    N     0.19208   0.76018   0.34443   0.00000  Uiso   1.00
N90    N     0.24558   0.54618   0.98611   0.00000  Uiso   1.00
N91    N     0.49425   0.86885   0.91375   0.00000  Uiso   1.00
N92    N     0.08630   0.60137   0.31534   0.00000  Uiso   1.00
C93    C     0.22230   0.79384   0.73131   0.00000  Uiso   1.00
C94    C     0.07234   0.78382   0.67653   0.00000  Uiso   1.00
C95    C     0.96411   0.82691   0.67925   0.00000  Uiso   1.00
C96    C     0.83452   0.80884   0.62398   0.00000  Uiso   1.00
C97    C     0.60478   0.80231   0.54741   0.00000  Uiso   1.00
C98    C     0.29206   0.84670   0.69811   0.00000  Uiso   1.00
C99    C     0.36859   0.94266   0.71899   0.00000  Uiso   1.00
C100   C     0.42396   0.97751   0.68189   0.00000  Uiso   1.00
C101   C     0.53543   0.06856   0.63886   0.00000  Uiso   1.00
C102   C     0.27667   0.67649   0.74871   0.00000  Uiso   1.00
C103   C     0.34029   0.62933   0.81213   0.00000  Uiso   1.00
C104   C     0.38274   0.52087   0.81763   0.00000  Uiso   1.00
C105   C     0.47032   0.34765   0.85316   0.00000  Uiso   1.00
C106   C     0.18460   0.68509   0.62831   0.00000  Uiso   1.00
C107   C     0.05186   0.72475   0.62058   0.00000  Uiso   1.00
C108   C     0.92239   0.70660   0.56529   0.00000  Uiso   1.00
C109   C     0.81400   0.74966   0.56793   0.00000  Uiso   1.00
C110   C     0.27158   0.78764   0.64217   0.00000  Uiso   1.00
C111   C     0.32687   0.82235   0.60503   0.00000  Uiso   1.00
C112   C     0.40345   0.91834   0.62584   0.00000  Uiso   1.00
C113   C     0.25619   0.61742   0.69276   0.00000  Uiso   1.00
C114   C     0.29856   0.50902   0.69817   0.00000  Uiso   1.00
C115   C     0.36223   0.46170   0.76158   0.00000  Uiso   1.00
H116   H     0.23825   0.83982   0.77487   0.00000  Uiso   1.00
H117   H     0.98001   0.87263   0.72256   0.00000  Uiso   1.00
H118   H     0.38443   0.98834   0.76230   0.00000  Uiso   1.00
H119   H     0.35612   0.67506   0.85542   0.00000  Uiso   1.00
H120   H     0.68466   0.88298   0.63987   0.00000  Uiso   1.00
H121   H     0.53744   0.12696   0.72368   0.00000  Uiso   1.00
H122   H     0.47777   0.46634   0.92005   0.00000  Uiso   1.00
H123   H     0.16865   0.63911   0.58475   0.00000  Uiso   1.00
H124   H     0.90658   0.66089   0.52200   0.00000  Uiso   1.00
H125   H     0.31100   0.77662   0.56174   0.00000  Uiso   1.00
H126   H     0.28270   0.46333   0.65486   0.00000  Uiso   1.00
H127   H     0.62507   0.71113   0.47709   0.00000  Uiso   1.00
H128   H     0.47786   0.95511   0.56089   0.00000  Uiso   1.00
H129   H     0.41818   0.29450   0.75726   0.00000  Uiso   1.00
O130   O     0.48372   0.81504   0.52062   0.00000  Uiso   1.00
O131   O     0.60256   0.13512   0.63058   0.00000  Uiso   1.00
O132   O     0.52426   0.26841   0.88821   0.00000  Uiso   1.00
N133   N     0.70660   0.83953   0.61018   0.00000  Uiso   1.00
N134   N     0.50388   0.06764   0.68852   0.00000  Uiso   1.00
N135   N     0.44813   0.45003   0.87212   0.00000  Uiso   1.00
N136   N     0.67453   0.74706   0.52258   0.00000  Uiso   1.00
N137   N     0.47181   0.97517   0.60093   0.00000  Uiso   1.00
N138   N     0.41606   0.35756   0.78453   0.00000  Uiso   1.00
C139   C     0.05720   0.15511   0.60339   0.00000  Uiso   1.00
C140   C     0.11243   0.23248   0.57199   0.00000  Uiso   1.00
C141   C     0.21778   0.20907   0.56178   0.00000  Uiso   1.00
C142   C     0.25322   0.29078   0.53229   0.00000  Uiso   1.00
C143   C     0.34921   0.39547   0.48632   0.00000  Uiso   1.00
C144   C     0.90536   0.14355   0.55203   0.00000  Uiso   1.00
C145   C     0.83661   0.04537   0.52505   0.00000  Uiso   1.00
C146   C     0.69772   0.05222   0.47878   0.00000  Uiso   1.00
C147   C     0.47222   0.01883   0.40186   0.00000  Uiso   1.00
C148   C     0.06855   0.21728   0.66271   0.00000  Uiso   1.00
C149   C     0.13698   0.18107   0.72879   0.00000  Uiso   1.00
C150   C     0.13546   0.24998   0.77570   0.00000  Uiso   1.00
C151   C     0.16333   0.33106   0.87063   0.00000  Uiso   1.00
C152   C     0.93280   0.34187   0.56919   0.00000  Uiso   1.00
C153   C     0.04486   0.33392   0.55341   0.00000  Uiso   1.00
C154   C     0.08015   0.41569   0.52393   0.00000  Uiso   1.00
C155   C     0.18553   0.39241   0.51368   0.00000  Uiso   1.00
C156   C     0.83779   0.24499   0.53345   0.00000  Uiso   1.00
C157   C     0.69897   0.25199   0.48721   0.00000  Uiso   1.00
C158   C     0.63003   0.15384   0.46016   0.00000  Uiso   1.00
C159   C     0.00098   0.31872   0.64413   0.00000  Uiso   1.00
C160   C     0.99935   0.38769   0.69094   0.00000  Uiso   1.00
C161   C     0.06777   0.35160   0.75708   0.00000  Uiso   1.00
H162   H     0.10980   0.07614   0.61786   0.00000  Uiso   1.00
H163   H     0.27004   0.13056   0.57615   0.00000  Uiso   1.00
H164   H     0.88892   0.96688   0.53945   0.00000  Uiso   1.00
H165   H     0.18926   0.10257   0.74315   0.00000  Uiso   1.00
H166   H     0.41787   0.23561   0.52170   0.00000  Uiso   1.00
H167   H     0.61425   0.89049   0.44432   0.00000  Uiso   1.00
H168   H     0.24756   0.17660   0.87387   0.00000  Uiso   1.00
H169   H     0.88019   0.42084   0.55472   0.00000  Uiso   1.00
H170   H     0.02784   0.49418   0.50956   0.00000  Uiso   1.00
H171   H     0.64671   0.33050   0.47285   0.00000  Uiso   1.00
H172   H     0.94705   0.46618   0.67655   0.00000  Uiso   1.00
H173   H     0.22128   0.53074   0.46765   0.00000  Uiso   1.00
H174   H     0.41766   0.18561   0.39026   0.00000  Uiso   1.00
H175   H     0.05097   0.47173   0.81981   0.00000  Uiso   1.00
O176   O     0.42081   0.42519   0.46608   0.00000  Uiso   1.00
O177   O     0.36650   0.97239   0.36457   0.00000  Uiso   1.00
O178   O     0.19739   0.34777   0.92813   0.00000  Uiso   1.00
N179   N     0.35136   0.29501   0.51519   0.00000  Uiso   1.00
N180   N     0.60003   0.97234   0.44283   0.00000  Uiso   1.00
N181   N     0.19208   0.23982   0.84443   0.00000  Uiso   1.00
N182   N     0.24558   0.45382   0.48611   0.00000  Uiso   1.00
N183   N     0.49425   0.13115   0.41375   0.00000  Uiso   1.00
N184   N     0.08630   0.39863   0.81534   0.00000  Uiso   1.00
