data_job_06647
_audit_creation_date              2018-12-19
_audit_creation_method            'Materials Studio'
_symmetry_space_group_name_H-M    'P1'
_symmetry_Int_Tables_number       1
_symmetry_cell_setting            triclinic
loop_
_symmetry_equiv_pos_as_xyz
  x,y,z
_cell_length_a                    21.2152
_cell_length_b                    20.9460
_cell_length_c                    20.7450
_cell_angle_alpha                 67.4407
_cell_angle_beta                  63.8313
_cell_angle_gamma                 67.6700
loop_
_atom_site_label
_atom_site_type_symbol
_atom_site_fract_x
_atom_site_fract_y
_atom_site_fract_z
_atom_site_U_iso_or_equiv
_atom_site_adp_type
_atom_site_occupancy
C1     C     0.82960   0.08511   0.54152   0.00000  Uiso   1.00
C2     C     0.75364   0.13428   0.56484   0.00000  Uiso   1.00
C3     C     0.69286   0.13131   0.55766   0.00000  Uiso   1.00
C4     C     0.62833   0.18101   0.58229   0.00000  Uiso   1.00
C5     C     0.51092   0.24965   0.61379   0.00000  Uiso   1.00
C6     C     0.87972   0.13390   0.48761   0.00000  Uiso   1.00
C7     C     0.92496   0.13061   0.41550   0.00000  Uiso   1.00
C8     C     0.96656   0.17999   0.37513   0.00000  Uiso   1.00
C9     C     0.04494   0.24801   0.28676   0.00000  Uiso   1.00
C10    C     0.85098   0.05127   0.61085   0.00000  Uiso   1.00
C11    C     0.87208   0.97850   0.64235   0.00000  Uiso   1.00
C12    C     0.88951   0.95832   0.70573   0.00000  Uiso   1.00
C13    C     0.92327   0.89805   0.80869   0.00000  Uiso   1.00
C14    C     0.82306   0.17867   0.59805   0.00000  Uiso   1.00
C15    C     0.75009   0.18509   0.59554   0.00000  Uiso   1.00
C16    C     0.68562   0.23482   0.62020   0.00000  Uiso   1.00
C17    C     0.62477   0.23192   0.61305   0.00000  Uiso   1.00
C18    C     0.87617   0.18472   0.51831   0.00000  Uiso   1.00
C19    C     0.91772   0.23412   0.47804   0.00000  Uiso   1.00
C20    C     0.96301   0.23090   0.40589   0.00000  Uiso   1.00
C21    C     0.84743   0.10209   0.64155   0.00000  Uiso   1.00
C22    C     0.86484   0.08202   0.70489   0.00000  Uiso   1.00
C23    C     0.88595   0.00923   0.73649   0.00000  Uiso   1.00
H24    H     0.83237   0.04555   0.51761   0.00000  Uiso   1.00
H25    H     0.69564   0.09197   0.53388   0.00000  Uiso   1.00
H26    H     0.92770   0.09127   0.39176   0.00000  Uiso   1.00
H27    H     0.87482   0.93919   0.61857   0.00000  Uiso   1.00
H28    H     0.54247   0.16587   0.56544   0.00000  Uiso   1.00
H29    H     0.03181   0.16437   0.26577   0.00000  Uiso   1.00
H30    H     0.92032   0.84369   0.74405   0.00000  Uiso   1.00
H31    H     0.82030   0.21823   0.62195   0.00000  Uiso   1.00
H32    H     0.68289   0.27414   0.64395   0.00000  Uiso   1.00
H33    H     0.91496   0.27343   0.50182   0.00000  Uiso   1.00
H34    H     0.86208   0.12135   0.72863   0.00000  Uiso   1.00
H35    H     0.53213   0.31372   0.65477   0.00000  Uiso   1.00
H36    H     0.02148   0.31222   0.35510   0.00000  Uiso   1.00
H37    H     0.90998   0.99154   0.83338   0.00000  Uiso   1.00
O38    O     0.44714   0.27347   0.62267   0.00000  Uiso   1.00
O39    O     0.08914   0.27149   0.22952   0.00000  Uiso   1.00
O40    O     0.94286   0.85076   0.85701   0.00000  Uiso   1.00
N41    N     0.55889   0.19299   0.58346   0.00000  Uiso   1.00
N42    N     0.01639   0.19160   0.30328   0.00000  Uiso   1.00
N43    N     0.91217   0.89178   0.75042   0.00000  Uiso   1.00
N44    N     0.55333   0.27255   0.63153   0.00000  Uiso   1.00
N45    N     0.01082   0.27115   0.35135   0.00000  Uiso   1.00
N46    N     0.90660   0.97133   0.79849   0.00000  Uiso   1.00
C47    C     0.43937   0.85616   0.17395   0.00000  Uiso   1.00
C48    C     0.46038   0.77764   0.21463   0.00000  Uiso   1.00
C49    C     0.44156   0.72228   0.21202   0.00000  Uiso   1.00
C50    C     0.46607   0.65418   0.25318   0.00000  Uiso   1.00
C51    C     0.49230   0.53413   0.30995   0.00000  Uiso   1.00
C52    C     0.40009   0.89713   0.23362   0.00000  Uiso   1.00
C53    C     0.33058   0.94225   0.24697   0.00000  Uiso   1.00
C54    C     0.30434   0.97475   0.30412   0.00000  Uiso   1.00
C55    C     0.23699   0.04026   0.39034   0.00000  Uiso   1.00
C56    C     0.51041   0.87828   0.12687   0.00000  Uiso   1.00
C57    C     0.53365   0.90756   0.05047   0.00000  Uiso   1.00
C58    C     0.60030   0.92421   0.01774   0.00000  Uiso   1.00
C59    C     0.70424   0.96044   0.93822   0.00000  Uiso   1.00
C60    C     0.51638   0.83366   0.25168   0.00000  Uiso   1.00
C61    C     0.50221   0.76542   0.25685   0.00000  Uiso   1.00
C62    C     0.52676   0.69739   0.29802   0.00000  Uiso   1.00
C63    C     0.50798   0.64194   0.29547   0.00000  Uiso   1.00
C64    C     0.44191   0.88492   0.27584   0.00000  Uiso   1.00
C65    C     0.41578   0.91736   0.33297   0.00000  Uiso   1.00
C66    C     0.34625   0.96251   0.34641   0.00000  Uiso   1.00
C67    C     0.55224   0.86606   0.16909   0.00000  Uiso   1.00
C68    C     0.61886   0.88267   0.13647   0.00000  Uiso   1.00
C69    C     0.64221   0.91197   0.06004   0.00000  Uiso   1.00
H70    H     0.40680   0.86567   0.14108   0.00000  Uiso   1.00
H71    H     0.40918   0.73176   0.17934   0.00000  Uiso   1.00
H72    H     0.29822   0.95170   0.21429   0.00000  Uiso   1.00
H73    H     0.50127   0.91701   0.01782   0.00000  Uiso   1.00
H74    H     0.43024   0.57791   0.24041   0.00000  Uiso   1.00
H75    H     0.19629   0.04169   0.31407   0.00000  Uiso   1.00
H76    H     0.62446   0.96854   0.89977   0.00000  Uiso   1.00
H77    H     0.54895   0.82415   0.28455   0.00000  Uiso   1.00
H78    H     0.55913   0.68795   0.33069   0.00000  Uiso   1.00
H79    H     0.44817   0.90789   0.36563   0.00000  Uiso   1.00
H80    H     0.65122   0.87320   0.16916   0.00000  Uiso   1.00
H81    H     0.55195   0.54235   0.36325   0.00000  Uiso   1.00
H82    H     0.31799   0.00614   0.43691   0.00000  Uiso   1.00
H83    H     0.74616   0.93298   0.02261   0.00000  Uiso   1.00
O84    O     0.49521   0.47129   0.32961   0.00000  Uiso   1.00
O85    O     0.18827   0.07976   0.42624   0.00000  Uiso   1.00
O86    O     0.75002   0.98379   0.88269   0.00000  Uiso   1.00
N87    N     0.45750   0.58823   0.26297   0.00000  Uiso   1.00
N88    N     0.23876   0.02183   0.33185   0.00000  Uiso   1.00
N89    N     0.63905   0.95346   0.94452   0.00000  Uiso   1.00
N90    N     0.52299   0.56910   0.32907   0.00000  Uiso   1.00
N91    N     0.30425   0.00269   0.39795   0.00000  Uiso   1.00
N92    N     0.70454   0.93432   0.01062   0.00000  Uiso   1.00
C93    C     0.11077   0.46478   0.90672   0.00000  Uiso   1.00
C94    C     0.14065   0.47969   0.82217   0.00000  Uiso   1.00
C95    C     0.13678   0.44275   0.78154   0.00000  Uiso   1.00
C96    C     0.16739   0.46458   0.70464   0.00000  Uiso   1.00
C97    C     0.20877   0.47909   0.57867   0.00000  Uiso   1.00
C98    C     0.17468   0.45135   0.92977   0.00000  Uiso   1.00
C99    C     0.19941   0.39057   0.97962   0.00000  Uiso   1.00
C100   C     0.25866   0.38855   0.99332   0.00000  Uiso   1.00
C101   C     0.35284   0.35907   0.03444   0.00000  Uiso   1.00
C102   C     0.05894   0.53487   0.92416   0.00000  Uiso   1.00
C103   C     0.98636   0.54432   0.96930   0.00000  Uiso   1.00
C104   C     0.94816   0.61260   0.97828   0.00000  Uiso   1.00
C105   C     0.86263   0.71280   0.01069   0.00000  Uiso   1.00
C106   C     0.17201   0.56924   0.84242   0.00000  Uiso   1.00
C107   C     0.17392   0.53644   0.78724   0.00000  Uiso   1.00
C108   C     0.20454   0.55833   0.71039   0.00000  Uiso   1.00
C109   C     0.20072   0.52142   0.66965   0.00000  Uiso   1.00
C110   C     0.20795   0.50809   0.89485   0.00000  Uiso   1.00
C111   C     0.26717   0.50615   0.90848   0.00000  Uiso   1.00
C112   C     0.29199   0.44539   0.95833   0.00000  Uiso   1.00
C113   C     0.09220   0.59161   0.88923   0.00000  Uiso   1.00
C114   C     0.05412   0.65990   0.89815   0.00000  Uiso   1.00
C115   C     0.98149   0.66945   0.94329   0.00000  Uiso   1.00
H116   H     0.08487   0.42060   0.93392   0.00000  Uiso   1.00
H117   H     0.11104   0.39884   0.80859   0.00000  Uiso   1.00
H118   H     0.17365   0.34668   0.00665   0.00000  Uiso   1.00
H119   H     0.96063   0.50039   0.99632   0.00000  Uiso   1.00
H120   H     0.15475   0.39972   0.65424   0.00000  Uiso   1.00
H121   H     0.28676   0.28974   0.07187   0.00000  Uiso   1.00
H122   H     0.83756   0.61388   0.05010   0.00000  Uiso   1.00
H123   H     0.19791   0.61342   0.81522   0.00000  Uiso   1.00
H124   H     0.23028   0.60224   0.68338   0.00000  Uiso   1.00
H125   H     0.29290   0.55008   0.88144   0.00000  Uiso   1.00
H126   H     0.07988   0.70379   0.87111   0.00000  Uiso   1.00
H127   H     0.25153   0.56480   0.55261   0.00000  Uiso   1.00
H128   H     0.38354   0.45483   0.97025   0.00000  Uiso   1.00
H129   H     0.93434   0.77897   0.94848   0.00000  Uiso   1.00
O130   O     0.22242   0.47141   0.51883   0.00000  Uiso   1.00
O131   O     0.39560   0.32714   0.06677   0.00000  Uiso   1.00
O132   O     0.80626   0.75240   0.03820   0.00000  Uiso   1.00
N133   N     0.17307   0.44011   0.64841   0.00000  Uiso   1.00
N134   N     0.29650   0.33729   0.03887   0.00000  Uiso   1.00
N135   N     0.87654   0.64033   0.01853   0.00000  Uiso   1.00
N136   N     0.22515   0.52895   0.59373   0.00000  Uiso   1.00
N137   N     0.34858   0.42612   0.98419   0.00000  Uiso   1.00
N138   N     0.92862   0.72916   0.96385   0.00000  Uiso   1.00
C139   C     0.32413   0.93995   0.72154   0.00000  Uiso   1.00
C140   C     0.24406   0.96472   0.76630   0.00000  Uiso   1.00
C141   C     0.18697   0.94846   0.76524   0.00000  Uiso   1.00
C142   C     0.11765   0.97626   0.81018   0.00000  Uiso   1.00
C143   C     0.99512   0.00823   0.87296   0.00000  Uiso   1.00
C144   C     0.36294   0.90112   0.77806   0.00000  Uiso   1.00
C145   C     0.40582   0.83139   0.78688   0.00000  Uiso   1.00
C146   C     0.43657   0.80566   0.84172   0.00000  Uiso   1.00
C147   C     0.49865   0.73890   0.92272   0.00000  Uiso   1.00
C148   C     0.35058   0.00764   0.67627   0.00000  Uiso   1.00
C149   C     0.38308   0.02746   0.59949   0.00000  Uiso   1.00
C150   C     0.40344   0.09140   0.56862   0.00000  Uiso   1.00
C151   C     0.44632   0.19003   0.49156   0.00000  Uiso   1.00
C152   C     0.30253   0.01822   0.80325   0.00000  Uiso   1.00
C153   C     0.23233   0.00723   0.81068   0.00000  Uiso   1.00
C154   C     0.16308   0.03507   0.85564   0.00000  Uiso   1.00
C155   C     0.10590   0.01886   0.85464   0.00000  Uiso   1.00
C156   C     0.35121   0.94363   0.82244   0.00000  Uiso   1.00
C157   C     0.38192   0.91799   0.87728   0.00000  Uiso   1.00
C158   C     0.42482   0.84825   0.88619   0.00000  Uiso   1.00
C159   C     0.33885   0.05015   0.72064   0.00000  Uiso   1.00
C160   C     0.35918   0.11407   0.68989   0.00000  Uiso   1.00
C161   C     0.39169   0.13399   0.61308   0.00000  Uiso   1.00
H162   H     0.33326   0.90684   0.68699   0.00000  Uiso   1.00
H163   H     0.19607   0.91555   0.73089   0.00000  Uiso   1.00
H164   H     0.41489   0.79851   0.75253   0.00000  Uiso   1.00
H165   H     0.39214   0.99455   0.56516   0.00000  Uiso   1.00
H166   H     0.03881   0.94394   0.79915   0.00000  Uiso   1.00
H167   H     0.50020   0.69715   0.84475   0.00000  Uiso   1.00
H168   H     0.45225   0.11054   0.44966   0.00000  Uiso   1.00
H169   H     0.29340   0.05132   0.83781   0.00000  Uiso   1.00
H170   H     0.15402   0.06796   0.88998   0.00000  Uiso   1.00
H171   H     0.37283   0.95091   0.91161   0.00000  Uiso   1.00
H172   H     0.35009   0.14695   0.72425   0.00000  Uiso   1.00
H173   H     0.00467   0.06764   0.92828   0.00000  Uiso   1.00
H174   H     0.46608   0.82084   0.97387   0.00000  Uiso   1.00
H175   H     0.41812   0.23423   0.57879   0.00000  Uiso   1.00
O176   O     0.93077   0.01411   0.89533   0.00000  Uiso   1.00
O177   O     0.53612   0.69033   0.95515   0.00000  Uiso   1.00
O178   O     0.47320   0.23269   0.43680   0.00000  Uiso   1.00
N179   N     0.04990   0.97078   0.82237   0.00000  Uiso   1.00
N180   N     0.48127   0.74004   0.86501   0.00000  Uiso   1.00
N181   N     0.43645   0.12651   0.49564   0.00000  Uiso   1.00
N182   N     0.03153   0.03734   0.89185   0.00000  Uiso   1.00
N183   N     0.46290   0.80660   0.93449   0.00000  Uiso   1.00
N184   N     0.41809   0.19308   0.56512   0.00000  Uiso   1.00
C185   C     0.97196   0.57382   0.34689   0.00000  Uiso   1.00
C186   C     0.00051   0.62653   0.27303   0.00000  Uiso   1.00
C187   C     0.98903   0.63844   0.20802   0.00000  Uiso   1.00
C188   C     0.01971   0.68891   0.14638   0.00000  Uiso   1.00
C189   C     0.05783   0.76514   0.03120   0.00000  Uiso   1.00
C190   C     0.92835   0.61742   0.40421   0.00000  Uiso   1.00
C191   C     0.85619   0.62166   0.44951   0.00000  Uiso   1.00
C192   C     0.82613   0.66446   0.49832   0.00000  Uiso   1.00
C193   C     0.75223   0.72649   0.58685   0.00000  Uiso   1.00
C194   C     0.03834   0.52440   0.36764   0.00000  Uiso   1.00
C195   C     0.05866   0.45043   0.38220   0.00000  Uiso   1.00
C196   C     0.12120   0.41490   0.40023   0.00000  Uiso   1.00
C197   C     0.21808   0.33251   0.43197   0.00000  Uiso   1.00
C198   C     0.04687   0.64226   0.35304   0.00000  Uiso   1.00
C199   C     0.04120   0.66371   0.27637   0.00000  Uiso   1.00
C200   C     0.07191   0.71417   0.21482   0.00000  Uiso   1.00
C201   C     0.06048   0.72615   0.14973   0.00000  Uiso   1.00
C202   C     0.96903   0.65460   0.40756   0.00000  Uiso   1.00
C203   C     0.93907   0.69739   0.45632   0.00000  Uiso   1.00
C204   C     0.86689   0.70170   0.50167   0.00000  Uiso   1.00
C205   C     0.07903   0.56157   0.37098   0.00000  Uiso   1.00
C206   C     0.14155   0.52615   0.38900   0.00000  Uiso   1.00
C207   C     0.16196   0.45214   0.40358   0.00000  Uiso   1.00
H208   H     0.94028   0.54488   0.34429   0.00000  Uiso   1.00
H209   H     0.95753   0.60967   0.20545   0.00000  Uiso   1.00
H210   H     0.82472   0.59288   0.44692   0.00000  Uiso   1.00
H211   H     0.02716   0.42168   0.37961   0.00000  Uiso   1.00
H212   H     0.99459   0.69792   0.05301   0.00000  Uiso   1.00
H213   H     0.71455   0.66251   0.56216   0.00000  Uiso   1.00
H214   H     0.14144   0.30148   0.42024   0.00000  Uiso   1.00
H215   H     0.07855   0.67120   0.35564   0.00000  Uiso   1.00
H216   H     0.10340   0.74293   0.21742   0.00000  Uiso   1.00
H217   H     0.97058   0.72614   0.45889   0.00000  Uiso   1.00
H218   H     0.17302   0.55494   0.39158   0.00000  Uiso   1.00
H219   H     0.11297   0.80608   0.06272   0.00000  Uiso   1.00
H220   H     0.83293   0.77067   0.57188   0.00000  Uiso   1.00
H221   H     0.25982   0.40964   0.42995   0.00000  Uiso   1.00
O222   O     0.06761   0.79692   0.96675   0.00000  Uiso   1.00
O223   O     0.70022   0.75045   0.63475   0.00000  Uiso   1.00
O224   O     0.26028   0.27680   0.44854   0.00000  Uiso   1.00
N225   N     0.01905   0.71352   0.07426   0.00000  Uiso   1.00
N226   N     0.75723   0.68042   0.55028   0.00000  Uiso   1.00
N227   N     0.15632   0.34289   0.41761   0.00000  Uiso   1.00
N228   N     0.08275   0.77172   0.07949   0.00000  Uiso   1.00
N229   N     0.82093   0.73862   0.55551   0.00000  Uiso   1.00
N230   N     0.22002   0.40109   0.42284   0.00000  Uiso   1.00
C231   C     0.63907   0.32022   0.99993   0.00000  Uiso   1.00
C232   C     0.67262   0.24287   0.03435   0.00000  Uiso   1.00
C233   C     0.67118   0.18288   0.02210   0.00000  Uiso   1.00
C234   C     0.70499   0.11682   0.05878   0.00000  Uiso   1.00
C235   C     0.75194   0.99761   0.10502   0.00000  Uiso   1.00
C236   C     0.70053   0.35762   0.96011   0.00000  Uiso   1.00
C237   C     0.72254   0.39410   0.88545   0.00000  Uiso   1.00
C238   C     0.77984   0.42464   0.85965   0.00000  Uiso   1.00
C239   C     0.87008   0.48361   0.79065   0.00000  Uiso   1.00
C240   C     0.58699   0.35288   0.06490   0.00000  Uiso   1.00
C241   C     0.51353   0.38541   0.07833   0.00000  Uiso   1.00
C242   C     0.47524   0.41198   0.14075   0.00000  Uiso   1.00
C243   C     0.38919   0.46360   0.23443   0.00000  Uiso   1.00
C244   C     0.70168   0.30960   0.08687   0.00000  Uiso   1.00
C245   C     0.70663   0.23711   0.08157   0.00000  Uiso   1.00
C246   C     0.74045   0.17112   0.11829   0.00000  Uiso   1.00
C247   C     0.73906   0.11104   0.10610   0.00000  Uiso   1.00
C248   C     0.73454   0.35185   0.00733   0.00000  Uiso   1.00
C249   C     0.79181   0.38235   0.98164   0.00000  Uiso   1.00
C250   C     0.81391   0.41886   0.90696   0.00000  Uiso   1.00
C251   C     0.62099   0.34711   0.11212   0.00000  Uiso   1.00
C252   C     0.58281   0.37365   0.17453   0.00000  Uiso   1.00
C253   C     0.50931   0.40620   0.18805   0.00000  Uiso   1.00
H254   H     0.61260   0.32471   0.96316   0.00000  Uiso   1.00
H255   H     0.64486   0.18737   0.98554   0.00000  Uiso   1.00
H256   H     0.69621   0.39856   0.84892   0.00000  Uiso   1.00
H257   H     0.48723   0.38986   0.04178   0.00000  Uiso   1.00
H258   H     0.69565   0.03255   0.03116   0.00000  Uiso   1.00
H259   H     0.80390   0.47788   0.74309   0.00000  Uiso   1.00
H260   H     0.36324   0.45955   0.14976   0.00000  Uiso   1.00
H261   H     0.72816   0.30510   0.12364   0.00000  Uiso   1.00
H262   H     0.76677   0.16668   0.15483   0.00000  Uiso   1.00
H263   H     0.81811   0.37787   0.01820   0.00000  Uiso   1.00
H264   H     0.60914   0.36918   0.21106   0.00000  Uiso   1.00
H265   H     0.79460   0.01575   0.16856   0.00000  Uiso   1.00
H266   H     0.90284   0.46109   0.88049   0.00000  Uiso   1.00
H267   H     0.46218   0.44276   0.28716   0.00000  Uiso   1.00
O268   O     0.76846   0.93344   0.11746   0.00000  Uiso   1.00
O269   O     0.91046   0.51772   0.73953   0.00000  Uiso   1.00
O270   O     0.33233   0.49366   0.27307   0.00000  Uiso   1.00
N271   N     0.71363   0.04759   0.05923   0.00000  Uiso   1.00
N272   N     0.81484   0.46394   0.78990   0.00000  Uiso   1.00
N273   N     0.40286   0.44682   0.17009   0.00000  Uiso   1.00
N274   N     0.76687   0.03856   0.13316   0.00000  Uiso   1.00
N275   N     0.86808   0.45491   0.86383   0.00000  Uiso   1.00
N276   N     0.45610   0.43779   0.24402   0.00000  Uiso   1.00
C277   C     0.15133   0.80460   0.56366   0.00000  Uiso   1.00
C278   C     0.22809   0.75715   0.53926   0.00000  Uiso   1.00
C279   C     0.28711   0.75784   0.55139   0.00000  Uiso   1.00
C280   C     0.35277   0.71027   0.52474   0.00000  Uiso   1.00
C281   C     0.47100   0.64365   0.49257   0.00000  Uiso   1.00
C282   C     0.10187   0.75404   0.61120   0.00000  Uiso   1.00
C283   C     0.05476   0.75212   0.68382   0.00000  Uiso   1.00
C284   C     0.01416   0.70194   0.71772   0.00000  Uiso   1.00
C285   C     0.93638   0.63053   0.79722   0.00000  Uiso   1.00
C286   C     0.13200   0.84388   0.49331   0.00000  Uiso   1.00
C287   C     0.11021   0.91751   0.46681   0.00000  Uiso   1.00
C288   C     0.09496   0.94297   0.40146   0.00000  Uiso   1.00
C289   C     0.06397   0.01104   0.29792   0.00000  Uiso   1.00
C290   C     0.16299   0.71890   0.49474   0.00000  Uiso   1.00
C291   C     0.23442   0.71060   0.50182   0.00000  Uiso   1.00
C292   C     0.30001   0.66302   0.47514   0.00000  Uiso   1.00
C293   C     0.35912   0.66364   0.48723   0.00000  Uiso   1.00
C294   C     0.10820   0.70749   0.57377   0.00000  Uiso   1.00
C295   C     0.06766   0.65731   0.60756   0.00000  Uiso   1.00
C296   C     0.02050   0.65531   0.68022   0.00000  Uiso   1.00
C297   C     0.13834   0.79734   0.45587   0.00000  Uiso   1.00
C298   C     0.12311   0.82269   0.39055   0.00000  Uiso   1.00
C299   C     0.10130   0.89634   0.36396   0.00000  Uiso   1.00
H300   H     0.14639   0.84084   0.59281   0.00000  Uiso   1.00
H301   H     0.28219   0.79387   0.58037   0.00000  Uiso   1.00
H302   H     0.04986   0.78816   0.71277   0.00000  Uiso   1.00
H303   H     0.10531   0.95351   0.49580   0.00000  Uiso   1.00
H304   H     0.43553   0.72124   0.55010   0.00000  Uiso   1.00
H305   H     0.94564   0.70922   0.82926   0.00000  Uiso   1.00
H306   H     0.06256   0.05790   0.37172   0.00000  Uiso   1.00
H307   H     0.16792   0.68266   0.46559   0.00000  Uiso   1.00
H308   H     0.30490   0.62701   0.44617   0.00000  Uiso   1.00
H309   H     0.07257   0.62130   0.57857   0.00000  Uiso   1.00
H310   H     0.12802   0.78665   0.36160   0.00000  Uiso   1.00
H311   H     0.45396   0.58581   0.44118   0.00000  Uiso   1.00
H312   H     0.96407   0.57379   0.72034   0.00000  Uiso   1.00
H313   H     0.08099   0.92247   0.26280   0.00000  Uiso   1.00
O314   O     0.53446   0.61975   0.48518   0.00000  Uiso   1.00
O315   O     0.89174   0.60399   0.85142   0.00000  Uiso   1.00
O316   O     0.04514   0.06145   0.25115   0.00000  Uiso   1.00
N317   N     0.42107   0.69701   0.52711   0.00000  Uiso   1.00
N318   N     0.96306   0.68577   0.78812   0.00000  Uiso   1.00
N319   N     0.07236   0.01176   0.36037   0.00000  Uiso   1.00
N320   N     0.43099   0.62414   0.46850   0.00000  Uiso   1.00
N321   N     0.97298   0.61289   0.72951   0.00000  Uiso   1.00
N322   N     0.08228   0.93888   0.30176   0.00000  Uiso   1.00
C323   C     0.46949   0.21241   0.90148   0.00000  Uiso   1.00
C324   C     0.44322   0.28406   0.85126   0.00000  Uiso   1.00
C325   C     0.45874   0.34763   0.83780   0.00000  Uiso   1.00
C326   C     0.42958   0.40732   0.79012   0.00000  Uiso   1.00
C327   C     0.39536   0.51915   0.71713   0.00000  Uiso   1.00
C328   C     0.50946   0.15989   0.85308   0.00000  Uiso   1.00
C329   C     0.58068   0.11904   0.84115   0.00000  Uiso   1.00
C330   C     0.60728   0.07420   0.79500   0.00000  Uiso   1.00
C331   C     0.67590   0.99321   0.72487   0.00000  Uiso   1.00
C332   C     0.40141   0.18846   0.95848   0.00000  Uiso   1.00
C333   C     0.38177   0.17163   0.03518   0.00000  Uiso   1.00
C334   C     0.31740   0.15083   0.07778   0.00000  Uiso   1.00
C335   C     0.21825   0.11421   0.17130   0.00000  Uiso   1.00
C336   C     0.39011   0.20538   0.84075   0.00000  Uiso   1.00
C337   C     0.40010   0.28024   0.81827   0.00000  Uiso   1.00
C338   C     0.37091   0.33986   0.77060   0.00000  Uiso   1.00
C339   C     0.38638   0.40351   0.75707   0.00000  Uiso   1.00
C340   C     0.46635   0.15607   0.82009   0.00000  Uiso   1.00
C341   C     0.49285   0.11127   0.77395   0.00000  Uiso   1.00
C342   C     0.56408   0.07038   0.76195   0.00000  Uiso   1.00
C343   C     0.35829   0.18465   0.92549   0.00000  Uiso   1.00
C344   C     0.29394   0.16386   0.96798   0.00000  Uiso   1.00
C345   C     0.27421   0.14701   0.04473   0.00000  Uiso   1.00
H346   H     0.50307   0.21537   0.92717   0.00000  Uiso   1.00
H347   H     0.49211   0.35056   0.86334   0.00000  Uiso   1.00
H348   H     0.61403   0.12200   0.86669   0.00000  Uiso   1.00
H349   H     0.41515   0.17459   0.06069   0.00000  Uiso   1.00
H350   H     0.46097   0.49874   0.77800   0.00000  Uiso   1.00
H351   H     0.71804   0.01681   0.78510   0.00000  Uiso   1.00
H352   H     0.29866   0.12769   0.19418   0.00000  Uiso   1.00
H353   H     0.35654   0.20241   0.81506   0.00000  Uiso   1.00
H354   H     0.33754   0.33689   0.74508   0.00000  Uiso   1.00
H355   H     0.45946   0.10833   0.74844   0.00000  Uiso   1.00
H356   H     0.26059   0.16092   0.94243   0.00000  Uiso   1.00
H357   H     0.33552   0.48765   0.68201   0.00000  Uiso   1.00
H358   H     0.59259   0.00571   0.68911   0.00000  Uiso   1.00
H359   H     0.17321   0.11659   0.09820   0.00000  Uiso   1.00
O360   O     0.38841   0.58189   0.68597   0.00000  Uiso   1.00
O361   O     0.72567   0.94960   0.69530   0.00000  Uiso   1.00
O362   O     0.17546   0.09507   0.23200   0.00000  Uiso   1.00
N363   N     0.43404   0.47768   0.76502   0.00000  Uiso   1.00
N364   N     0.67439   0.02711   0.77165   0.00000  Uiso   1.00
N365   N     0.28232   0.13075   0.15411   0.00000  Uiso   1.00
N366   N     0.36654   0.47171   0.71338   0.00000  Uiso   1.00
N367   N     0.60688   0.02114   0.72000   0.00000  Uiso   1.00
N368   N     0.21481   0.12478   0.10246   0.00000  Uiso   1.00
C369   C     0.77273   0.52908   0.23819   0.00000  Uiso   1.00
C370   C     0.72304   0.49705   0.31471   0.00000  Uiso   1.00
C371   C     0.71168   0.50798   0.38130   0.00000  Uiso   1.00
C372   C     0.66413   0.47393   0.44529   0.00000  Uiso   1.00
C373   C     0.59226   0.43084   0.56450   0.00000  Uiso   1.00
C374   C     0.72521   0.56940   0.18995   0.00000  Uiso   1.00
C375   C     0.71568   0.64116   0.15164   0.00000  Uiso   1.00
C376   C     0.66997   0.66801   0.11061   0.00000  Uiso   1.00
C377   C     0.60150   0.73723   0.03608   0.00000  Uiso   1.00
C378   C     0.82591   0.46602   0.20665   0.00000  Uiso   1.00
C379   C     0.90106   0.45087   0.18235   0.00000  Uiso   1.00
C380   C     0.94014   0.39069   0.15536   0.00000  Uiso   1.00
C381   C     0.02803   0.29939   0.10675   0.00000  Uiso   1.00
C382   C     0.70850   0.44916   0.23343   0.00000  Uiso   1.00
C383   C     0.68815   0.45364   0.31212   0.00000  Uiso   1.00
C384   C     0.64061   0.41956   0.37604   0.00000  Uiso   1.00
C385   C     0.62918   0.43045   0.44271   0.00000  Uiso   1.00
C386   C     0.69032   0.52599   0.18737   0.00000  Uiso   1.00
C387   C     0.64461   0.55274   0.14638   0.00000  Uiso   1.00
C388   C     0.63502   0.62453   0.10802   0.00000  Uiso   1.00
C389   C     0.79103   0.42261   0.20406   0.00000  Uiso   1.00
C390   C     0.82999   0.36245   0.17709   0.00000  Uiso   1.00
C391   C     0.90519   0.34720   0.15276   0.00000  Uiso   1.00
H392   H     0.79989   0.56287   0.24020   0.00000  Uiso   1.00
H393   H     0.73868   0.54159   0.38328   0.00000  Uiso   1.00
H394   H     0.74269   0.67474   0.15365   0.00000  Uiso   1.00
H395   H     0.92804   0.48447   0.18436   0.00000  Uiso   1.00
H396   H     0.65542   0.49886   0.54076   0.00000  Uiso   1.00
H397   H     0.66389   0.77962   0.05656   0.00000  Uiso   1.00
H398   H     0.05474   0.37841   0.12131   0.00000  Uiso   1.00
H399   H     0.68133   0.41536   0.23142   0.00000  Uiso   1.00
H400   H     0.61362   0.38598   0.37402   0.00000  Uiso   1.00
H401   H     0.61763   0.51913   0.14439   0.00000  Uiso   1.00
H402   H     0.80298   0.32887   0.17510   0.00000  Uiso   1.00
H403   H     0.55391   0.37257   0.53324   0.00000  Uiso   1.00
H404   H     0.56238   0.65332   0.04904   0.00000  Uiso   1.00
H405   H     0.95323   0.25211   0.11380   0.00000  Uiso   1.00
O406   O     0.56224   0.41906   0.63096   0.00000  Uiso   1.00
O407   O     0.57337   0.78740   0.99570   0.00000  Uiso   1.00
O408   O     0.08615   0.26102   0.08066   0.00000  Uiso   1.00
N409   N     0.64083   0.47316   0.51942   0.00000  Uiso   1.00
N410   N     0.64874   0.73565   0.06673   0.00000  Uiso   1.00
N411   N     0.01416   0.36056   0.12725   0.00000  Uiso   1.00
N412   N     0.58621   0.40520   0.51538   0.00000  Uiso   1.00
N413   N     0.59412   0.66769   0.06269   0.00000  Uiso   1.00
N414   N     0.95953   0.29261   0.12321   0.00000  Uiso   1.00
C415   C     0.67300   0.95186   0.41610   0.00000  Uiso   1.00
C416   C     0.75073   0.93110   0.36377   0.00000  Uiso   1.00
C417   C     0.81184   0.93761   0.36713   0.00000  Uiso   1.00
C418   C     0.87808   0.91565   0.31419   0.00000  Uiso   1.00
C419   C     0.99804   0.88763   0.24118   0.00000  Uiso   1.00
C420   C     0.62935   0.00495   0.36667   0.00000  Uiso   1.00
C421   C     0.58840   0.07356   0.37248   0.00000  Uiso   1.00
C422   C     0.55246   0.11377   0.32199   0.00000  Uiso   1.00
C423   C     0.48393   0.20039   0.25352   0.00000  Uiso   1.00
C424   C     0.64505   0.88487   0.44931   0.00000  Uiso   1.00
C425   C     0.61727   0.85252   0.52462   0.00000  Uiso   1.00
C426   C     0.59452   0.79163   0.54370   0.00000  Uiso   1.00
C427   C     0.55036   0.69180   0.60355   0.00000  Uiso   1.00
C428   C     0.68196   0.90128   0.31609   0.00000  Uiso   1.00
C429   C     0.75560   0.90363   0.30945   0.00000  Uiso   1.00
C430   C     0.82176   0.88165   0.25649   0.00000  Uiso   1.00
C431   C     0.88296   0.88813   0.25978   0.00000  Uiso   1.00
C432   C     0.63422   0.97748   0.31235   0.00000  Uiso   1.00
C433   C     0.59832   0.01760   0.26184   0.00000  Uiso   1.00
C434   C     0.55733   0.08625   0.26757   0.00000  Uiso   1.00
C435   C     0.64991   0.85739   0.39500   0.00000  Uiso   1.00
C436   C     0.62719   0.79655   0.41397   0.00000  Uiso   1.00
C437   C     0.59940   0.76411   0.48929   0.00000  Uiso   1.00
H438   H     0.66920   0.97325   0.45838   0.00000  Uiso   1.00
H439   H     0.80805   0.95888   0.40917   0.00000  Uiso   1.00
H440   H     0.58464   0.09480   0.41453   0.00000  Uiso   1.00
H441   H     0.61351   0.87379   0.56663   0.00000  Uiso   1.00
H442   H     0.96413   0.93085   0.33065   0.00000  Uiso   1.00
H443   H     0.49304   0.21744   0.34195   0.00000  Uiso   1.00
H444   H     0.55392   0.75140   0.66270   0.00000  Uiso   1.00
H445   H     0.68575   0.87989   0.27380   0.00000  Uiso   1.00
H446   H     0.82551   0.86039   0.21447   0.00000  Uiso   1.00
H447   H     0.60210   0.99632   0.21982   0.00000  Uiso   1.00
H448   H     0.63097   0.77531   0.37193   0.00000  Uiso   1.00
H449   H     0.97830   0.85092   0.17261   0.00000  Uiso   1.00
H450   H     0.50721   0.13751   0.18392   0.00000  Uiso   1.00
H451   H     0.56809   0.67147   0.50466   0.00000  Uiso   1.00
O452   O     0.06286   0.87977   0.21591   0.00000  Uiso   1.00
O453   O     0.44479   0.25576   0.23075   0.00000  Uiso   1.00
O454   O     0.52466   0.64432   0.65156   0.00000  Uiso   1.00
N455   N     0.94829   0.91470   0.30161   0.00000  Uiso   1.00
N456   N     0.50786   0.18265   0.31217   0.00000  Uiso   1.00
N457   N     0.56475   0.74695   0.61204   0.00000  Uiso   1.00
N458   N     0.95592   0.87169   0.21657   0.00000  Uiso   1.00
N459   N     0.51548   0.13964   0.22713   0.00000  Uiso   1.00
N460   N     0.57238   0.70394   0.52700   0.00000  Uiso   1.00
C461   C     0.00914   0.30619   0.70457   0.00000  Uiso   1.00
C462   C     0.98094   0.27429   0.78845   0.00000  Uiso   1.00
C463   C     0.99051   0.29153   0.84123   0.00000  Uiso   1.00
C464   C     0.96055   0.25641   0.91516   0.00000  Uiso   1.00
C465   C     0.92259   0.21454   0.04230   0.00000  Uiso   1.00
C466   C     0.05542   0.24311   0.67058   0.00000  Uiso   1.00
C467   C     0.12761   0.23415   0.62425   0.00000  Uiso   1.00
C468   C     0.16033   0.17278   0.59895   0.00000  Uiso   1.00
C469   C     0.23798   0.08253   0.54305   0.00000  Uiso   1.00
C470   C     0.94294   0.33739   0.68036   0.00000  Uiso   1.00
C471   C     0.92056   0.40770   0.64223   0.00000  Uiso   1.00
C472   C     0.85858   0.42571   0.62516   0.00000  Uiso   1.00
C473   C     0.76159   0.48185   0.58445   0.00000  Uiso   1.00
C474   C     0.93889   0.21313   0.74203   0.00000  Uiso   1.00
C475   C     0.94279   0.22374   0.80879   0.00000  Uiso   1.00
C476   C     0.91279   0.18858   0.88266   0.00000  Uiso   1.00
C477   C     0.92232   0.20578   0.93554   0.00000  Uiso   1.00
C478   C     0.01727   0.19257   0.69092   0.00000  Uiso   1.00
C479   C     0.04988   0.13120   0.66568   0.00000  Uiso   1.00
C480   C     0.12210   0.12214   0.61933   0.00000  Uiso   1.00
C481   C     0.90478   0.28685   0.70070   0.00000  Uiso   1.00
C482   C     0.84283   0.30475   0.68368   0.00000  Uiso   1.00
C483   C     0.82036   0.37507   0.64554   0.00000  Uiso   1.00
H484   H     0.03885   0.34553   0.68873   0.00000  Uiso   1.00
H485   H     0.02005   0.33064   0.82546   0.00000  Uiso   1.00
H486   H     0.15712   0.27327   0.60851   0.00000  Uiso   1.00
H487   H     0.95010   0.44680   0.62650   0.00000  Uiso   1.00
H488   H     0.98240   0.29183   0.98602   0.00000  Uiso   1.00
H489   H     0.27141   0.17087   0.52854   0.00000  Uiso   1.00
H490   H     0.83487   0.53678   0.56648   0.00000  Uiso   1.00
H491   H     0.90919   0.17378   0.75786   0.00000  Uiso   1.00
H492   H     0.88327   0.14947   0.89839   0.00000  Uiso   1.00
H493   H     0.02034   0.09210   0.68144   0.00000  Uiso   1.00
H494   H     0.81332   0.26562   0.69943   0.00000  Uiso   1.00
H495   H     0.87139   0.14478   0.04521   0.00000  Uiso   1.00
H496   H     0.16039   0.02382   0.58773   0.00000  Uiso   1.00
H497   H     0.72385   0.38973   0.62567   0.00000  Uiso   1.00
O498   O     0.91221   0.20540   0.10681   0.00000  Uiso   1.00
O499   O     0.29136   0.04671   0.50660   0.00000  Uiso   1.00
O500   O     0.71863   0.52678   0.55638   0.00000  Uiso   1.00
N501   N     0.95982   0.26057   0.98066   0.00000  Uiso   1.00
N502   N     0.23003   0.14747   0.55296   0.00000  Uiso   1.00
N503   N     0.82191   0.48957   0.58841   0.00000  Uiso   1.00
N504   N     0.90008   0.18145   0.01252   0.00000  Uiso   1.00
N505   N     0.17029   0.06835   0.58481   0.00000  Uiso   1.00
N506   N     0.76217   0.41044   0.62026   0.00000  Uiso   1.00
C507   C     0.32550   0.62384   0.06253   0.00000  Uiso   1.00
C508   C     0.29532   0.70477   0.04688   0.00000  Uiso   1.00
C509   C     0.29336   0.74779   0.08495   0.00000  Uiso   1.00
C510   C     0.26355   0.82061   0.06217   0.00000  Uiso   1.00
C511   C     0.22074   0.94191   0.04682   0.00000  Uiso   1.00
C512   C     0.26395   0.59372   0.07711   0.00000  Uiso   1.00
C513   C     0.23563   0.54336   0.14060   0.00000  Uiso   1.00
C514   C     0.17942   0.52270   0.14326   0.00000  Uiso   1.00
C515   C     0.08795   0.47156   0.17482   0.00000  Uiso   1.00
C516   C     0.38333   0.60923   0.98950   0.00000  Uiso   1.00
C517   C     0.45537   0.57190   0.97933   0.00000  Uiso   1.00
C518   C     0.49967   0.56428   0.90823   0.00000  Uiso   1.00
C519   C     0.59356   0.53721   0.80377   0.00000  Uiso   1.00
C520   C     0.27606   0.67668   0.95437   0.00000  Uiso   1.00
C521   C     0.26846   0.73347   0.98813   0.00000  Uiso   1.00
C522   C     0.23866   0.80625   0.96529   0.00000  Uiso   1.00
C523   C     0.23665   0.84937   0.00332   0.00000  Uiso   1.00
C524   C     0.23710   0.62242   0.01836   0.00000  Uiso   1.00
C525   C     0.18093   0.60183   0.02093   0.00000  Uiso   1.00
C526   C     0.15252   0.55146   0.08441   0.00000  Uiso   1.00
C527   C     0.35648   0.63794   0.93075   0.00000  Uiso   1.00
C528   C     0.40067   0.63037   0.85966   0.00000  Uiso   1.00
C529   C     0.47277   0.59303   0.84938   0.00000  Uiso   1.00
H530   H     0.34640   0.60149   0.10827   0.00000  Uiso   1.00
H531   H     0.31414   0.72555   0.13041   0.00000  Uiso   1.00
H532   H     0.25642   0.52115   0.18604   0.00000  Uiso   1.00
H533   H     0.47613   0.54969   0.02480   0.00000  Uiso   1.00
H534   H     0.26650   0.87576   0.12908   0.00000  Uiso   1.00
H535   H     0.14482   0.44475   0.24637   0.00000  Uiso   1.00
H536   H     0.60813   0.50492   0.90635   0.00000  Uiso   1.00
H537   H     0.25515   0.69903   0.90864   0.00000  Uiso   1.00
H538   H     0.21788   0.82845   0.91982   0.00000  Uiso   1.00
H539   H     0.16016   0.62405   0.97546   0.00000  Uiso   1.00
H540   H     0.37987   0.65259   0.81421   0.00000  Uiso   1.00
H541   H     0.18837   0.95927   0.95815   0.00000  Uiso   1.00
H542   H     0.06669   0.52826   0.07545   0.00000  Uiso   1.00
H543   H     0.53000   0.58844   0.73543   0.00000  Uiso   1.00
O544   O     0.20454   0.00089   0.05459   0.00000  Uiso   1.00
O545   O     0.04491   0.43542   0.20847   0.00000  Uiso   1.00
O546   O     0.65276   0.51437   0.76238   0.00000  Uiso   1.00
N547   N     0.25324   0.87765   0.08730   0.00000  Uiso   1.00
N548   N     0.13947   0.47470   0.19697   0.00000  Uiso   1.00
N549   N     0.57262   0.53094   0.87909   0.00000  Uiso   1.00
N550   N     0.21120   0.92259   0.99533   0.00000  Uiso   1.00
N551   N     0.09743   0.51964   0.10500   0.00000  Uiso   1.00
N552   N     0.53058   0.57587   0.78712   0.00000  Uiso   1.00
