data_job_03665
_audit_creation_date              2018-12-19
_audit_creation_method            'Materials Studio'
_symmetry_space_group_name_H-M    'P1'
_symmetry_Int_Tables_number       1
_symmetry_cell_setting            triclinic
loop_
_symmetry_equiv_pos_as_xyz
  x,y,z
_cell_length_a                    20.8582
_cell_length_b                    12.6755
_cell_length_c                    18.4467
_cell_angle_alpha                 90.0000
_cell_angle_beta                  143.9026
_cell_angle_gamma                 90.0000
loop_
_atom_site_label
_atom_site_type_symbol
_atom_site_fract_x
_atom_site_fract_y
_atom_site_fract_z
_atom_site_U_iso_or_equiv
_atom_site_adp_type
_atom_site_occupancy
C1     C     0.30019   0.17321   0.78338   0.00000  Uiso   1.00
C2     C     0.18865   0.16624   0.71740   0.00000  Uiso   1.00
C3     C     0.12705   0.07520   0.66898   0.00000  Uiso   1.00
C4     C     0.02711   0.08530   0.61208   0.00000  Uiso   1.00
C5     C     0.85951   0.05962   0.51080   0.00000  Uiso   1.00
C6     C     0.28929   0.25522   0.71338   0.00000  Uiso   1.00
C7     C     0.31232   0.23900   0.66162   0.00000  Uiso   1.00
C8     C     0.29712   0.32401   0.60135   0.00000  Uiso   1.00
C9     C     0.28584   0.43650   0.49392   0.00000  Uiso   1.00
C10    C     0.37606   0.22141   0.90911   0.00000  Uiso   1.00
C11    C     0.47206   0.17678   0.02191   0.00000  Uiso   1.00
C12    C     0.52992   0.23334   0.12644   0.00000  Uiso   1.00
C13    C     0.65336   0.29334   0.32290   0.00000  Uiso   1.00
C14    C     0.23226   0.35304   0.76843   0.00000  Uiso   1.00
C15    C     0.15176   0.26391   0.70927   0.00000  Uiso   1.00
C16    C     0.05189   0.27415   0.65244   0.00000  Uiso   1.00
C17    C     0.99014   0.18314   0.60395   0.00000  Uiso   1.00
C18    C     0.25240   0.35289   0.70526   0.00000  Uiso   1.00
C19    C     0.23716   0.43795   0.64507   0.00000  Uiso   1.00
C20    C     0.26015   0.42186   0.59321   0.00000  Uiso   1.00
C21    C     0.33916   0.31909   0.90099   0.00000  Uiso   1.00
C22    C     0.39689   0.37573   0.00536   0.00000  Uiso   1.00
C23    C     0.49295   0.33119   0.11830   0.00000  Uiso   1.00
H24    H     0.32892   0.09717   0.78971   0.00000  Uiso   1.00
H25    H     0.15562   0.99962   0.67528   0.00000  Uiso   1.00
H26    H     0.34088   0.16341   0.66793   0.00000  Uiso   1.00
H27    H     0.50059   0.10119   0.02816   0.00000  Uiso   1.00
H28    H     0.94721   0.93456   0.54480   0.00000  Uiso   1.00
H29    H     0.33787   0.27991   0.52933   0.00000  Uiso   1.00
H30    H     0.67464   0.14872   0.28896   0.00000  Uiso   1.00
H31    H     0.20353   0.42909   0.76210   0.00000  Uiso   1.00
H32    H     0.02335   0.34975   0.64616   0.00000  Uiso   1.00
H33    H     0.20861   0.51353   0.63881   0.00000  Uiso   1.00
H34    H     0.36832   0.45132   0.99904   0.00000  Uiso   1.00
H35    H     0.83985   0.21873   0.52116   0.00000  Uiso   1.00
H36    H     0.23052   0.56408   0.50569   0.00000  Uiso   1.00
H37    H     0.56728   0.43290   0.26532   0.00000  Uiso   1.00
O38    O     0.77725   0.01847   0.45717   0.00000  Uiso   1.00
O39    O     0.28981   0.47156   0.43690   0.00000  Uiso   1.00
O40    O     0.73164   0.29945   0.43351   0.00000  Uiso   1.00
N41    N     0.94668   0.01232   0.55517   0.00000  Uiso   1.00
N42    N     0.31191   0.33520   0.54068   0.00000  Uiso   1.00
N43    N     0.62678   0.21256   0.25088   0.00000  Uiso   1.00
N44    N     0.88891   0.16523   0.54245   0.00000  Uiso   1.00
N45    N     0.25414   0.48811   0.52797   0.00000  Uiso   1.00
N46    N     0.56901   0.36548   0.23816   0.00000  Uiso   1.00
C47    C     0.69981   0.67321   0.71662   0.00000  Uiso   1.00
C48    C     0.81135   0.66624   0.78260   0.00000  Uiso   1.00
C49    C     0.87295   0.57520   0.83102   0.00000  Uiso   1.00
C50    C     0.97289   0.58530   0.88792   0.00000  Uiso   1.00
C51    C     0.14049   0.55962   0.98920   0.00000  Uiso   1.00
C52    C     0.71071   0.75522   0.78662   0.00000  Uiso   1.00
C53    C     0.68768   0.73900   0.83838   0.00000  Uiso   1.00
C54    C     0.70288   0.82401   0.89865   0.00000  Uiso   1.00
C55    C     0.71416   0.93650   0.00608   0.00000  Uiso   1.00
C56    C     0.62394   0.72141   0.59089   0.00000  Uiso   1.00
C57    C     0.52794   0.67678   0.47809   0.00000  Uiso   1.00
C58    C     0.47008   0.73334   0.37356   0.00000  Uiso   1.00
C59    C     0.34664   0.79334   0.17710   0.00000  Uiso   1.00
C60    C     0.76774   0.85304   0.73157   0.00000  Uiso   1.00
C61    C     0.84824   0.76391   0.79073   0.00000  Uiso   1.00
C62    C     0.94811   0.77415   0.84756   0.00000  Uiso   1.00
C63    C     0.00986   0.68314   0.89605   0.00000  Uiso   1.00
C64    C     0.74760   0.85289   0.79474   0.00000  Uiso   1.00
C65    C     0.76284   0.93795   0.85493   0.00000  Uiso   1.00
C66    C     0.73985   0.92186   0.90679   0.00000  Uiso   1.00
C67    C     0.66084   0.81909   0.59901   0.00000  Uiso   1.00
C68    C     0.60311   0.87573   0.49464   0.00000  Uiso   1.00
C69    C     0.50705   0.83119   0.38170   0.00000  Uiso   1.00
H70    H     0.67108   0.59717   0.71029   0.00000  Uiso   1.00
H71    H     0.84438   0.49962   0.82472   0.00000  Uiso   1.00
H72    H     0.65912   0.66341   0.83207   0.00000  Uiso   1.00
H73    H     0.49941   0.60119   0.47184   0.00000  Uiso   1.00
H74    H     0.05279   0.43456   0.95520   0.00000  Uiso   1.00
H75    H     0.66213   0.77991   0.97067   0.00000  Uiso   1.00
H76    H     0.32536   0.64872   0.21104   0.00000  Uiso   1.00
H77    H     0.79647   0.92909   0.73790   0.00000  Uiso   1.00
H78    H     0.97665   0.84975   0.85384   0.00000  Uiso   1.00
H79    H     0.79139   0.01353   0.86119   0.00000  Uiso   1.00
H80    H     0.63168   0.95132   0.50096   0.00000  Uiso   1.00
H81    H     0.16015   0.71873   0.97884   0.00000  Uiso   1.00
H82    H     0.76948   0.06408   0.99431   0.00000  Uiso   1.00
H83    H     0.43272   0.93290   0.23468   0.00000  Uiso   1.00
O84    O     0.22275   0.51847   0.04283   0.00000  Uiso   1.00
O85    O     0.71019   0.97156   0.06310   0.00000  Uiso   1.00
O86    O     0.26836   0.79945   0.06649   0.00000  Uiso   1.00
N87    N     0.05332   0.51232   0.94483   0.00000  Uiso   1.00
N88    N     0.68809   0.83520   0.95932   0.00000  Uiso   1.00
N89    N     0.37322   0.71256   0.24912   0.00000  Uiso   1.00
N90    N     0.11109   0.66523   0.95755   0.00000  Uiso   1.00
N91    N     0.74586   0.98811   0.97203   0.00000  Uiso   1.00
N92    N     0.43099   0.86548   0.26184   0.00000  Uiso   1.00
C93    C     0.69981   0.82679   0.21662   0.00000  Uiso   1.00
C94    C     0.81135   0.83376   0.28260   0.00000  Uiso   1.00
C95    C     0.87295   0.92480   0.33102   0.00000  Uiso   1.00
C96    C     0.97289   0.91470   0.38792   0.00000  Uiso   1.00
C97    C     0.14049   0.94038   0.48920   0.00000  Uiso   1.00
C98    C     0.71071   0.74478   0.28662   0.00000  Uiso   1.00
C99    C     0.68768   0.76100   0.33838   0.00000  Uiso   1.00
C100   C     0.70288   0.67599   0.39865   0.00000  Uiso   1.00
C101   C     0.71416   0.56350   0.50608   0.00000  Uiso   1.00
C102   C     0.62394   0.77859   0.09089   0.00000  Uiso   1.00
C103   C     0.52794   0.82322   0.97809   0.00000  Uiso   1.00
C104   C     0.47008   0.76666   0.87356   0.00000  Uiso   1.00
C105   C     0.34664   0.70666   0.67710   0.00000  Uiso   1.00
C106   C     0.76774   0.64696   0.23157   0.00000  Uiso   1.00
C107   C     0.84824   0.73609   0.29073   0.00000  Uiso   1.00
C108   C     0.94811   0.72585   0.34756   0.00000  Uiso   1.00
C109   C     0.00986   0.81686   0.39605   0.00000  Uiso   1.00
C110   C     0.74760   0.64711   0.29474   0.00000  Uiso   1.00
C111   C     0.76284   0.56205   0.35493   0.00000  Uiso   1.00
C112   C     0.73985   0.57814   0.40679   0.00000  Uiso   1.00
C113   C     0.66084   0.68091   0.09901   0.00000  Uiso   1.00
C114   C     0.60311   0.62427   0.99464   0.00000  Uiso   1.00
C115   C     0.50705   0.66881   0.88170   0.00000  Uiso   1.00
H116   H     0.67108   0.90283   0.21029   0.00000  Uiso   1.00
H117   H     0.84438   0.00038   0.32472   0.00000  Uiso   1.00
H118   H     0.65912   0.83659   0.33207   0.00000  Uiso   1.00
H119   H     0.49941   0.89881   0.97184   0.00000  Uiso   1.00
H120   H     0.05279   0.06544   0.45520   0.00000  Uiso   1.00
H121   H     0.66213   0.72009   0.47067   0.00000  Uiso   1.00
H122   H     0.32536   0.85128   0.71104   0.00000  Uiso   1.00
H123   H     0.79647   0.57091   0.23790   0.00000  Uiso   1.00
H124   H     0.97665   0.65025   0.35384   0.00000  Uiso   1.00
H125   H     0.79139   0.48647   0.36119   0.00000  Uiso   1.00
H126   H     0.63168   0.54868   0.00096   0.00000  Uiso   1.00
H127   H     0.16015   0.78127   0.47884   0.00000  Uiso   1.00
H128   H     0.76948   0.43592   0.49431   0.00000  Uiso   1.00
H129   H     0.43272   0.56710   0.73468   0.00000  Uiso   1.00
O130   O     0.22275   0.98153   0.54283   0.00000  Uiso   1.00
O131   O     0.71019   0.52844   0.56310   0.00000  Uiso   1.00
O132   O     0.26836   0.70055   0.56649   0.00000  Uiso   1.00
N133   N     0.05332   0.98768   0.44483   0.00000  Uiso   1.00
N134   N     0.68809   0.66480   0.45932   0.00000  Uiso   1.00
N135   N     0.37322   0.78744   0.74912   0.00000  Uiso   1.00
N136   N     0.11109   0.83477   0.45755   0.00000  Uiso   1.00
N137   N     0.74586   0.51189   0.47203   0.00000  Uiso   1.00
N138   N     0.43099   0.63452   0.76184   0.00000  Uiso   1.00
C139   C     0.30019   0.32679   0.28338   0.00000  Uiso   1.00
C140   C     0.18865   0.33376   0.21740   0.00000  Uiso   1.00
C141   C     0.12705   0.42480   0.16898   0.00000  Uiso   1.00
C142   C     0.02711   0.41470   0.11208   0.00000  Uiso   1.00
C143   C     0.85951   0.44038   0.01080   0.00000  Uiso   1.00
C144   C     0.28929   0.24478   0.21338   0.00000  Uiso   1.00
C145   C     0.31232   0.26100   0.16162   0.00000  Uiso   1.00
C146   C     0.29712   0.17599   0.10135   0.00000  Uiso   1.00
C147   C     0.28584   0.06350   0.99392   0.00000  Uiso   1.00
C148   C     0.37606   0.27859   0.40911   0.00000  Uiso   1.00
C149   C     0.47206   0.32322   0.52191   0.00000  Uiso   1.00
C150   C     0.52992   0.26666   0.62644   0.00000  Uiso   1.00
C151   C     0.65336   0.20666   0.82290   0.00000  Uiso   1.00
C152   C     0.23226   0.14696   0.26843   0.00000  Uiso   1.00
C153   C     0.15176   0.23609   0.20927   0.00000  Uiso   1.00
C154   C     0.05189   0.22585   0.15244   0.00000  Uiso   1.00
C155   C     0.99014   0.31686   0.10395   0.00000  Uiso   1.00
C156   C     0.25240   0.14711   0.20526   0.00000  Uiso   1.00
C157   C     0.23716   0.06205   0.14507   0.00000  Uiso   1.00
C158   C     0.26015   0.07814   0.09321   0.00000  Uiso   1.00
C159   C     0.33916   0.18091   0.40099   0.00000  Uiso   1.00
C160   C     0.39689   0.12427   0.50536   0.00000  Uiso   1.00
C161   C     0.49295   0.16881   0.61830   0.00000  Uiso   1.00
H162   H     0.32892   0.40283   0.28971   0.00000  Uiso   1.00
H163   H     0.15562   0.50038   0.17528   0.00000  Uiso   1.00
H164   H     0.34088   0.33659   0.16793   0.00000  Uiso   1.00
H165   H     0.50059   0.39881   0.52816   0.00000  Uiso   1.00
H166   H     0.94721   0.56544   0.04480   0.00000  Uiso   1.00
H167   H     0.33787   0.22009   0.02933   0.00000  Uiso   1.00
H168   H     0.67464   0.35128   0.78896   0.00000  Uiso   1.00
H169   H     0.20353   0.07091   0.26210   0.00000  Uiso   1.00
H170   H     0.02335   0.15025   0.14616   0.00000  Uiso   1.00
H171   H     0.20861   0.98647   0.13881   0.00000  Uiso   1.00
H172   H     0.36832   0.04868   0.49904   0.00000  Uiso   1.00
H173   H     0.83985   0.28127   0.02116   0.00000  Uiso   1.00
H174   H     0.23052   0.93592   0.00569   0.00000  Uiso   1.00
H175   H     0.56728   0.06710   0.76532   0.00000  Uiso   1.00
O176   O     0.77725   0.48153   0.95717   0.00000  Uiso   1.00
O177   O     0.28981   0.02844   0.93690   0.00000  Uiso   1.00
O178   O     0.73164   0.20055   0.93351   0.00000  Uiso   1.00
N179   N     0.94668   0.48768   0.05517   0.00000  Uiso   1.00
N180   N     0.31191   0.16480   0.04068   0.00000  Uiso   1.00
N181   N     0.62678   0.28744   0.75088   0.00000  Uiso   1.00
N182   N     0.88891   0.33477   0.04245   0.00000  Uiso   1.00
N183   N     0.25414   0.01189   0.02797   0.00000  Uiso   1.00
N184   N     0.56901   0.13452   0.73816   0.00000  Uiso   1.00
