data_job_05688
_audit_creation_date              2018-12-19
_audit_creation_method            'Materials Studio'
_symmetry_space_group_name_H-M    'P1'
_symmetry_Int_Tables_number       1
_symmetry_cell_setting            triclinic
loop_
_symmetry_equiv_pos_as_xyz
  x,y,z
_cell_length_a                    19.9428
_cell_length_b                    22.6270
_cell_length_c                    12.1117
_cell_angle_alpha                 90.0000
_cell_angle_beta                  90.0000
_cell_angle_gamma                 90.0000
loop_
_atom_site_label
_atom_site_type_symbol
_atom_site_fract_x
_atom_site_fract_y
_atom_site_fract_z
_atom_site_U_iso_or_equiv
_atom_site_adp_type
_atom_site_occupancy
C1     C     0.42950   0.78772   0.49601   0.00000  Uiso   1.00
C2     C     0.39939   0.82790   0.58411   0.00000  Uiso   1.00
C3     C     0.42544   0.83731   0.68889   0.00000  Uiso   1.00
C4     C     0.39045   0.87569   0.75732   0.00000  Uiso   1.00
C5     C     0.35264   0.93379   0.89949   0.00000  Uiso   1.00
C6     C     0.37446   0.74400   0.46489   0.00000  Uiso   1.00
C7     C     0.37956   0.68288   0.46943   0.00000  Uiso   1.00
C8     C     0.32359   0.65064   0.43748   0.00000  Uiso   1.00
C9     C     0.24710   0.57849   0.39449   0.00000  Uiso   1.00
C10    C     0.44033   0.82651   0.39460   0.00000  Uiso   1.00
C11    C     0.50080   0.83474   0.34001   0.00000  Uiso   1.00
C12    C     0.50028   0.87195   0.24885   0.00000  Uiso   1.00
C13    C     0.52605   0.92791   0.09673   0.00000  Uiso   1.00
C14    C     0.32106   0.83914   0.43118   0.00000  Uiso   1.00
C15    C     0.34049   0.85582   0.54889   0.00000  Uiso   1.00
C16    C     0.30545   0.89420   0.61717   0.00000  Uiso   1.00
C17    C     0.33145   0.90367   0.72204   0.00000  Uiso   1.00
C18    C     0.31556   0.77193   0.42968   0.00000  Uiso   1.00
C19    C     0.25958   0.73977   0.39771   0.00000  Uiso   1.00
C20    C     0.26458   0.67862   0.40220   0.00000  Uiso   1.00
C21    C     0.38142   0.85444   0.35938   0.00000  Uiso   1.00
C22    C     0.38081   0.89164   0.26829   0.00000  Uiso   1.00
C23    C     0.44127   0.89993   0.21358   0.00000  Uiso   1.00
H24    H     0.47536   0.76598   0.52342   0.00000  Uiso   1.00
H25    H     0.47102   0.81568   0.71612   0.00000  Uiso   1.00
H26    H     0.42515   0.66128   0.49667   0.00000  Uiso   1.00
H27    H     0.54637   0.81312   0.36728   0.00000  Uiso   1.00
H28    H     0.44022   0.88309   0.91425   0.00000  Uiso   1.00
H29    H     0.34351   0.55752   0.45150   0.00000  Uiso   1.00
H30    H     0.59912   0.87771   0.17865   0.00000  Uiso   1.00
H31    H     0.27519   0.86089   0.40376   0.00000  Uiso   1.00
H32    H     0.25987   0.91581   0.58990   0.00000  Uiso   1.00
H33    H     0.21400   0.76140   0.37046   0.00000  Uiso   1.00
H34    H     0.33522   0.91324   0.24106   0.00000  Uiso   1.00
H35    H     0.26884   0.96436   0.81180   0.00000  Uiso   1.00
H36    H     0.17213   0.63878   0.34906   0.00000  Uiso   1.00
H37    H     0.42774   0.95897   0.07620   0.00000  Uiso   1.00
O38    O     0.34805   0.95812   0.98764   0.00000  Uiso   1.00
O39    O     0.22118   0.53098   0.38052   0.00000  Uiso   1.00
O40    O     0.55653   0.95107   0.02255   0.00000  Uiso   1.00
N41    N     0.40200   0.89469   0.86458   0.00000  Uiso   1.00
N42    N     0.31157   0.59030   0.43196   0.00000  Uiso   1.00
N43    N     0.55055   0.88964   0.17685   0.00000  Uiso   1.00
N44    N     0.30978   0.93842   0.80946   0.00000  Uiso   1.00
N45    N     0.21936   0.63403   0.37684   0.00000  Uiso   1.00
N46    N     0.45833   0.93336   0.12172   0.00000  Uiso   1.00
C47    C     0.42950   0.28772   0.99601   0.00000  Uiso   1.00
C48    C     0.39939   0.32790   0.08411   0.00000  Uiso   1.00
C49    C     0.42544   0.33731   0.18889   0.00000  Uiso   1.00
C50    C     0.39045   0.37569   0.25732   0.00000  Uiso   1.00
C51    C     0.35264   0.43379   0.39949   0.00000  Uiso   1.00
C52    C     0.37446   0.24400   0.96489   0.00000  Uiso   1.00
C53    C     0.37956   0.18288   0.96943   0.00000  Uiso   1.00
C54    C     0.32359   0.15064   0.93748   0.00000  Uiso   1.00
C55    C     0.24710   0.07849   0.89449   0.00000  Uiso   1.00
C56    C     0.44033   0.32651   0.89460   0.00000  Uiso   1.00
C57    C     0.50080   0.33474   0.84001   0.00000  Uiso   1.00
C58    C     0.50028   0.37195   0.74885   0.00000  Uiso   1.00
C59    C     0.52605   0.42791   0.59673   0.00000  Uiso   1.00
C60    C     0.32106   0.33914   0.93118   0.00000  Uiso   1.00
C61    C     0.34049   0.35582   0.04889   0.00000  Uiso   1.00
C62    C     0.30545   0.39420   0.11717   0.00000  Uiso   1.00
C63    C     0.33145   0.40367   0.22204   0.00000  Uiso   1.00
C64    C     0.31556   0.27193   0.92968   0.00000  Uiso   1.00
C65    C     0.25958   0.23977   0.89771   0.00000  Uiso   1.00
C66    C     0.26458   0.17862   0.90220   0.00000  Uiso   1.00
C67    C     0.38142   0.35444   0.85938   0.00000  Uiso   1.00
C68    C     0.38081   0.39164   0.76829   0.00000  Uiso   1.00
C69    C     0.44127   0.39993   0.71358   0.00000  Uiso   1.00
H70    H     0.47536   0.26598   0.02342   0.00000  Uiso   1.00
H71    H     0.47102   0.31568   0.21612   0.00000  Uiso   1.00
H72    H     0.42515   0.16128   0.99667   0.00000  Uiso   1.00
H73    H     0.54637   0.31312   0.86728   0.00000  Uiso   1.00
H74    H     0.44022   0.38309   0.41425   0.00000  Uiso   1.00
H75    H     0.34351   0.05752   0.95150   0.00000  Uiso   1.00
H76    H     0.59912   0.37771   0.67865   0.00000  Uiso   1.00
H77    H     0.27519   0.36089   0.90376   0.00000  Uiso   1.00
H78    H     0.25987   0.41581   0.08990   0.00000  Uiso   1.00
H79    H     0.21400   0.26140   0.87046   0.00000  Uiso   1.00
H80    H     0.33522   0.41324   0.74106   0.00000  Uiso   1.00
H81    H     0.26884   0.46436   0.31180   0.00000  Uiso   1.00
H82    H     0.17213   0.13878   0.84906   0.00000  Uiso   1.00
H83    H     0.42774   0.45897   0.57620   0.00000  Uiso   1.00
O84    O     0.34805   0.45812   0.48764   0.00000  Uiso   1.00
O85    O     0.22118   0.03098   0.88052   0.00000  Uiso   1.00
O86    O     0.55653   0.45107   0.52255   0.00000  Uiso   1.00
N87    N     0.40200   0.39469   0.36458   0.00000  Uiso   1.00
N88    N     0.31157   0.09030   0.93196   0.00000  Uiso   1.00
N89    N     0.55055   0.38964   0.67685   0.00000  Uiso   1.00
N90    N     0.30978   0.43842   0.30946   0.00000  Uiso   1.00
N91    N     0.21936   0.13403   0.87684   0.00000  Uiso   1.00
N92    N     0.45833   0.43336   0.62172   0.00000  Uiso   1.00
C93    C     0.57050   0.21228   0.49601   0.00000  Uiso   1.00
C94    C     0.60061   0.17210   0.58411   0.00000  Uiso   1.00
C95    C     0.57456   0.16269   0.68889   0.00000  Uiso   1.00
C96    C     0.60955   0.12431   0.75732   0.00000  Uiso   1.00
C97    C     0.64736   0.06621   0.89949   0.00000  Uiso   1.00
C98    C     0.62554   0.25600   0.46489   0.00000  Uiso   1.00
C99    C     0.62044   0.31712   0.46943   0.00000  Uiso   1.00
C100   C     0.67641   0.34936   0.43748   0.00000  Uiso   1.00
C101   C     0.75290   0.42151   0.39449   0.00000  Uiso   1.00
C102   C     0.55967   0.17349   0.39460   0.00000  Uiso   1.00
C103   C     0.49920   0.16526   0.34001   0.00000  Uiso   1.00
C104   C     0.49972   0.12805   0.24885   0.00000  Uiso   1.00
C105   C     0.47395   0.07209   0.09673   0.00000  Uiso   1.00
C106   C     0.67894   0.16086   0.43118   0.00000  Uiso   1.00
C107   C     0.65951   0.14418   0.54889   0.00000  Uiso   1.00
C108   C     0.69455   0.10580   0.61717   0.00000  Uiso   1.00
C109   C     0.66855   0.09633   0.72204   0.00000  Uiso   1.00
C110   C     0.68444   0.22807   0.42968   0.00000  Uiso   1.00
C111   C     0.74042   0.26023   0.39771   0.00000  Uiso   1.00
C112   C     0.73542   0.32138   0.40220   0.00000  Uiso   1.00
C113   C     0.61858   0.14556   0.35938   0.00000  Uiso   1.00
C114   C     0.61919   0.10836   0.26829   0.00000  Uiso   1.00
C115   C     0.55873   0.10007   0.21358   0.00000  Uiso   1.00
H116   H     0.52464   0.23402   0.52342   0.00000  Uiso   1.00
H117   H     0.52898   0.18432   0.71612   0.00000  Uiso   1.00
H118   H     0.57485   0.33872   0.49667   0.00000  Uiso   1.00
H119   H     0.45363   0.18688   0.36728   0.00000  Uiso   1.00
H120   H     0.55978   0.11691   0.91425   0.00000  Uiso   1.00
H121   H     0.65649   0.44248   0.45150   0.00000  Uiso   1.00
H122   H     0.40088   0.12229   0.17865   0.00000  Uiso   1.00
H123   H     0.72481   0.13911   0.40376   0.00000  Uiso   1.00
H124   H     0.74013   0.08419   0.58990   0.00000  Uiso   1.00
H125   H     0.78600   0.23860   0.37046   0.00000  Uiso   1.00
H126   H     0.66478   0.08676   0.24106   0.00000  Uiso   1.00
H127   H     0.73116   0.03564   0.81180   0.00000  Uiso   1.00
H128   H     0.82787   0.36122   0.34906   0.00000  Uiso   1.00
H129   H     0.57226   0.04103   0.07620   0.00000  Uiso   1.00
O130   O     0.65195   0.04188   0.98764   0.00000  Uiso   1.00
O131   O     0.77882   0.46902   0.38052   0.00000  Uiso   1.00
O132   O     0.44347   0.04893   0.02255   0.00000  Uiso   1.00
N133   N     0.59800   0.10531   0.86458   0.00000  Uiso   1.00
N134   N     0.68843   0.40970   0.43196   0.00000  Uiso   1.00
N135   N     0.44945   0.11036   0.17685   0.00000  Uiso   1.00
N136   N     0.69022   0.06158   0.80946   0.00000  Uiso   1.00
N137   N     0.78064   0.36597   0.37684   0.00000  Uiso   1.00
N138   N     0.54167   0.06664   0.12172   0.00000  Uiso   1.00
C139   C     0.57050   0.71228   0.99601   0.00000  Uiso   1.00
C140   C     0.60061   0.67210   0.08411   0.00000  Uiso   1.00
C141   C     0.57456   0.66269   0.18889   0.00000  Uiso   1.00
C142   C     0.60955   0.62431   0.25732   0.00000  Uiso   1.00
C143   C     0.64736   0.56621   0.39949   0.00000  Uiso   1.00
C144   C     0.62554   0.75600   0.96489   0.00000  Uiso   1.00
C145   C     0.62044   0.81712   0.96943   0.00000  Uiso   1.00
C146   C     0.67641   0.84936   0.93748   0.00000  Uiso   1.00
C147   C     0.75290   0.92151   0.89449   0.00000  Uiso   1.00
C148   C     0.55967   0.67349   0.89460   0.00000  Uiso   1.00
C149   C     0.49920   0.66526   0.84001   0.00000  Uiso   1.00
C150   C     0.49972   0.62805   0.74885   0.00000  Uiso   1.00
C151   C     0.47395   0.57209   0.59673   0.00000  Uiso   1.00
C152   C     0.67894   0.66086   0.93118   0.00000  Uiso   1.00
C153   C     0.65951   0.64418   0.04889   0.00000  Uiso   1.00
C154   C     0.69455   0.60580   0.11717   0.00000  Uiso   1.00
C155   C     0.66855   0.59633   0.22204   0.00000  Uiso   1.00
C156   C     0.68444   0.72807   0.92968   0.00000  Uiso   1.00
C157   C     0.74042   0.76023   0.89771   0.00000  Uiso   1.00
C158   C     0.73542   0.82138   0.90220   0.00000  Uiso   1.00
C159   C     0.61858   0.64556   0.85938   0.00000  Uiso   1.00
C160   C     0.61919   0.60836   0.76829   0.00000  Uiso   1.00
C161   C     0.55873   0.60007   0.71358   0.00000  Uiso   1.00
H162   H     0.52464   0.73402   0.02342   0.00000  Uiso   1.00
H163   H     0.52898   0.68432   0.21612   0.00000  Uiso   1.00
H164   H     0.57485   0.83872   0.99667   0.00000  Uiso   1.00
H165   H     0.45363   0.68688   0.86728   0.00000  Uiso   1.00
H166   H     0.55978   0.61691   0.41425   0.00000  Uiso   1.00
H167   H     0.65649   0.94248   0.95150   0.00000  Uiso   1.00
H168   H     0.40088   0.62229   0.67865   0.00000  Uiso   1.00
H169   H     0.72481   0.63911   0.90376   0.00000  Uiso   1.00
H170   H     0.74013   0.58419   0.08990   0.00000  Uiso   1.00
H171   H     0.78600   0.73860   0.87046   0.00000  Uiso   1.00
H172   H     0.66478   0.58676   0.74106   0.00000  Uiso   1.00
H173   H     0.73116   0.53564   0.31180   0.00000  Uiso   1.00
H174   H     0.82787   0.86122   0.84906   0.00000  Uiso   1.00
H175   H     0.57226   0.54103   0.57620   0.00000  Uiso   1.00
O176   O     0.65195   0.54188   0.48764   0.00000  Uiso   1.00
O177   O     0.77882   0.96902   0.88052   0.00000  Uiso   1.00
O178   O     0.44347   0.54893   0.52255   0.00000  Uiso   1.00
N179   N     0.59800   0.60531   0.36458   0.00000  Uiso   1.00
N180   N     0.68843   0.90970   0.93196   0.00000  Uiso   1.00
N181   N     0.44945   0.61036   0.67685   0.00000  Uiso   1.00
N182   N     0.69022   0.56158   0.30946   0.00000  Uiso   1.00
N183   N     0.78064   0.86597   0.87684   0.00000  Uiso   1.00
N184   N     0.54167   0.56664   0.62172   0.00000  Uiso   1.00
C185   C     0.92950   0.71228   0.49601   0.00000  Uiso   1.00
C186   C     0.89939   0.67210   0.58411   0.00000  Uiso   1.00
C187   C     0.92544   0.66269   0.68889   0.00000  Uiso   1.00
C188   C     0.89045   0.62431   0.75732   0.00000  Uiso   1.00
C189   C     0.85264   0.56621   0.89949   0.00000  Uiso   1.00
C190   C     0.87446   0.75600   0.46489   0.00000  Uiso   1.00
C191   C     0.87956   0.81712   0.46943   0.00000  Uiso   1.00
C192   C     0.82359   0.84936   0.43748   0.00000  Uiso   1.00
C193   C     0.74710   0.92151   0.39449   0.00000  Uiso   1.00
C194   C     0.94033   0.67349   0.39460   0.00000  Uiso   1.00
C195   C     0.00080   0.66526   0.34001   0.00000  Uiso   1.00
C196   C     0.00028   0.62805   0.24885   0.00000  Uiso   1.00
C197   C     0.02605   0.57209   0.09673   0.00000  Uiso   1.00
C198   C     0.82106   0.66086   0.43118   0.00000  Uiso   1.00
C199   C     0.84049   0.64418   0.54889   0.00000  Uiso   1.00
C200   C     0.80545   0.60580   0.61717   0.00000  Uiso   1.00
C201   C     0.83145   0.59633   0.72204   0.00000  Uiso   1.00
C202   C     0.81556   0.72807   0.42968   0.00000  Uiso   1.00
C203   C     0.75958   0.76023   0.39771   0.00000  Uiso   1.00
C204   C     0.76458   0.82138   0.40220   0.00000  Uiso   1.00
C205   C     0.88142   0.64556   0.35938   0.00000  Uiso   1.00
C206   C     0.88081   0.60836   0.26829   0.00000  Uiso   1.00
C207   C     0.94127   0.60007   0.21358   0.00000  Uiso   1.00
H208   H     0.97536   0.73402   0.52342   0.00000  Uiso   1.00
H209   H     0.97102   0.68432   0.71612   0.00000  Uiso   1.00
H210   H     0.92515   0.83872   0.49667   0.00000  Uiso   1.00
H211   H     0.04637   0.68688   0.36728   0.00000  Uiso   1.00
H212   H     0.94022   0.61691   0.91425   0.00000  Uiso   1.00
H213   H     0.84351   0.94248   0.45150   0.00000  Uiso   1.00
H214   H     0.09912   0.62229   0.17865   0.00000  Uiso   1.00
H215   H     0.77519   0.63911   0.40376   0.00000  Uiso   1.00
H216   H     0.75987   0.58419   0.58990   0.00000  Uiso   1.00
H217   H     0.71400   0.73860   0.37046   0.00000  Uiso   1.00
H218   H     0.83522   0.58676   0.24106   0.00000  Uiso   1.00
H219   H     0.76884   0.53564   0.81180   0.00000  Uiso   1.00
H220   H     0.67213   0.86122   0.34906   0.00000  Uiso   1.00
H221   H     0.92774   0.54103   0.07620   0.00000  Uiso   1.00
O222   O     0.84805   0.54188   0.98764   0.00000  Uiso   1.00
O223   O     0.72118   0.96902   0.38052   0.00000  Uiso   1.00
O224   O     0.05653   0.54893   0.02255   0.00000  Uiso   1.00
N225   N     0.90200   0.60531   0.86458   0.00000  Uiso   1.00
N226   N     0.81157   0.90970   0.43196   0.00000  Uiso   1.00
N227   N     0.05055   0.61036   0.17685   0.00000  Uiso   1.00
N228   N     0.80978   0.56158   0.80946   0.00000  Uiso   1.00
N229   N     0.71936   0.86597   0.37684   0.00000  Uiso   1.00
N230   N     0.95833   0.56664   0.12172   0.00000  Uiso   1.00
C231   C     0.92950   0.21228   0.99601   0.00000  Uiso   1.00
C232   C     0.89939   0.17210   0.08411   0.00000  Uiso   1.00
C233   C     0.92544   0.16269   0.18889   0.00000  Uiso   1.00
C234   C     0.89045   0.12431   0.25732   0.00000  Uiso   1.00
C235   C     0.85264   0.06621   0.39949   0.00000  Uiso   1.00
C236   C     0.87446   0.25600   0.96489   0.00000  Uiso   1.00
C237   C     0.87956   0.31712   0.96943   0.00000  Uiso   1.00
C238   C     0.82359   0.34936   0.93748   0.00000  Uiso   1.00
C239   C     0.74710   0.42151   0.89449   0.00000  Uiso   1.00
C240   C     0.94033   0.17349   0.89460   0.00000  Uiso   1.00
C241   C     0.00080   0.16526   0.84001   0.00000  Uiso   1.00
C242   C     0.00028   0.12805   0.74885   0.00000  Uiso   1.00
C243   C     0.02605   0.07209   0.59673   0.00000  Uiso   1.00
C244   C     0.82106   0.16086   0.93118   0.00000  Uiso   1.00
C245   C     0.84049   0.14418   0.04889   0.00000  Uiso   1.00
C246   C     0.80545   0.10580   0.11717   0.00000  Uiso   1.00
C247   C     0.83145   0.09633   0.22204   0.00000  Uiso   1.00
C248   C     0.81556   0.22807   0.92968   0.00000  Uiso   1.00
C249   C     0.75958   0.26023   0.89771   0.00000  Uiso   1.00
C250   C     0.76458   0.32138   0.90220   0.00000  Uiso   1.00
C251   C     0.88142   0.14556   0.85938   0.00000  Uiso   1.00
C252   C     0.88081   0.10836   0.76829   0.00000  Uiso   1.00
C253   C     0.94127   0.10007   0.71358   0.00000  Uiso   1.00
H254   H     0.97536   0.23402   0.02342   0.00000  Uiso   1.00
H255   H     0.97102   0.18432   0.21612   0.00000  Uiso   1.00
H256   H     0.92515   0.33872   0.99667   0.00000  Uiso   1.00
H257   H     0.04637   0.18688   0.86728   0.00000  Uiso   1.00
H258   H     0.94022   0.11691   0.41425   0.00000  Uiso   1.00
H259   H     0.84351   0.44248   0.95150   0.00000  Uiso   1.00
H260   H     0.09912   0.12229   0.67865   0.00000  Uiso   1.00
H261   H     0.77519   0.13911   0.90376   0.00000  Uiso   1.00
H262   H     0.75987   0.08419   0.08990   0.00000  Uiso   1.00
H263   H     0.71400   0.23860   0.87046   0.00000  Uiso   1.00
H264   H     0.83522   0.08676   0.74106   0.00000  Uiso   1.00
H265   H     0.76884   0.03564   0.31180   0.00000  Uiso   1.00
H266   H     0.67213   0.36122   0.84906   0.00000  Uiso   1.00
H267   H     0.92774   0.04103   0.57620   0.00000  Uiso   1.00
O268   O     0.84805   0.04188   0.48764   0.00000  Uiso   1.00
O269   O     0.72118   0.46902   0.88052   0.00000  Uiso   1.00
O270   O     0.05653   0.04893   0.52255   0.00000  Uiso   1.00
N271   N     0.90200   0.10531   0.36458   0.00000  Uiso   1.00
N272   N     0.81157   0.40970   0.93196   0.00000  Uiso   1.00
N273   N     0.05055   0.11036   0.67685   0.00000  Uiso   1.00
N274   N     0.80978   0.06158   0.30946   0.00000  Uiso   1.00
N275   N     0.71936   0.36597   0.87684   0.00000  Uiso   1.00
N276   N     0.95833   0.06664   0.62172   0.00000  Uiso   1.00
C277   C     0.07050   0.28772   0.49601   0.00000  Uiso   1.00
C278   C     0.10061   0.32790   0.58411   0.00000  Uiso   1.00
C279   C     0.07456   0.33731   0.68889   0.00000  Uiso   1.00
C280   C     0.10955   0.37569   0.75732   0.00000  Uiso   1.00
C281   C     0.14736   0.43379   0.89949   0.00000  Uiso   1.00
C282   C     0.12554   0.24400   0.46489   0.00000  Uiso   1.00
C283   C     0.12044   0.18288   0.46943   0.00000  Uiso   1.00
C284   C     0.17641   0.15064   0.43748   0.00000  Uiso   1.00
C285   C     0.25290   0.07849   0.39449   0.00000  Uiso   1.00
C286   C     0.05967   0.32651   0.39460   0.00000  Uiso   1.00
C287   C     0.99920   0.33474   0.34001   0.00000  Uiso   1.00
C288   C     0.99972   0.37195   0.24885   0.00000  Uiso   1.00
C289   C     0.97395   0.42791   0.09673   0.00000  Uiso   1.00
C290   C     0.17894   0.33914   0.43118   0.00000  Uiso   1.00
C291   C     0.15951   0.35582   0.54889   0.00000  Uiso   1.00
C292   C     0.19455   0.39420   0.61717   0.00000  Uiso   1.00
C293   C     0.16855   0.40367   0.72204   0.00000  Uiso   1.00
C294   C     0.18444   0.27193   0.42968   0.00000  Uiso   1.00
C295   C     0.24042   0.23977   0.39771   0.00000  Uiso   1.00
C296   C     0.23542   0.17862   0.40220   0.00000  Uiso   1.00
C297   C     0.11858   0.35444   0.35938   0.00000  Uiso   1.00
C298   C     0.11919   0.39164   0.26829   0.00000  Uiso   1.00
C299   C     0.05873   0.39993   0.21358   0.00000  Uiso   1.00
H300   H     0.02464   0.26598   0.52342   0.00000  Uiso   1.00
H301   H     0.02898   0.31568   0.71612   0.00000  Uiso   1.00
H302   H     0.07485   0.16128   0.49667   0.00000  Uiso   1.00
H303   H     0.95363   0.31312   0.36728   0.00000  Uiso   1.00
H304   H     0.05978   0.38309   0.91425   0.00000  Uiso   1.00
H305   H     0.15649   0.05752   0.45150   0.00000  Uiso   1.00
H306   H     0.90088   0.37771   0.17865   0.00000  Uiso   1.00
H307   H     0.22481   0.36089   0.40376   0.00000  Uiso   1.00
H308   H     0.24013   0.41581   0.58990   0.00000  Uiso   1.00
H309   H     0.28600   0.26140   0.37046   0.00000  Uiso   1.00
H310   H     0.16478   0.41324   0.24106   0.00000  Uiso   1.00
H311   H     0.23116   0.46436   0.81180   0.00000  Uiso   1.00
H312   H     0.32787   0.13878   0.34906   0.00000  Uiso   1.00
H313   H     0.07226   0.45897   0.07620   0.00000  Uiso   1.00
O314   O     0.15195   0.45812   0.98764   0.00000  Uiso   1.00
O315   O     0.27882   0.03098   0.38052   0.00000  Uiso   1.00
O316   O     0.94347   0.45107   0.02255   0.00000  Uiso   1.00
N317   N     0.09800   0.39469   0.86458   0.00000  Uiso   1.00
N318   N     0.18843   0.09030   0.43196   0.00000  Uiso   1.00
N319   N     0.94945   0.38964   0.17685   0.00000  Uiso   1.00
N320   N     0.19022   0.43842   0.80946   0.00000  Uiso   1.00
N321   N     0.28064   0.13403   0.37684   0.00000  Uiso   1.00
N322   N     0.04167   0.43336   0.12172   0.00000  Uiso   1.00
C323   C     0.07050   0.78772   0.99601   0.00000  Uiso   1.00
C324   C     0.10061   0.82790   0.08411   0.00000  Uiso   1.00
C325   C     0.07456   0.83731   0.18889   0.00000  Uiso   1.00
C326   C     0.10955   0.87569   0.25732   0.00000  Uiso   1.00
C327   C     0.14736   0.93379   0.39949   0.00000  Uiso   1.00
C328   C     0.12554   0.74400   0.96489   0.00000  Uiso   1.00
C329   C     0.12044   0.68288   0.96943   0.00000  Uiso   1.00
C330   C     0.17641   0.65064   0.93748   0.00000  Uiso   1.00
C331   C     0.25290   0.57849   0.89449   0.00000  Uiso   1.00
C332   C     0.05967   0.82651   0.89460   0.00000  Uiso   1.00
C333   C     0.99920   0.83474   0.84001   0.00000  Uiso   1.00
C334   C     0.99972   0.87195   0.74885   0.00000  Uiso   1.00
C335   C     0.97395   0.92791   0.59673   0.00000  Uiso   1.00
C336   C     0.17894   0.83914   0.93118   0.00000  Uiso   1.00
C337   C     0.15951   0.85582   0.04889   0.00000  Uiso   1.00
C338   C     0.19455   0.89420   0.11717   0.00000  Uiso   1.00
C339   C     0.16855   0.90367   0.22204   0.00000  Uiso   1.00
C340   C     0.18444   0.77193   0.92968   0.00000  Uiso   1.00
C341   C     0.24042   0.73977   0.89771   0.00000  Uiso   1.00
C342   C     0.23542   0.67862   0.90220   0.00000  Uiso   1.00
C343   C     0.11858   0.85444   0.85938   0.00000  Uiso   1.00
C344   C     0.11919   0.89164   0.76829   0.00000  Uiso   1.00
C345   C     0.05873   0.89993   0.71358   0.00000  Uiso   1.00
H346   H     0.02464   0.76598   0.02342   0.00000  Uiso   1.00
H347   H     0.02898   0.81568   0.21612   0.00000  Uiso   1.00
H348   H     0.07485   0.66128   0.99667   0.00000  Uiso   1.00
H349   H     0.95363   0.81312   0.86728   0.00000  Uiso   1.00
H350   H     0.05978   0.88309   0.41425   0.00000  Uiso   1.00
H351   H     0.15649   0.55752   0.95150   0.00000  Uiso   1.00
H352   H     0.90088   0.87771   0.67865   0.00000  Uiso   1.00
H353   H     0.22481   0.86089   0.90376   0.00000  Uiso   1.00
H354   H     0.24013   0.91581   0.08990   0.00000  Uiso   1.00
H355   H     0.28600   0.76140   0.87046   0.00000  Uiso   1.00
H356   H     0.16478   0.91324   0.74106   0.00000  Uiso   1.00
H357   H     0.23116   0.96436   0.31180   0.00000  Uiso   1.00
H358   H     0.32787   0.63878   0.84906   0.00000  Uiso   1.00
H359   H     0.07226   0.95897   0.57620   0.00000  Uiso   1.00
O360   O     0.15195   0.95812   0.48764   0.00000  Uiso   1.00
O361   O     0.27882   0.53098   0.88052   0.00000  Uiso   1.00
O362   O     0.94347   0.95107   0.52255   0.00000  Uiso   1.00
N363   N     0.09800   0.89469   0.36458   0.00000  Uiso   1.00
N364   N     0.18843   0.59030   0.93196   0.00000  Uiso   1.00
N365   N     0.94945   0.88964   0.67685   0.00000  Uiso   1.00
N366   N     0.19022   0.93842   0.30946   0.00000  Uiso   1.00
N367   N     0.28064   0.63403   0.87684   0.00000  Uiso   1.00
N368   N     0.04167   0.93336   0.62172   0.00000  Uiso   1.00
