data_job_04746
_audit_creation_date              2018-12-19
_audit_creation_method            'Materials Studio'
_symmetry_space_group_name_H-M    'P1'
_symmetry_Int_Tables_number       1
_symmetry_cell_setting            triclinic
loop_
_symmetry_equiv_pos_as_xyz
  x,y,z
_cell_length_a                    12.3621
_cell_length_b                    22.8686
_cell_length_c                    17.4049
_cell_angle_alpha                 90.0000
_cell_angle_beta                  112.3649
_cell_angle_gamma                 90.0000
loop_
_atom_site_label
_atom_site_type_symbol
_atom_site_fract_x
_atom_site_fract_y
_atom_site_fract_z
_atom_site_U_iso_or_equiv
_atom_site_adp_type
_atom_site_occupancy
C1     C     0.10843   0.52323   0.56356   0.00000  Uiso   1.00
C2     C     0.01072   0.49213   0.58060   0.00000  Uiso   1.00
C3     C     0.02100   0.46609   0.65508   0.00000  Uiso   1.00
C4     C     0.92142   0.43989   0.65815   0.00000  Uiso   1.00
C5     C     0.78583   0.39160   0.69510   0.00000  Uiso   1.00
C6     C     0.11753   0.49270   0.48834   0.00000  Uiso   1.00
C7     C     0.21763   0.46715   0.48526   0.00000  Uiso   1.00
C8     C     0.20795   0.44143   0.41066   0.00000  Uiso   1.00
C9     C     0.23822   0.39407   0.30436   0.00000  Uiso   1.00
C10    C     0.06331   0.58468   0.53469   0.00000  Uiso   1.00
C11    C     0.11784   0.63646   0.57055   0.00000  Uiso   1.00
C12    C     0.06253   0.68818   0.53496   0.00000  Uiso   1.00
C13    C     0.00862   0.78362   0.50061   0.00000  Uiso   1.00
C14    C     0.91328   0.52300   0.43656   0.00000  Uiso   1.00
C15    C     0.90472   0.49201   0.51162   0.00000  Uiso   1.00
C16    C     0.80509   0.46584   0.51458   0.00000  Uiso   1.00
C17    C     0.81523   0.43977   0.58905   0.00000  Uiso   1.00
C18    C     0.01154   0.49258   0.41937   0.00000  Uiso   1.00
C19    C     0.00171   0.46690   0.34475   0.00000  Uiso   1.00
C20    C     0.10177   0.44131   0.34156   0.00000  Uiso   1.00
C21    C     0.95731   0.58456   0.46571   0.00000  Uiso   1.00
C22    C     0.90192   0.63621   0.43005   0.00000  Uiso   1.00
C23    C     0.95635   0.68806   0.46585   0.00000  Uiso   1.00
H24    H     0.19096   0.52332   0.61725   0.00000  Uiso   1.00
H25    H     0.10305   0.46619   0.70845   0.00000  Uiso   1.00
H26    H     0.29964   0.46726   0.53865   0.00000  Uiso   1.00
H27    H     0.19986   0.63654   0.62393   0.00000  Uiso   1.00
H28    H     0.95886   0.40278   0.77912   0.00000  Uiso   1.00
H29    H     0.37339   0.40505   0.42108   0.00000  Uiso   1.00
H30    H     0.16300   0.76201   0.60091   0.00000  Uiso   1.00
H31    H     0.83075   0.52290   0.38285   0.00000  Uiso   1.00
H32    H     0.72308   0.46575   0.46119   0.00000  Uiso   1.00
H33    H     0.91967   0.46682   0.29139   0.00000  Uiso   1.00
H34    H     0.81989   0.63610   0.37667   0.00000  Uiso   1.00
H35    H     0.65046   0.40242   0.57844   0.00000  Uiso   1.00
H36    H     0.06500   0.40469   0.22039   0.00000  Uiso   1.00
H37    H     0.85459   0.76165   0.40023   0.00000  Uiso   1.00
O38    O     0.74034   0.36500   0.73453   0.00000  Uiso   1.00
O39    O     0.28420   0.36798   0.26479   0.00000  Uiso   1.00
O40    O     0.00815   0.83630   0.50073   0.00000  Uiso   1.00
N41    N     0.90105   0.41055   0.72115   0.00000  Uiso   1.00
N42    N     0.28861   0.41266   0.38640   0.00000  Uiso   1.00
N43    N     0.09192   0.74639   0.55452   0.00000  Uiso   1.00
N44    N     0.73510   0.41036   0.61316   0.00000  Uiso   1.00
N45    N     0.12266   0.41247   0.27842   0.00000  Uiso   1.00
N46    N     0.92597   0.74620   0.44653   0.00000  Uiso   1.00
C47    C     0.54297   0.76572   0.43245   0.00000  Uiso   1.00
C48    C     0.42593   0.79681   0.41071   0.00000  Uiso   1.00
C49    C     0.36141   0.82285   0.33504   0.00000  Uiso   1.00
C50    C     0.25654   0.84905   0.32750   0.00000  Uiso   1.00
C51    C     0.08074   0.89734   0.28374   0.00000  Uiso   1.00
C52    C     0.62804   0.79624   0.50971   0.00000  Uiso   1.00
C53    C     0.73345   0.82179   0.51729   0.00000  Uiso   1.00
C54    C     0.79871   0.84752   0.59310   0.00000  Uiso   1.00
C55    C     0.93673   0.89488   0.70307   0.00000  Uiso   1.00
C56    C     0.52594   0.70427   0.45996   0.00000  Uiso   1.00
C57    C     0.54554   0.65248   0.42573   0.00000  Uiso   1.00
C58    C     0.52488   0.60076   0.45967   0.00000  Uiso   1.00
C59    C     0.50438   0.50532   0.49239   0.00000  Uiso   1.00
C60    C     0.47146   0.76595   0.55362   0.00000  Uiso   1.00
C61    C     0.38709   0.79694   0.47652   0.00000  Uiso   1.00
C62    C     0.28229   0.82311   0.46909   0.00000  Uiso   1.00
C63    C     0.21762   0.84918   0.39342   0.00000  Uiso   1.00
C64    C     0.58920   0.79637   0.57553   0.00000  Uiso   1.00
C65    C     0.65433   0.82205   0.65135   0.00000  Uiso   1.00
C66    C     0.75980   0.84764   0.65903   0.00000  Uiso   1.00
C67    C     0.48710   0.70439   0.52578   0.00000  Uiso   1.00
C68    C     0.46641   0.65274   0.55978   0.00000  Uiso   1.00
C69    C     0.48597   0.60089   0.52560   0.00000  Uiso   1.00
H70    H     0.57321   0.76562   0.38122   0.00000  Uiso   1.00
H71    H     0.39150   0.82274   0.28412   0.00000  Uiso   1.00
H72    H     0.76348   0.82168   0.46635   0.00000  Uiso   1.00
H73    H     0.57560   0.65240   0.37480   0.00000  Uiso   1.00
H74    H     0.17293   0.88615   0.20551   0.00000  Uiso   1.00
H75    H     0.95729   0.88390   0.58976   0.00000  Uiso   1.00
H76    H     0.56111   0.52693   0.39670   0.00000  Uiso   1.00
H77    H     0.44122   0.76605   0.60486   0.00000  Uiso   1.00
H78    H     0.25225   0.82320   0.52003   0.00000  Uiso   1.00
H79    H     0.62424   0.82214   0.70226   0.00000  Uiso   1.00
H80    H     0.43636   0.65286   0.61071   0.00000  Uiso   1.00
H81    H     0.05991   0.88652   0.39699   0.00000  Uiso   1.00
H82    H     0.84429   0.88427   0.78124   0.00000  Uiso   1.00
H83    H     0.44809   0.52730   0.58818   0.00000  Uiso   1.00
O84    O     0.99452   0.92394   0.24142   0.00000  Uiso   1.00
O85    O     0.02358   0.92098   0.74554   0.00000  Uiso   1.00
O86    O     0.50379   0.45264   0.49226   0.00000  Uiso   1.00
N87    N     0.17225   0.87839   0.26221   0.00000  Uiso   1.00
N88    N     0.90558   0.87629   0.62145   0.00000  Uiso   1.00
N89    N     0.53521   0.54255   0.44098   0.00000  Uiso   1.00
N90    N     0.11144   0.87859   0.36524   0.00000  Uiso   1.00
N91    N     0.84477   0.87649   0.72449   0.00000  Uiso   1.00
N92    N     0.47439   0.54275   0.54401   0.00000  Uiso   1.00
C93    C     0.60843   0.02323   0.56356   0.00000  Uiso   1.00
C94    C     0.51072   0.99213   0.58060   0.00000  Uiso   1.00
C95    C     0.52100   0.96609   0.65508   0.00000  Uiso   1.00
C96    C     0.42142   0.93989   0.65815   0.00000  Uiso   1.00
C97    C     0.28583   0.89160   0.69510   0.00000  Uiso   1.00
C98    C     0.61753   0.99270   0.48834   0.00000  Uiso   1.00
C99    C     0.71763   0.96715   0.48526   0.00000  Uiso   1.00
C100   C     0.70795   0.94143   0.41066   0.00000  Uiso   1.00
C101   C     0.73822   0.89407   0.30436   0.00000  Uiso   1.00
C102   C     0.56331   0.08468   0.53469   0.00000  Uiso   1.00
C103   C     0.61784   0.13646   0.57055   0.00000  Uiso   1.00
C104   C     0.56253   0.18818   0.53496   0.00000  Uiso   1.00
C105   C     0.50862   0.28362   0.50061   0.00000  Uiso   1.00
C106   C     0.41328   0.02300   0.43656   0.00000  Uiso   1.00
C107   C     0.40472   0.99201   0.51162   0.00000  Uiso   1.00
C108   C     0.30509   0.96584   0.51458   0.00000  Uiso   1.00
C109   C     0.31523   0.93977   0.58905   0.00000  Uiso   1.00
C110   C     0.51154   0.99258   0.41937   0.00000  Uiso   1.00
C111   C     0.50171   0.96690   0.34475   0.00000  Uiso   1.00
C112   C     0.60177   0.94131   0.34156   0.00000  Uiso   1.00
C113   C     0.45731   0.08456   0.46571   0.00000  Uiso   1.00
C114   C     0.40192   0.13621   0.43005   0.00000  Uiso   1.00
C115   C     0.45635   0.18806   0.46585   0.00000  Uiso   1.00
H116   H     0.69096   0.02332   0.61725   0.00000  Uiso   1.00
H117   H     0.60305   0.96619   0.70845   0.00000  Uiso   1.00
H118   H     0.79964   0.96726   0.53865   0.00000  Uiso   1.00
H119   H     0.69986   0.13654   0.62393   0.00000  Uiso   1.00
H120   H     0.45886   0.90278   0.77912   0.00000  Uiso   1.00
H121   H     0.87339   0.90505   0.42108   0.00000  Uiso   1.00
H122   H     0.66300   0.26201   0.60091   0.00000  Uiso   1.00
H123   H     0.33075   0.02290   0.38285   0.00000  Uiso   1.00
H124   H     0.22308   0.96575   0.46119   0.00000  Uiso   1.00
H125   H     0.41967   0.96682   0.29139   0.00000  Uiso   1.00
H126   H     0.31989   0.13610   0.37667   0.00000  Uiso   1.00
H127   H     0.15046   0.90242   0.57844   0.00000  Uiso   1.00
H128   H     0.56500   0.90469   0.22039   0.00000  Uiso   1.00
H129   H     0.35459   0.26165   0.40023   0.00000  Uiso   1.00
O130   O     0.24034   0.86500   0.73453   0.00000  Uiso   1.00
O131   O     0.78420   0.86798   0.26479   0.00000  Uiso   1.00
O132   O     0.50815   0.33630   0.50073   0.00000  Uiso   1.00
N133   N     0.40105   0.91055   0.72115   0.00000  Uiso   1.00
N134   N     0.78861   0.91266   0.38640   0.00000  Uiso   1.00
N135   N     0.59192   0.24639   0.55452   0.00000  Uiso   1.00
N136   N     0.23510   0.91036   0.61316   0.00000  Uiso   1.00
N137   N     0.62266   0.91247   0.27842   0.00000  Uiso   1.00
N138   N     0.42597   0.24620   0.44653   0.00000  Uiso   1.00
C139   C     0.04297   0.26572   0.43245   0.00000  Uiso   1.00
C140   C     0.92593   0.29681   0.41071   0.00000  Uiso   1.00
C141   C     0.86141   0.32285   0.33504   0.00000  Uiso   1.00
C142   C     0.75654   0.34905   0.32750   0.00000  Uiso   1.00
C143   C     0.58074   0.39734   0.28374   0.00000  Uiso   1.00
C144   C     0.12804   0.29624   0.50971   0.00000  Uiso   1.00
C145   C     0.23345   0.32179   0.51729   0.00000  Uiso   1.00
C146   C     0.29871   0.34752   0.59310   0.00000  Uiso   1.00
C147   C     0.43673   0.39488   0.70307   0.00000  Uiso   1.00
C148   C     0.02594   0.20427   0.45996   0.00000  Uiso   1.00
C149   C     0.04554   0.15248   0.42573   0.00000  Uiso   1.00
C150   C     0.02488   0.10076   0.45967   0.00000  Uiso   1.00
C151   C     0.00438   0.00532   0.49239   0.00000  Uiso   1.00
C152   C     0.97146   0.26595   0.55362   0.00000  Uiso   1.00
C153   C     0.88709   0.29694   0.47652   0.00000  Uiso   1.00
C154   C     0.78229   0.32311   0.46909   0.00000  Uiso   1.00
C155   C     0.71762   0.34918   0.39342   0.00000  Uiso   1.00
C156   C     0.08920   0.29637   0.57553   0.00000  Uiso   1.00
C157   C     0.15433   0.32205   0.65135   0.00000  Uiso   1.00
C158   C     0.25980   0.34764   0.65903   0.00000  Uiso   1.00
C159   C     0.98710   0.20439   0.52578   0.00000  Uiso   1.00
C160   C     0.96641   0.15274   0.55978   0.00000  Uiso   1.00
C161   C     0.98597   0.10089   0.52560   0.00000  Uiso   1.00
H162   H     0.07321   0.26562   0.38122   0.00000  Uiso   1.00
H163   H     0.89150   0.32274   0.28412   0.00000  Uiso   1.00
H164   H     0.26348   0.32168   0.46635   0.00000  Uiso   1.00
H165   H     0.07560   0.15240   0.37480   0.00000  Uiso   1.00
H166   H     0.67293   0.38615   0.20551   0.00000  Uiso   1.00
H167   H     0.45729   0.38390   0.58976   0.00000  Uiso   1.00
H168   H     0.06111   0.02693   0.39670   0.00000  Uiso   1.00
H169   H     0.94122   0.26605   0.60486   0.00000  Uiso   1.00
H170   H     0.75225   0.32320   0.52003   0.00000  Uiso   1.00
H171   H     0.12424   0.32214   0.70226   0.00000  Uiso   1.00
H172   H     0.93636   0.15286   0.61071   0.00000  Uiso   1.00
H173   H     0.55991   0.38652   0.39699   0.00000  Uiso   1.00
H174   H     0.34429   0.38427   0.78124   0.00000  Uiso   1.00
H175   H     0.94809   0.02730   0.58818   0.00000  Uiso   1.00
O176   O     0.49452   0.42394   0.24142   0.00000  Uiso   1.00
O177   O     0.52358   0.42098   0.74554   0.00000  Uiso   1.00
O178   O     0.00379   0.95264   0.49226   0.00000  Uiso   1.00
N179   N     0.67225   0.37839   0.26221   0.00000  Uiso   1.00
N180   N     0.40558   0.37629   0.62145   0.00000  Uiso   1.00
N181   N     0.03521   0.04255   0.44098   0.00000  Uiso   1.00
N182   N     0.61144   0.37859   0.36524   0.00000  Uiso   1.00
N183   N     0.34477   0.37649   0.72449   0.00000  Uiso   1.00
N184   N     0.97439   0.04275   0.54401   0.00000  Uiso   1.00
C185   C     0.10843   0.47677   0.06356   0.00000  Uiso   1.00
C186   C     0.01072   0.50787   0.08060   0.00000  Uiso   1.00
C187   C     0.02100   0.53391   0.15508   0.00000  Uiso   1.00
C188   C     0.92142   0.56011   0.15815   0.00000  Uiso   1.00
C189   C     0.78583   0.60840   0.19510   0.00000  Uiso   1.00
C190   C     0.11753   0.50730   0.98834   0.00000  Uiso   1.00
C191   C     0.21763   0.53285   0.98526   0.00000  Uiso   1.00
C192   C     0.20795   0.55857   0.91066   0.00000  Uiso   1.00
C193   C     0.23822   0.60593   0.80436   0.00000  Uiso   1.00
C194   C     0.06331   0.41532   0.03469   0.00000  Uiso   1.00
C195   C     0.11784   0.36354   0.07055   0.00000  Uiso   1.00
C196   C     0.06253   0.31182   0.03496   0.00000  Uiso   1.00
C197   C     0.00862   0.21638   0.00061   0.00000  Uiso   1.00
C198   C     0.91328   0.47700   0.93656   0.00000  Uiso   1.00
C199   C     0.90472   0.50799   0.01162   0.00000  Uiso   1.00
C200   C     0.80509   0.53416   0.01458   0.00000  Uiso   1.00
C201   C     0.81523   0.56023   0.08905   0.00000  Uiso   1.00
C202   C     0.01154   0.50742   0.91937   0.00000  Uiso   1.00
C203   C     0.00171   0.53310   0.84475   0.00000  Uiso   1.00
C204   C     0.10177   0.55869   0.84156   0.00000  Uiso   1.00
C205   C     0.95731   0.41544   0.96571   0.00000  Uiso   1.00
C206   C     0.90192   0.36379   0.93005   0.00000  Uiso   1.00
C207   C     0.95635   0.31194   0.96585   0.00000  Uiso   1.00
H208   H     0.19096   0.47668   0.11725   0.00000  Uiso   1.00
H209   H     0.10305   0.53381   0.20845   0.00000  Uiso   1.00
H210   H     0.29964   0.53274   0.03865   0.00000  Uiso   1.00
H211   H     0.19986   0.36346   0.12393   0.00000  Uiso   1.00
H212   H     0.95886   0.59722   0.27912   0.00000  Uiso   1.00
H213   H     0.37339   0.59495   0.92108   0.00000  Uiso   1.00
H214   H     0.16300   0.23799   0.10091   0.00000  Uiso   1.00
H215   H     0.83075   0.47710   0.88285   0.00000  Uiso   1.00
H216   H     0.72308   0.53425   0.96119   0.00000  Uiso   1.00
H217   H     0.91967   0.53318   0.79139   0.00000  Uiso   1.00
H218   H     0.81989   0.36390   0.87667   0.00000  Uiso   1.00
H219   H     0.65046   0.59758   0.07844   0.00000  Uiso   1.00
H220   H     0.06500   0.59531   0.72039   0.00000  Uiso   1.00
H221   H     0.85459   0.23835   0.90023   0.00000  Uiso   1.00
O222   O     0.74034   0.63500   0.23453   0.00000  Uiso   1.00
O223   O     0.28420   0.63202   0.76479   0.00000  Uiso   1.00
O224   O     0.00815   0.16370   0.00073   0.00000  Uiso   1.00
N225   N     0.90105   0.58945   0.22115   0.00000  Uiso   1.00
N226   N     0.28861   0.58734   0.88640   0.00000  Uiso   1.00
N227   N     0.09192   0.25361   0.05452   0.00000  Uiso   1.00
N228   N     0.73510   0.58964   0.11316   0.00000  Uiso   1.00
N229   N     0.12266   0.58753   0.77842   0.00000  Uiso   1.00
N230   N     0.92597   0.25380   0.94653   0.00000  Uiso   1.00
C231   C     0.54297   0.23428   0.93245   0.00000  Uiso   1.00
C232   C     0.42593   0.20319   0.91071   0.00000  Uiso   1.00
C233   C     0.36141   0.17715   0.83504   0.00000  Uiso   1.00
C234   C     0.25654   0.15095   0.82750   0.00000  Uiso   1.00
C235   C     0.08074   0.10266   0.78374   0.00000  Uiso   1.00
C236   C     0.62804   0.20376   0.00971   0.00000  Uiso   1.00
C237   C     0.73345   0.17821   0.01729   0.00000  Uiso   1.00
C238   C     0.79871   0.15248   0.09310   0.00000  Uiso   1.00
C239   C     0.93673   0.10512   0.20307   0.00000  Uiso   1.00
C240   C     0.52594   0.29573   0.95996   0.00000  Uiso   1.00
C241   C     0.54554   0.34752   0.92573   0.00000  Uiso   1.00
C242   C     0.52488   0.39924   0.95967   0.00000  Uiso   1.00
C243   C     0.50438   0.49468   0.99239   0.00000  Uiso   1.00
C244   C     0.47146   0.23405   0.05362   0.00000  Uiso   1.00
C245   C     0.38709   0.20306   0.97652   0.00000  Uiso   1.00
C246   C     0.28229   0.17689   0.96909   0.00000  Uiso   1.00
C247   C     0.21762   0.15082   0.89342   0.00000  Uiso   1.00
C248   C     0.58920   0.20363   0.07553   0.00000  Uiso   1.00
C249   C     0.65433   0.17795   0.15135   0.00000  Uiso   1.00
C250   C     0.75980   0.15236   0.15903   0.00000  Uiso   1.00
C251   C     0.48710   0.29561   0.02578   0.00000  Uiso   1.00
C252   C     0.46641   0.34726   0.05978   0.00000  Uiso   1.00
C253   C     0.48597   0.39911   0.02560   0.00000  Uiso   1.00
H254   H     0.57321   0.23438   0.88122   0.00000  Uiso   1.00
H255   H     0.39150   0.17726   0.78412   0.00000  Uiso   1.00
H256   H     0.76348   0.17832   0.96635   0.00000  Uiso   1.00
H257   H     0.57560   0.34760   0.87480   0.00000  Uiso   1.00
H258   H     0.17293   0.11385   0.70551   0.00000  Uiso   1.00
H259   H     0.95729   0.11610   0.08976   0.00000  Uiso   1.00
H260   H     0.56111   0.47307   0.89670   0.00000  Uiso   1.00
H261   H     0.44122   0.23395   0.10486   0.00000  Uiso   1.00
H262   H     0.25225   0.17680   0.02003   0.00000  Uiso   1.00
H263   H     0.62424   0.17786   0.20226   0.00000  Uiso   1.00
H264   H     0.43636   0.34714   0.11071   0.00000  Uiso   1.00
H265   H     0.05991   0.11348   0.89699   0.00000  Uiso   1.00
H266   H     0.84429   0.11573   0.28124   0.00000  Uiso   1.00
H267   H     0.44809   0.47270   0.08818   0.00000  Uiso   1.00
O268   O     0.99452   0.07606   0.74142   0.00000  Uiso   1.00
O269   O     0.02358   0.07902   0.24554   0.00000  Uiso   1.00
O270   O     0.50379   0.54736   0.99226   0.00000  Uiso   1.00
N271   N     0.17225   0.12161   0.76221   0.00000  Uiso   1.00
N272   N     0.90558   0.12371   0.12145   0.00000  Uiso   1.00
N273   N     0.53521   0.45745   0.94098   0.00000  Uiso   1.00
N274   N     0.11144   0.12141   0.86524   0.00000  Uiso   1.00
N275   N     0.84477   0.12351   0.22449   0.00000  Uiso   1.00
N276   N     0.47439   0.45725   0.04401   0.00000  Uiso   1.00
C277   C     0.60843   0.97677   0.06356   0.00000  Uiso   1.00
C278   C     0.51072   0.00787   0.08060   0.00000  Uiso   1.00
C279   C     0.52100   0.03391   0.15508   0.00000  Uiso   1.00
C280   C     0.42142   0.06011   0.15815   0.00000  Uiso   1.00
C281   C     0.28583   0.10840   0.19510   0.00000  Uiso   1.00
C282   C     0.61753   0.00730   0.98834   0.00000  Uiso   1.00
C283   C     0.71763   0.03285   0.98526   0.00000  Uiso   1.00
C284   C     0.70795   0.05857   0.91066   0.00000  Uiso   1.00
C285   C     0.73822   0.10593   0.80436   0.00000  Uiso   1.00
C286   C     0.56331   0.91532   0.03469   0.00000  Uiso   1.00
C287   C     0.61784   0.86354   0.07055   0.00000  Uiso   1.00
C288   C     0.56253   0.81182   0.03496   0.00000  Uiso   1.00
C289   C     0.50862   0.71638   0.00061   0.00000  Uiso   1.00
C290   C     0.41328   0.97700   0.93656   0.00000  Uiso   1.00
C291   C     0.40472   0.00799   0.01162   0.00000  Uiso   1.00
C292   C     0.30509   0.03416   0.01458   0.00000  Uiso   1.00
C293   C     0.31523   0.06023   0.08905   0.00000  Uiso   1.00
C294   C     0.51154   0.00742   0.91937   0.00000  Uiso   1.00
C295   C     0.50171   0.03310   0.84475   0.00000  Uiso   1.00
C296   C     0.60177   0.05869   0.84156   0.00000  Uiso   1.00
C297   C     0.45731   0.91544   0.96571   0.00000  Uiso   1.00
C298   C     0.40192   0.86379   0.93005   0.00000  Uiso   1.00
C299   C     0.45635   0.81194   0.96585   0.00000  Uiso   1.00
H300   H     0.69096   0.97668   0.11725   0.00000  Uiso   1.00
H301   H     0.60305   0.03381   0.20845   0.00000  Uiso   1.00
H302   H     0.79964   0.03274   0.03865   0.00000  Uiso   1.00
H303   H     0.69986   0.86346   0.12393   0.00000  Uiso   1.00
H304   H     0.45886   0.09722   0.27912   0.00000  Uiso   1.00
H305   H     0.87339   0.09495   0.92108   0.00000  Uiso   1.00
H306   H     0.66300   0.73799   0.10091   0.00000  Uiso   1.00
H307   H     0.33075   0.97710   0.88285   0.00000  Uiso   1.00
H308   H     0.22308   0.03425   0.96119   0.00000  Uiso   1.00
H309   H     0.41967   0.03318   0.79139   0.00000  Uiso   1.00
H310   H     0.31989   0.86390   0.87667   0.00000  Uiso   1.00
H311   H     0.15046   0.09758   0.07844   0.00000  Uiso   1.00
H312   H     0.56500   0.09531   0.72039   0.00000  Uiso   1.00
H313   H     0.35459   0.73835   0.90023   0.00000  Uiso   1.00
O314   O     0.24034   0.13500   0.23453   0.00000  Uiso   1.00
O315   O     0.78420   0.13202   0.76479   0.00000  Uiso   1.00
O316   O     0.50815   0.66370   0.00073   0.00000  Uiso   1.00
N317   N     0.40105   0.08945   0.22115   0.00000  Uiso   1.00
N318   N     0.78861   0.08734   0.88640   0.00000  Uiso   1.00
N319   N     0.59192   0.75361   0.05452   0.00000  Uiso   1.00
N320   N     0.23510   0.08964   0.11316   0.00000  Uiso   1.00
N321   N     0.62266   0.08753   0.77842   0.00000  Uiso   1.00
N322   N     0.42597   0.75380   0.94653   0.00000  Uiso   1.00
C323   C     0.04297   0.73428   0.93245   0.00000  Uiso   1.00
C324   C     0.92593   0.70319   0.91071   0.00000  Uiso   1.00
C325   C     0.86141   0.67715   0.83504   0.00000  Uiso   1.00
C326   C     0.75654   0.65095   0.82750   0.00000  Uiso   1.00
C327   C     0.58074   0.60266   0.78374   0.00000  Uiso   1.00
C328   C     0.12804   0.70376   0.00971   0.00000  Uiso   1.00
C329   C     0.23345   0.67821   0.01729   0.00000  Uiso   1.00
C330   C     0.29871   0.65248   0.09310   0.00000  Uiso   1.00
C331   C     0.43673   0.60512   0.20307   0.00000  Uiso   1.00
C332   C     0.02594   0.79573   0.95996   0.00000  Uiso   1.00
C333   C     0.04554   0.84752   0.92573   0.00000  Uiso   1.00
C334   C     0.02488   0.89924   0.95967   0.00000  Uiso   1.00
C335   C     0.00438   0.99468   0.99239   0.00000  Uiso   1.00
C336   C     0.97146   0.73405   0.05362   0.00000  Uiso   1.00
C337   C     0.88709   0.70306   0.97652   0.00000  Uiso   1.00
C338   C     0.78229   0.67689   0.96909   0.00000  Uiso   1.00
C339   C     0.71762   0.65082   0.89342   0.00000  Uiso   1.00
C340   C     0.08920   0.70363   0.07553   0.00000  Uiso   1.00
C341   C     0.15433   0.67795   0.15135   0.00000  Uiso   1.00
C342   C     0.25980   0.65236   0.15903   0.00000  Uiso   1.00
C343   C     0.98710   0.79561   0.02578   0.00000  Uiso   1.00
C344   C     0.96641   0.84726   0.05978   0.00000  Uiso   1.00
C345   C     0.98597   0.89911   0.02560   0.00000  Uiso   1.00
H346   H     0.07321   0.73438   0.88122   0.00000  Uiso   1.00
H347   H     0.89150   0.67726   0.78412   0.00000  Uiso   1.00
H348   H     0.26348   0.67832   0.96635   0.00000  Uiso   1.00
H349   H     0.07560   0.84760   0.87480   0.00000  Uiso   1.00
H350   H     0.67293   0.61385   0.70551   0.00000  Uiso   1.00
H351   H     0.45729   0.61610   0.08976   0.00000  Uiso   1.00
H352   H     0.06111   0.97307   0.89670   0.00000  Uiso   1.00
H353   H     0.94122   0.73395   0.10486   0.00000  Uiso   1.00
H354   H     0.75225   0.67680   0.02003   0.00000  Uiso   1.00
H355   H     0.12424   0.67786   0.20226   0.00000  Uiso   1.00
H356   H     0.93636   0.84714   0.11071   0.00000  Uiso   1.00
H357   H     0.55991   0.61348   0.89699   0.00000  Uiso   1.00
H358   H     0.34429   0.61573   0.28124   0.00000  Uiso   1.00
H359   H     0.94809   0.97270   0.08818   0.00000  Uiso   1.00
O360   O     0.49452   0.57606   0.74142   0.00000  Uiso   1.00
O361   O     0.52358   0.57902   0.24554   0.00000  Uiso   1.00
O362   O     0.00379   0.04736   0.99226   0.00000  Uiso   1.00
N363   N     0.67225   0.62161   0.76221   0.00000  Uiso   1.00
N364   N     0.40558   0.62371   0.12145   0.00000  Uiso   1.00
N365   N     0.03521   0.95745   0.94098   0.00000  Uiso   1.00
N366   N     0.61144   0.62141   0.86524   0.00000  Uiso   1.00
N367   N     0.34477   0.62351   0.22449   0.00000  Uiso   1.00
N368   N     0.97439   0.95725   0.04401   0.00000  Uiso   1.00
