data_job_01324
_audit_creation_date              2018-12-19
_audit_creation_method            'Materials Studio'
_symmetry_space_group_name_H-M    'P1'
_symmetry_Int_Tables_number       1
_symmetry_cell_setting            triclinic
loop_
_symmetry_equiv_pos_as_xyz
  x,y,z
_cell_length_a                    19.9563
_cell_length_b                    19.9563
_cell_length_c                    12.4180
_cell_angle_alpha                 90.0000
_cell_angle_beta                  90.0000
_cell_angle_gamma                 120.0000
loop_
_atom_site_label
_atom_site_type_symbol
_atom_site_fract_x
_atom_site_fract_y
_atom_site_fract_z
_atom_site_U_iso_or_equiv
_atom_site_adp_type
_atom_site_occupancy
C1     C     0.23887   0.42022   0.49486   0.00000  Uiso   1.00
C2     C     0.19443   0.44216   0.41600   0.00000  Uiso   1.00
C3     C     0.22424   0.48531   0.32269   0.00000  Uiso   1.00
C4     C     0.17424   0.49917   0.26137   0.00000  Uiso   1.00
C5     C     0.11697   0.53758   0.13424   0.00000  Uiso   1.00
C6     C     0.23175   0.45056   0.60447   0.00000  Uiso   1.00
C7     C     0.29294   0.50076   0.66962   0.00000  Uiso   1.00
C8     C     0.27435   0.52168   0.76697   0.00000  Uiso   1.00
C9     C     0.27502   0.57308   0.93247   0.00000  Uiso   1.00
C10    C     0.19325   0.33221   0.50320   0.00000  Uiso   1.00
C11    C     0.22207   0.28290   0.48324   0.00000  Uiso   1.00
C12    C     0.17107   0.20418   0.49534   0.00000  Uiso   1.00
C13    C     0.11196   0.07183   0.50361   0.00000  Uiso   1.00
C14    C     0.09707   0.36807   0.55189   0.00000  Uiso   1.00
C15    C     0.11741   0.41384   0.44698   0.00000  Uiso   1.00
C16    C     0.06735   0.42762   0.38579   0.00000  Uiso   1.00
C17    C     0.09708   0.47079   0.29240   0.00000  Uiso   1.00
C18    C     0.15473   0.42224   0.63545   0.00000  Uiso   1.00
C19    C     0.13605   0.44307   0.73272   0.00000  Uiso   1.00
C20    C     0.19720   0.49330   0.79800   0.00000  Uiso   1.00
C21    C     0.11623   0.30388   0.53417   0.00000  Uiso   1.00
C22    C     0.06518   0.22522   0.54633   0.00000  Uiso   1.00
C23    C     0.09391   0.17580   0.52638   0.00000  Uiso   1.00
H24    H     0.29883   0.44227   0.47075   0.00000  Uiso   1.00
H25    H     0.28385   0.50723   0.29875   0.00000  Uiso   1.00
H26    H     0.35254   0.52267   0.64563   0.00000  Uiso   1.00
H27    H     0.28167   0.30484   0.45926   0.00000  Uiso   1.00
H28    H     0.23328   0.56678   0.12174   0.00000  Uiso   1.00
H29    H     0.37811   0.59931   0.85318   0.00000  Uiso   1.00
H30    H     0.22868   0.13999   0.46019   0.00000  Uiso   1.00
H31    H     0.03710   0.34602   0.57601   0.00000  Uiso   1.00
H32    H     0.00775   0.40570   0.40978   0.00000  Uiso   1.00
H33    H     0.07644   0.42114   0.75667   0.00000  Uiso   1.00
H34    H     0.00558   0.20332   0.57030   0.00000  Uiso   1.00
H35    H     0.00919   0.48438   0.21186   0.00000  Uiso   1.00
H36    H     0.15402   0.51691   0.94330   0.00000  Uiso   1.00
H37    H     0.00459   0.05759   0.55031   0.00000  Uiso   1.00
O38    O     0.10666   0.56660   0.05557   0.00000  Uiso   1.00
O39    O     0.29667   0.60927   0.01520   0.00000  Uiso   1.00
O40    O     0.10062   0.00665   0.49960   0.00000  Uiso   1.00
N41    N     0.18456   0.53918   0.16575   0.00000  Uiso   1.00
N42    N     0.31997   0.56961   0.84959   0.00000  Uiso   1.00
N43    N     0.18027   0.14019   0.48221   0.00000  Uiso   1.00
N44    N     0.06398   0.49484   0.21424   0.00000  Uiso   1.00
N45    N     0.19939   0.52527   0.89809   0.00000  Uiso   1.00
N46    N     0.05969   0.09585   0.53070   0.00000  Uiso   1.00
C47    C     0.77892   0.58115   0.36216   0.00000  Uiso   1.00
C48    C     0.82579   0.56809   0.27622   0.00000  Uiso   1.00
C49    C     0.79833   0.53373   0.17658   0.00000  Uiso   1.00
C50    C     0.85033   0.52711   0.10938   0.00000  Uiso   1.00
C51    C     0.91144   0.50273   0.97118   0.00000  Uiso   1.00
C52    C     0.78491   0.54150   0.46372   0.00000  Uiso   1.00
C53    C     0.72307   0.48478   0.52173   0.00000  Uiso   1.00
C54    C     0.74065   0.45578   0.61236   0.00000  Uiso   1.00
C55    C     0.73829   0.39015   0.76530   0.00000  Uiso   1.00
C56    C     0.82279   0.66767   0.38618   0.00000  Uiso   1.00
C57    C     0.79280   0.71704   0.37902   0.00000  Uiso   1.00
C58    C     0.84228   0.79427   0.40440   0.00000  Uiso   1.00
C59    C     0.89873   0.92454   0.43694   0.00000  Uiso   1.00
C60    C     0.92009   0.63052   0.42000   0.00000  Uiso   1.00
C61    C     0.90247   0.59491   0.30764   0.00000  Uiso   1.00
C62    C     0.95452   0.58835   0.24057   0.00000  Uiso   1.00
C63    C     0.92714   0.55398   0.14084   0.00000  Uiso   1.00
C64    C     0.86158   0.56831   0.49513   0.00000  Uiso   1.00
C65    C     0.87926   0.53940   0.58571   0.00000  Uiso   1.00
C66    C     0.81747   0.48264   0.64384   0.00000  Uiso   1.00
C67    C     0.89947   0.69449   0.41759   0.00000  Uiso   1.00
C68    C     0.94900   0.77166   0.44300   0.00000  Uiso   1.00
C69    C     0.91909   0.82113   0.43587   0.00000  Uiso   1.00
H70    H     0.71922   0.56027   0.33771   0.00000  Uiso   1.00
H71    H     0.73899   0.51297   0.15231   0.00000  Uiso   1.00
H72    H     0.66374   0.46404   0.49741   0.00000  Uiso   1.00
H73    H     0.73347   0.69626   0.35471   0.00000  Uiso   1.00
H74    H     0.79471   0.47234   0.96062   0.00000  Uiso   1.00
H75    H     0.63605   0.36918   0.68829   0.00000  Uiso   1.00
H76    H     0.78307   0.85887   0.38740   0.00000  Uiso   1.00
H77    H     0.97979   0.65139   0.44446   0.00000  Uiso   1.00
H78    H     0.01385   0.60910   0.26490   0.00000  Uiso   1.00
H79    H     0.93860   0.56017   0.61000   0.00000  Uiso   1.00
H80    H     0.00833   0.79239   0.46730   0.00000  Uiso   1.00
H81    H     0.01780   0.55036   0.05200   0.00000  Uiso   1.00
H82    H     0.85914   0.44720   0.77969   0.00000  Uiso   1.00
H83    H     0.00617   0.93689   0.47879   0.00000  Uiso   1.00
O84    O     0.92396   0.48186   0.88628   0.00000  Uiso   1.00
O85    O     0.71580   0.34653   0.84098   0.00000  Uiso   1.00
O86    O     0.90869   0.98899   0.44620   0.00000  Uiso   1.00
N87    N     0.84254   0.49652   0.00676   0.00000  Uiso   1.00
N88    N     0.69420   0.40006   0.68708   0.00000  Uiso   1.00
N89    N     0.83165   0.85788   0.40580   0.00000  Uiso   1.00
N90    N     0.96259   0.53850   0.05593   0.00000  Uiso   1.00
N91    N     0.81425   0.44204   0.73626   0.00000  Uiso   1.00
N92    N     0.95170   0.89986   0.45497   0.00000  Uiso   1.00
C93    C     0.57978   0.81865   0.82819   0.00000  Uiso   1.00
C94    C     0.55784   0.75227   0.74933   0.00000  Uiso   1.00
C95    C     0.51469   0.73892   0.65602   0.00000  Uiso   1.00
C96    C     0.50083   0.67507   0.59471   0.00000  Uiso   1.00
C97    C     0.46242   0.57939   0.46758   0.00000  Uiso   1.00
C98    C     0.54944   0.78120   0.93780   0.00000  Uiso   1.00
C99    C     0.49924   0.79218   0.00296   0.00000  Uiso   1.00
C100   C     0.47832   0.75268   0.10030   0.00000  Uiso   1.00
C101   C     0.42692   0.70194   0.26580   0.00000  Uiso   1.00
C102   C     0.66779   0.86104   0.83653   0.00000  Uiso   1.00
C103   C     0.71710   0.93916   0.81657   0.00000  Uiso   1.00
C104   C     0.79582   0.96689   0.82868   0.00000  Uiso   1.00
C105   C     0.92817   0.04013   0.83694   0.00000  Uiso   1.00
C106   C     0.63193   0.72900   0.88523   0.00000  Uiso   1.00
C107   C     0.58616   0.70357   0.78032   0.00000  Uiso   1.00
C108   C     0.57238   0.63973   0.71912   0.00000  Uiso   1.00
C109   C     0.52921   0.62629   0.62574   0.00000  Uiso   1.00
C110   C     0.57776   0.73250   0.96878   0.00000  Uiso   1.00
C111   C     0.55693   0.69298   0.06606   0.00000  Uiso   1.00
C112   C     0.50670   0.70389   0.13134   0.00000  Uiso   1.00
C113   C     0.69612   0.81234   0.86751   0.00000  Uiso   1.00
C114   C     0.77478   0.83996   0.87966   0.00000  Uiso   1.00
C115   C     0.82420   0.91811   0.85971   0.00000  Uiso   1.00
H116   H     0.55773   0.85656   0.80408   0.00000  Uiso   1.00
H117   H     0.49277   0.77662   0.63208   0.00000  Uiso   1.00
H118   H     0.47733   0.82987   0.97897   0.00000  Uiso   1.00
H119   H     0.69516   0.97683   0.79260   0.00000  Uiso   1.00
H120   H     0.43322   0.66650   0.45507   0.00000  Uiso   1.00
H121   H     0.40069   0.77880   0.18651   0.00000  Uiso   1.00
H122   H     0.86001   0.08869   0.79352   0.00000  Uiso   1.00
H123   H     0.65398   0.69108   0.90935   0.00000  Uiso   1.00
H124   H     0.59430   0.60205   0.74312   0.00000  Uiso   1.00
H125   H     0.57886   0.65530   0.09000   0.00000  Uiso   1.00
H126   H     0.79668   0.80226   0.90364   0.00000  Uiso   1.00
H127   H     0.51562   0.52481   0.54519   0.00000  Uiso   1.00
H128   H     0.48309   0.63711   0.27664   0.00000  Uiso   1.00
H129   H     0.94241   0.94700   0.88365   0.00000  Uiso   1.00
O130   O     0.43340   0.54006   0.38890   0.00000  Uiso   1.00
O131   O     0.39073   0.68741   0.34853   0.00000  Uiso   1.00
O132   O     0.99335   0.09397   0.83293   0.00000  Uiso   1.00
N133   N     0.46082   0.64538   0.49908   0.00000  Uiso   1.00
N134   N     0.43039   0.75036   0.18293   0.00000  Uiso   1.00
N135   N     0.85981   0.04009   0.81554   0.00000  Uiso   1.00
N136   N     0.50516   0.56913   0.54758   0.00000  Uiso   1.00
N137   N     0.47473   0.67412   0.23142   0.00000  Uiso   1.00
N138   N     0.90415   0.96385   0.86404   0.00000  Uiso   1.00
C139   C     0.41885   0.19777   0.69550   0.00000  Uiso   1.00
C140   C     0.43191   0.25770   0.60956   0.00000  Uiso   1.00
C141   C     0.46627   0.26461   0.50992   0.00000  Uiso   1.00
C142   C     0.47289   0.32322   0.44271   0.00000  Uiso   1.00
C143   C     0.49727   0.40871   0.30451   0.00000  Uiso   1.00
C144   C     0.45850   0.24341   0.79705   0.00000  Uiso   1.00
C145   C     0.51522   0.23829   0.85506   0.00000  Uiso   1.00
C146   C     0.54422   0.28487   0.94570   0.00000  Uiso   1.00
C147   C     0.60985   0.34814   0.09864   0.00000  Uiso   1.00
C148   C     0.33233   0.15512   0.71951   0.00000  Uiso   1.00
C149   C     0.28296   0.07577   0.71235   0.00000  Uiso   1.00
C150   C     0.20573   0.04801   0.73773   0.00000  Uiso   1.00
C151   C     0.07546   0.97419   0.77028   0.00000  Uiso   1.00
C152   C     0.36948   0.28957   0.75333   0.00000  Uiso   1.00
C153   C     0.40509   0.30756   0.64098   0.00000  Uiso   1.00
C154   C     0.41165   0.36617   0.57390   0.00000  Uiso   1.00
C155   C     0.44602   0.37317   0.47417   0.00000  Uiso   1.00
C156   C     0.43169   0.29327   0.82847   0.00000  Uiso   1.00
C157   C     0.46060   0.33986   0.91904   0.00000  Uiso   1.00
C158   C     0.51736   0.33482   0.97717   0.00000  Uiso   1.00
C159   C     0.30551   0.20498   0.75092   0.00000  Uiso   1.00
C160   C     0.22834   0.17734   0.77633   0.00000  Uiso   1.00
C161   C     0.17887   0.09796   0.76920   0.00000  Uiso   1.00
H162   H     0.43973   0.15895   0.67105   0.00000  Uiso   1.00
H163   H     0.48703   0.22601   0.48564   0.00000  Uiso   1.00
H164   H     0.53596   0.19970   0.83074   0.00000  Uiso   1.00
H165   H     0.30374   0.03720   0.68804   0.00000  Uiso   1.00
H166   H     0.52766   0.32237   0.29395   0.00000  Uiso   1.00
H167   H     0.63082   0.26686   0.02163   0.00000  Uiso   1.00
H168   H     0.14113   0.92420   0.72074   0.00000  Uiso   1.00
H169   H     0.34861   0.32839   0.77779   0.00000  Uiso   1.00
H170   H     0.39090   0.40475   0.59823   0.00000  Uiso   1.00
H171   H     0.43983   0.37844   0.94333   0.00000  Uiso   1.00
H172   H     0.20761   0.21594   0.80064   0.00000  Uiso   1.00
H173   H     0.44964   0.46744   0.38534   0.00000  Uiso   1.00
H174   H     0.55280   0.41194   0.11302   0.00000  Uiso   1.00
H175   H     0.06311   0.06928   0.81212   0.00000  Uiso   1.00
O176   O     0.51814   0.44209   0.21962   0.00000  Uiso   1.00
O177   O     0.65347   0.36926   0.17431   0.00000  Uiso   1.00
O178   O     0.01101   0.91971   0.77954   0.00000  Uiso   1.00
N179   N     0.50348   0.34602   0.34009   0.00000  Uiso   1.00
N180   N     0.59994   0.29414   0.02042   0.00000  Uiso   1.00
N181   N     0.14212   0.97378   0.73913   0.00000  Uiso   1.00
N182   N     0.46150   0.42408   0.38926   0.00000  Uiso   1.00
N183   N     0.55796   0.37220   0.06959   0.00000  Uiso   1.00
N184   N     0.10014   0.05184   0.78831   0.00000  Uiso   1.00
C185   C     0.18135   0.76113   0.16152   0.00000  Uiso   1.00
C186   C     0.24773   0.80557   0.08267   0.00000  Uiso   1.00
C187   C     0.26108   0.77576   0.98936   0.00000  Uiso   1.00
C188   C     0.32493   0.82576   0.92804   0.00000  Uiso   1.00
C189   C     0.42061   0.88303   0.80091   0.00000  Uiso   1.00
C190   C     0.21880   0.76825   0.27113   0.00000  Uiso   1.00
C191   C     0.20782   0.70706   0.33629   0.00000  Uiso   1.00
C192   C     0.24732   0.72565   0.43363   0.00000  Uiso   1.00
C193   C     0.29806   0.72498   0.59914   0.00000  Uiso   1.00
C194   C     0.13896   0.80675   0.16987   0.00000  Uiso   1.00
C195   C     0.06084   0.77793   0.14990   0.00000  Uiso   1.00
C196   C     0.03311   0.82893   0.16201   0.00000  Uiso   1.00
C197   C     0.95987   0.88804   0.17028   0.00000  Uiso   1.00
C198   C     0.27100   0.90293   0.21856   0.00000  Uiso   1.00
C199   C     0.29643   0.88259   0.11365   0.00000  Uiso   1.00
C200   C     0.36027   0.93265   0.05246   0.00000  Uiso   1.00
C201   C     0.37371   0.90292   0.95907   0.00000  Uiso   1.00
C202   C     0.26750   0.84527   0.30211   0.00000  Uiso   1.00
C203   C     0.30702   0.86395   0.39939   0.00000  Uiso   1.00
C204   C     0.29611   0.80280   0.46467   0.00000  Uiso   1.00
C205   C     0.18766   0.88377   0.20084   0.00000  Uiso   1.00
C206   C     0.16004   0.93482   0.21299   0.00000  Uiso   1.00
C207   C     0.08189   0.90609   0.19305   0.00000  Uiso   1.00
H208   H     0.14344   0.70117   0.13741   0.00000  Uiso   1.00
H209   H     0.22338   0.71615   0.96542   0.00000  Uiso   1.00
H210   H     0.17013   0.64746   0.31230   0.00000  Uiso   1.00
H211   H     0.02317   0.71833   0.12593   0.00000  Uiso   1.00
H212   H     0.33350   0.76672   0.78841   0.00000  Uiso   1.00
H213   H     0.22120   0.62189   0.51984   0.00000  Uiso   1.00
H214   H     0.91131   0.77132   0.12686   0.00000  Uiso   1.00
H215   H     0.30892   0.96290   0.24268   0.00000  Uiso   1.00
H216   H     0.39795   0.99225   0.07645   0.00000  Uiso   1.00
H217   H     0.34470   0.92356   0.42334   0.00000  Uiso   1.00
H218   H     0.19774   0.99442   0.23697   0.00000  Uiso   1.00
H219   H     0.47519   0.99081   0.87853   0.00000  Uiso   1.00
H220   H     0.36289   0.84598   0.60997   0.00000  Uiso   1.00
H221   H     0.05300   0.99541   0.21698   0.00000  Uiso   1.00
O222   O     0.45994   0.89334   0.72224   0.00000  Uiso   1.00
O223   O     0.31259   0.70333   0.68186   0.00000  Uiso   1.00
O224   O     0.90603   0.89938   0.16627   0.00000  Uiso   1.00
N225   N     0.35462   0.81544   0.83242   0.00000  Uiso   1.00
N226   N     0.24964   0.68003   0.51626   0.00000  Uiso   1.00
N227   N     0.95991   0.81973   0.14888   0.00000  Uiso   1.00
N228   N     0.43087   0.93602   0.88091   0.00000  Uiso   1.00
N229   N     0.32588   0.80061   0.56475   0.00000  Uiso   1.00
N230   N     0.03615   0.94031   0.19737   0.00000  Uiso   1.00
C231   C     0.80223   0.22108   0.02883   0.00000  Uiso   1.00
C232   C     0.74230   0.17421   0.94289   0.00000  Uiso   1.00
C233   C     0.73539   0.20167   0.84325   0.00000  Uiso   1.00
C234   C     0.67678   0.14967   0.77604   0.00000  Uiso   1.00
C235   C     0.59129   0.08856   0.63785   0.00000  Uiso   1.00
C236   C     0.75659   0.21509   0.13039   0.00000  Uiso   1.00
C237   C     0.76171   0.27693   0.18840   0.00000  Uiso   1.00
C238   C     0.71513   0.25935   0.27903   0.00000  Uiso   1.00
C239   C     0.65186   0.26171   0.43197   0.00000  Uiso   1.00
C240   C     0.84488   0.17721   0.05285   0.00000  Uiso   1.00
C241   C     0.92423   0.20720   0.04569   0.00000  Uiso   1.00
C242   C     0.95199   0.15772   0.07107   0.00000  Uiso   1.00
C243   C     0.02581   0.10127   0.10361   0.00000  Uiso   1.00
C244   C     0.71043   0.07991   0.08666   0.00000  Uiso   1.00
C245   C     0.69244   0.09753   0.97431   0.00000  Uiso   1.00
C246   C     0.63383   0.04548   0.90723   0.00000  Uiso   1.00
C247   C     0.62683   0.07286   0.80751   0.00000  Uiso   1.00
C248   C     0.70673   0.13842   0.16180   0.00000  Uiso   1.00
C249   C     0.66014   0.12074   0.25238   0.00000  Uiso   1.00
C250   C     0.66518   0.18253   0.31050   0.00000  Uiso   1.00
C251   C     0.79502   0.10053   0.08426   0.00000  Uiso   1.00
C252   C     0.82266   0.05100   0.10966   0.00000  Uiso   1.00
C253   C     0.90204   0.08091   0.10254   0.00000  Uiso   1.00
H254   H     0.84105   0.28078   0.00438   0.00000  Uiso   1.00
H255   H     0.77399   0.26101   0.81897   0.00000  Uiso   1.00
H256   H     0.80030   0.33626   0.16407   0.00000  Uiso   1.00
H257   H     0.96280   0.26653   0.02138   0.00000  Uiso   1.00
H258   H     0.67763   0.20529   0.62729   0.00000  Uiso   1.00
H259   H     0.73314   0.36395   0.35496   0.00000  Uiso   1.00
H260   H     0.07580   0.21693   0.05407   0.00000  Uiso   1.00
H261   H     0.67161   0.02021   0.11112   0.00000  Uiso   1.00
H262   H     0.59525   0.98615   0.93156   0.00000  Uiso   1.00
H263   H     0.62156   0.06140   0.27666   0.00000  Uiso   1.00
H264   H     0.78406   0.99167   0.13397   0.00000  Uiso   1.00
H265   H     0.53256   0.98220   0.71867   0.00000  Uiso   1.00
H266   H     0.58806   0.14086   0.44635   0.00000  Uiso   1.00
H267   H     0.93072   0.99383   0.14545   0.00000  Uiso   1.00
O268   O     0.55791   0.07604   0.55295   0.00000  Uiso   1.00
O269   O     0.63074   0.28420   0.50764   0.00000  Uiso   1.00
O270   O     0.08029   0.09131   0.11287   0.00000  Uiso   1.00
N271   N     0.65398   0.15746   0.67342   0.00000  Uiso   1.00
N272   N     0.70586   0.30580   0.35375   0.00000  Uiso   1.00
N273   N     0.02622   0.16835   0.07247   0.00000  Uiso   1.00
N274   N     0.57592   0.03741   0.72260   0.00000  Uiso   1.00
N275   N     0.62780   0.18575   0.40292   0.00000  Uiso   1.00
N276   N     0.94816   0.04830   0.12164   0.00000  Uiso   1.00
