data_job_04971
_audit_creation_date              2018-12-19
_audit_creation_method            'Materials Studio'
_symmetry_space_group_name_H-M    'P1'
_symmetry_Int_Tables_number       1
_symmetry_cell_setting            triclinic
loop_
_symmetry_equiv_pos_as_xyz
  x,y,z
_cell_length_a                    23.2029
_cell_length_b                    19.5861
_cell_length_c                    12.4682
_cell_angle_alpha                 90.0000
_cell_angle_beta                  90.0000
_cell_angle_gamma                 90.0000
loop_
_atom_site_label
_atom_site_type_symbol
_atom_site_fract_x
_atom_site_fract_y
_atom_site_fract_z
_atom_site_U_iso_or_equiv
_atom_site_adp_type
_atom_site_occupancy
C1     C     0.19684   0.70478   0.89927   0.00000  Uiso   1.00
C2     C     0.16524   0.66376   0.81354   0.00000  Uiso   1.00
C3     C     0.18724   0.64577   0.71397   0.00000  Uiso   1.00
C4     C     0.15153   0.60815   0.64694   0.00000  Uiso   1.00
C5     C     0.11092   0.54737   0.50901   0.00000  Uiso   1.00
C6     C     0.15854   0.76607   0.92399   0.00000  Uiso   1.00
C7     C     0.17491   0.83409   0.91729   0.00000  Uiso   1.00
C8     C     0.13357   0.88259   0.94325   0.00000  Uiso   1.00
C9     C     0.08258   0.98064   0.97686   0.00000  Uiso   1.00
C10    C     0.19647   0.66067   0.00004   0.00000  Uiso   1.00
C11    C     0.24472   0.64008   0.05732   0.00000  Uiso   1.00
C12    C     0.23530   0.59986   0.14733   0.00000  Uiso   1.00
C13    C     0.24320   0.53426   0.29904   0.00000  Uiso   1.00
C14    C     0.09431   0.66998   0.95730   0.00000  Uiso   1.00
C15    C     0.10955   0.64486   0.84506   0.00000  Uiso   1.00
C16    C     0.07380   0.60726   0.77817   0.00000  Uiso   1.00
C17    C     0.09574   0.58921   0.67852   0.00000  Uiso   1.00
C18    C     0.10286   0.74716   0.95550   0.00000  Uiso   1.00
C19    C     0.06148   0.79558   0.98149   0.00000  Uiso   1.00
C20    C     0.07778   0.86366   0.97482   0.00000  Uiso   1.00
C21    C     0.14078   0.64176   0.03156   0.00000  Uiso   1.00
C22    C     0.13128   0.60157   0.12151   0.00000  Uiso   1.00
C23    C     0.17951   0.58093   0.17891   0.00000  Uiso   1.00
H24    H     0.24019   0.71950   0.87473   0.00000  Uiso   1.00
H25    H     0.23033   0.66041   0.68960   0.00000  Uiso   1.00
H26    H     0.21801   0.84870   0.89290   0.00000  Uiso   1.00
H27    H     0.28781   0.65472   0.03290   0.00000  Uiso   1.00
H28    H     0.19483   0.58658   0.49824   0.00000  Uiso   1.00
H29    H     0.16886   0.98360   0.92694   0.00000  Uiso   1.00
H30    H     0.31604   0.57456   0.22216   0.00000  Uiso   1.00
H31    H     0.05095   0.65526   0.98184   0.00000  Uiso   1.00
H32    H     0.03071   0.59264   0.80259   0.00000  Uiso   1.00
H33    H     0.01839   0.78093   0.00588   0.00000  Uiso   1.00
H34    H     0.08818   0.58695   0.14588   0.00000  Uiso   1.00
H35    H     0.03281   0.53158   0.58994   0.00000  Uiso   1.00
H36    H     0.00684   0.92860   0.01864   0.00000  Uiso   1.00
H37    H     0.15402   0.51956   0.31386   0.00000  Uiso   1.00
O38    O     0.10391   0.51907   0.42422   0.00000  Uiso   1.00
O39    O     0.06984   0.03994   0.98668   0.00000  Uiso   1.00
O40    O     0.26294   0.50329   0.37400   0.00000  Uiso   1.00
N41    N     0.15948   0.58222   0.54443   0.00000  Uiso   1.00
N42    N     0.13520   0.95341   0.94522   0.00000  Uiso   1.00
N43    N     0.27280   0.57101   0.22125   0.00000  Uiso   1.00
N44    N     0.07230   0.55262   0.59377   0.00000  Uiso   1.00
N45    N     0.04801   0.92381   0.99456   0.00000  Uiso   1.00
N46    N     0.18562   0.54141   0.27059   0.00000  Uiso   1.00
C47    C     0.30316   0.79522   0.39927   0.00000  Uiso   1.00
C48    C     0.33476   0.83624   0.31354   0.00000  Uiso   1.00
C49    C     0.31276   0.85423   0.21397   0.00000  Uiso   1.00
C50    C     0.34847   0.89185   0.14694   0.00000  Uiso   1.00
C51    C     0.38908   0.95263   0.00901   0.00000  Uiso   1.00
C52    C     0.34146   0.73393   0.42399   0.00000  Uiso   1.00
C53    C     0.32509   0.66591   0.41729   0.00000  Uiso   1.00
C54    C     0.36643   0.61741   0.44325   0.00000  Uiso   1.00
C55    C     0.41742   0.51936   0.47686   0.00000  Uiso   1.00
C56    C     0.30353   0.83933   0.50004   0.00000  Uiso   1.00
C57    C     0.25528   0.85992   0.55732   0.00000  Uiso   1.00
C58    C     0.26470   0.90014   0.64733   0.00000  Uiso   1.00
C59    C     0.25680   0.96574   0.79904   0.00000  Uiso   1.00
C60    C     0.40569   0.83002   0.45730   0.00000  Uiso   1.00
C61    C     0.39045   0.85514   0.34506   0.00000  Uiso   1.00
C62    C     0.42620   0.89274   0.27817   0.00000  Uiso   1.00
C63    C     0.40426   0.91079   0.17852   0.00000  Uiso   1.00
C64    C     0.39714   0.75284   0.45550   0.00000  Uiso   1.00
C65    C     0.43852   0.70442   0.48149   0.00000  Uiso   1.00
C66    C     0.42222   0.63634   0.47482   0.00000  Uiso   1.00
C67    C     0.35922   0.85824   0.53156   0.00000  Uiso   1.00
C68    C     0.36872   0.89843   0.62151   0.00000  Uiso   1.00
C69    C     0.32049   0.91907   0.67891   0.00000  Uiso   1.00
H70    H     0.25981   0.78050   0.37473   0.00000  Uiso   1.00
H71    H     0.26967   0.83959   0.18960   0.00000  Uiso   1.00
H72    H     0.28199   0.65130   0.39290   0.00000  Uiso   1.00
H73    H     0.21219   0.84528   0.53290   0.00000  Uiso   1.00
H74    H     0.30517   0.91342   0.99824   0.00000  Uiso   1.00
H75    H     0.33114   0.51640   0.42694   0.00000  Uiso   1.00
H76    H     0.18396   0.92544   0.72216   0.00000  Uiso   1.00
H77    H     0.44905   0.84474   0.48184   0.00000  Uiso   1.00
H78    H     0.46929   0.90736   0.30259   0.00000  Uiso   1.00
H79    H     0.48161   0.71907   0.50588   0.00000  Uiso   1.00
H80    H     0.41182   0.91305   0.64588   0.00000  Uiso   1.00
H81    H     0.46719   0.96842   0.08994   0.00000  Uiso   1.00
H82    H     0.49316   0.57140   0.51864   0.00000  Uiso   1.00
H83    H     0.34598   0.98044   0.81386   0.00000  Uiso   1.00
O84    O     0.39609   0.98093   0.92422   0.00000  Uiso   1.00
O85    O     0.43016   0.46006   0.48668   0.00000  Uiso   1.00
O86    O     0.23706   0.99671   0.87400   0.00000  Uiso   1.00
N87    N     0.34052   0.91778   0.04443   0.00000  Uiso   1.00
N88    N     0.36480   0.54659   0.44522   0.00000  Uiso   1.00
N89    N     0.22720   0.92899   0.72125   0.00000  Uiso   1.00
N90    N     0.42770   0.94738   0.09377   0.00000  Uiso   1.00
N91    N     0.45199   0.57619   0.49456   0.00000  Uiso   1.00
N92    N     0.31438   0.95859   0.77059   0.00000  Uiso   1.00
C93    C     0.80316   0.70478   0.60073   0.00000  Uiso   1.00
C94    C     0.83476   0.66376   0.68646   0.00000  Uiso   1.00
C95    C     0.81276   0.64577   0.78603   0.00000  Uiso   1.00
C96    C     0.84847   0.60815   0.85306   0.00000  Uiso   1.00
C97    C     0.88908   0.54737   0.99099   0.00000  Uiso   1.00
C98    C     0.84146   0.76607   0.57601   0.00000  Uiso   1.00
C99    C     0.82509   0.83409   0.58271   0.00000  Uiso   1.00
C100   C     0.86643   0.88259   0.55675   0.00000  Uiso   1.00
C101   C     0.91742   0.98064   0.52314   0.00000  Uiso   1.00
C102   C     0.80353   0.66067   0.49996   0.00000  Uiso   1.00
C103   C     0.75528   0.64008   0.44268   0.00000  Uiso   1.00
C104   C     0.76470   0.59986   0.35267   0.00000  Uiso   1.00
C105   C     0.75680   0.53426   0.20096   0.00000  Uiso   1.00
C106   C     0.90569   0.66998   0.54270   0.00000  Uiso   1.00
C107   C     0.89045   0.64486   0.65494   0.00000  Uiso   1.00
C108   C     0.92620   0.60726   0.72183   0.00000  Uiso   1.00
C109   C     0.90426   0.58921   0.82148   0.00000  Uiso   1.00
C110   C     0.89714   0.74716   0.54450   0.00000  Uiso   1.00
C111   C     0.93852   0.79558   0.51851   0.00000  Uiso   1.00
C112   C     0.92222   0.86366   0.52518   0.00000  Uiso   1.00
C113   C     0.85922   0.64176   0.46844   0.00000  Uiso   1.00
C114   C     0.86872   0.60157   0.37849   0.00000  Uiso   1.00
C115   C     0.82049   0.58093   0.32109   0.00000  Uiso   1.00
H116   H     0.75981   0.71950   0.62527   0.00000  Uiso   1.00
H117   H     0.76967   0.66041   0.81040   0.00000  Uiso   1.00
H118   H     0.78199   0.84870   0.60710   0.00000  Uiso   1.00
H119   H     0.71219   0.65472   0.46710   0.00000  Uiso   1.00
H120   H     0.80517   0.58658   0.00176   0.00000  Uiso   1.00
H121   H     0.83114   0.98360   0.57306   0.00000  Uiso   1.00
H122   H     0.68396   0.57456   0.27784   0.00000  Uiso   1.00
H123   H     0.94905   0.65526   0.51816   0.00000  Uiso   1.00
H124   H     0.96929   0.59264   0.69741   0.00000  Uiso   1.00
H125   H     0.98161   0.78093   0.49412   0.00000  Uiso   1.00
H126   H     0.91182   0.58695   0.35412   0.00000  Uiso   1.00
H127   H     0.96719   0.53158   0.91006   0.00000  Uiso   1.00
H128   H     0.99316   0.92860   0.48136   0.00000  Uiso   1.00
H129   H     0.84598   0.51956   0.18614   0.00000  Uiso   1.00
O130   O     0.89609   0.51907   0.07578   0.00000  Uiso   1.00
O131   O     0.93016   0.03994   0.51332   0.00000  Uiso   1.00
O132   O     0.73706   0.50329   0.12600   0.00000  Uiso   1.00
N133   N     0.84052   0.58222   0.95557   0.00000  Uiso   1.00
N134   N     0.86480   0.95341   0.55478   0.00000  Uiso   1.00
N135   N     0.72720   0.57101   0.27875   0.00000  Uiso   1.00
N136   N     0.92770   0.55262   0.90623   0.00000  Uiso   1.00
N137   N     0.95199   0.92381   0.50544   0.00000  Uiso   1.00
N138   N     0.81438   0.54141   0.22941   0.00000  Uiso   1.00
C139   C     0.69684   0.79522   0.10073   0.00000  Uiso   1.00
C140   C     0.66524   0.83624   0.18646   0.00000  Uiso   1.00
C141   C     0.68724   0.85423   0.28603   0.00000  Uiso   1.00
C142   C     0.65153   0.89185   0.35306   0.00000  Uiso   1.00
C143   C     0.61092   0.95263   0.49099   0.00000  Uiso   1.00
C144   C     0.65854   0.73393   0.07601   0.00000  Uiso   1.00
C145   C     0.67491   0.66591   0.08271   0.00000  Uiso   1.00
C146   C     0.63357   0.61741   0.05675   0.00000  Uiso   1.00
C147   C     0.58258   0.51936   0.02314   0.00000  Uiso   1.00
C148   C     0.69647   0.83933   0.99996   0.00000  Uiso   1.00
C149   C     0.74472   0.85992   0.94268   0.00000  Uiso   1.00
C150   C     0.73530   0.90014   0.85267   0.00000  Uiso   1.00
C151   C     0.74320   0.96574   0.70096   0.00000  Uiso   1.00
C152   C     0.59431   0.83002   0.04270   0.00000  Uiso   1.00
C153   C     0.60955   0.85514   0.15494   0.00000  Uiso   1.00
C154   C     0.57380   0.89274   0.22183   0.00000  Uiso   1.00
C155   C     0.59574   0.91079   0.32148   0.00000  Uiso   1.00
C156   C     0.60286   0.75284   0.04450   0.00000  Uiso   1.00
C157   C     0.56148   0.70442   0.01851   0.00000  Uiso   1.00
C158   C     0.57778   0.63634   0.02518   0.00000  Uiso   1.00
C159   C     0.64078   0.85824   0.96844   0.00000  Uiso   1.00
C160   C     0.63128   0.89843   0.87849   0.00000  Uiso   1.00
C161   C     0.67951   0.91907   0.82109   0.00000  Uiso   1.00
H162   H     0.74019   0.78050   0.12527   0.00000  Uiso   1.00
H163   H     0.73033   0.83959   0.31040   0.00000  Uiso   1.00
H164   H     0.71801   0.65130   0.10710   0.00000  Uiso   1.00
H165   H     0.78781   0.84528   0.96710   0.00000  Uiso   1.00
H166   H     0.69483   0.91342   0.50176   0.00000  Uiso   1.00
H167   H     0.66886   0.51640   0.07306   0.00000  Uiso   1.00
H168   H     0.81604   0.92544   0.77784   0.00000  Uiso   1.00
H169   H     0.55095   0.84474   0.01816   0.00000  Uiso   1.00
H170   H     0.53071   0.90736   0.19741   0.00000  Uiso   1.00
H171   H     0.51839   0.71907   0.99412   0.00000  Uiso   1.00
H172   H     0.58818   0.91305   0.85412   0.00000  Uiso   1.00
H173   H     0.53281   0.96842   0.41006   0.00000  Uiso   1.00
H174   H     0.50684   0.57140   0.98136   0.00000  Uiso   1.00
H175   H     0.65402   0.98044   0.68614   0.00000  Uiso   1.00
O176   O     0.60391   0.98093   0.57578   0.00000  Uiso   1.00
O177   O     0.56984   0.46006   0.01332   0.00000  Uiso   1.00
O178   O     0.76294   0.99671   0.62600   0.00000  Uiso   1.00
N179   N     0.65948   0.91778   0.45557   0.00000  Uiso   1.00
N180   N     0.63520   0.54659   0.05478   0.00000  Uiso   1.00
N181   N     0.77280   0.92899   0.77875   0.00000  Uiso   1.00
N182   N     0.57230   0.94738   0.40623   0.00000  Uiso   1.00
N183   N     0.54801   0.57619   0.00544   0.00000  Uiso   1.00
N184   N     0.68562   0.95859   0.72941   0.00000  Uiso   1.00
C185   C     0.80316   0.29522   0.10073   0.00000  Uiso   1.00
C186   C     0.83476   0.33624   0.18646   0.00000  Uiso   1.00
C187   C     0.81276   0.35423   0.28603   0.00000  Uiso   1.00
C188   C     0.84847   0.39185   0.35306   0.00000  Uiso   1.00
C189   C     0.88908   0.45263   0.49099   0.00000  Uiso   1.00
C190   C     0.84146   0.23393   0.07601   0.00000  Uiso   1.00
C191   C     0.82509   0.16591   0.08271   0.00000  Uiso   1.00
C192   C     0.86643   0.11741   0.05675   0.00000  Uiso   1.00
C193   C     0.91742   0.01936   0.02314   0.00000  Uiso   1.00
C194   C     0.80353   0.33933   0.99996   0.00000  Uiso   1.00
C195   C     0.75528   0.35992   0.94268   0.00000  Uiso   1.00
C196   C     0.76470   0.40014   0.85267   0.00000  Uiso   1.00
C197   C     0.75680   0.46574   0.70096   0.00000  Uiso   1.00
C198   C     0.90569   0.33002   0.04270   0.00000  Uiso   1.00
C199   C     0.89045   0.35514   0.15494   0.00000  Uiso   1.00
C200   C     0.92620   0.39274   0.22183   0.00000  Uiso   1.00
C201   C     0.90426   0.41079   0.32148   0.00000  Uiso   1.00
C202   C     0.89714   0.25284   0.04450   0.00000  Uiso   1.00
C203   C     0.93852   0.20442   0.01851   0.00000  Uiso   1.00
C204   C     0.92222   0.13634   0.02518   0.00000  Uiso   1.00
C205   C     0.85922   0.35824   0.96844   0.00000  Uiso   1.00
C206   C     0.86872   0.39843   0.87849   0.00000  Uiso   1.00
C207   C     0.82049   0.41907   0.82109   0.00000  Uiso   1.00
H208   H     0.75981   0.28050   0.12527   0.00000  Uiso   1.00
H209   H     0.76967   0.33959   0.31040   0.00000  Uiso   1.00
H210   H     0.78199   0.15130   0.10710   0.00000  Uiso   1.00
H211   H     0.71219   0.34528   0.96710   0.00000  Uiso   1.00
H212   H     0.80517   0.41342   0.50176   0.00000  Uiso   1.00
H213   H     0.83114   0.01640   0.07306   0.00000  Uiso   1.00
H214   H     0.68396   0.42544   0.77784   0.00000  Uiso   1.00
H215   H     0.94905   0.34474   0.01816   0.00000  Uiso   1.00
H216   H     0.96929   0.40736   0.19741   0.00000  Uiso   1.00
H217   H     0.98161   0.21907   0.99412   0.00000  Uiso   1.00
H218   H     0.91182   0.41305   0.85412   0.00000  Uiso   1.00
H219   H     0.96719   0.46842   0.41006   0.00000  Uiso   1.00
H220   H     0.99316   0.07140   0.98136   0.00000  Uiso   1.00
H221   H     0.84598   0.48044   0.68614   0.00000  Uiso   1.00
O222   O     0.89609   0.48093   0.57578   0.00000  Uiso   1.00
O223   O     0.93016   0.96006   0.01332   0.00000  Uiso   1.00
O224   O     0.73706   0.49671   0.62600   0.00000  Uiso   1.00
N225   N     0.84052   0.41778   0.45557   0.00000  Uiso   1.00
N226   N     0.86480   0.04659   0.05478   0.00000  Uiso   1.00
N227   N     0.72720   0.42899   0.77875   0.00000  Uiso   1.00
N228   N     0.92770   0.44738   0.40623   0.00000  Uiso   1.00
N229   N     0.95199   0.07619   0.00544   0.00000  Uiso   1.00
N230   N     0.81438   0.45859   0.72941   0.00000  Uiso   1.00
C231   C     0.69684   0.20478   0.60073   0.00000  Uiso   1.00
C232   C     0.66524   0.16376   0.68646   0.00000  Uiso   1.00
C233   C     0.68724   0.14577   0.78603   0.00000  Uiso   1.00
C234   C     0.65153   0.10815   0.85306   0.00000  Uiso   1.00
C235   C     0.61092   0.04737   0.99099   0.00000  Uiso   1.00
C236   C     0.65854   0.26607   0.57601   0.00000  Uiso   1.00
C237   C     0.67491   0.33409   0.58271   0.00000  Uiso   1.00
C238   C     0.63357   0.38259   0.55675   0.00000  Uiso   1.00
C239   C     0.58258   0.48064   0.52314   0.00000  Uiso   1.00
C240   C     0.69647   0.16067   0.49996   0.00000  Uiso   1.00
C241   C     0.74472   0.14008   0.44268   0.00000  Uiso   1.00
C242   C     0.73530   0.09986   0.35267   0.00000  Uiso   1.00
C243   C     0.74320   0.03426   0.20096   0.00000  Uiso   1.00
C244   C     0.59431   0.16998   0.54270   0.00000  Uiso   1.00
C245   C     0.60955   0.14486   0.65494   0.00000  Uiso   1.00
C246   C     0.57380   0.10726   0.72183   0.00000  Uiso   1.00
C247   C     0.59574   0.08921   0.82148   0.00000  Uiso   1.00
C248   C     0.60286   0.24716   0.54450   0.00000  Uiso   1.00
C249   C     0.56148   0.29558   0.51851   0.00000  Uiso   1.00
C250   C     0.57778   0.36366   0.52518   0.00000  Uiso   1.00
C251   C     0.64078   0.14176   0.46844   0.00000  Uiso   1.00
C252   C     0.63128   0.10157   0.37849   0.00000  Uiso   1.00
C253   C     0.67951   0.08093   0.32109   0.00000  Uiso   1.00
H254   H     0.74019   0.21950   0.62527   0.00000  Uiso   1.00
H255   H     0.73033   0.16041   0.81040   0.00000  Uiso   1.00
H256   H     0.71801   0.34870   0.60710   0.00000  Uiso   1.00
H257   H     0.78781   0.15472   0.46710   0.00000  Uiso   1.00
H258   H     0.69483   0.08658   0.00176   0.00000  Uiso   1.00
H259   H     0.66886   0.48360   0.57306   0.00000  Uiso   1.00
H260   H     0.81604   0.07456   0.27784   0.00000  Uiso   1.00
H261   H     0.55095   0.15526   0.51816   0.00000  Uiso   1.00
H262   H     0.53071   0.09264   0.69741   0.00000  Uiso   1.00
H263   H     0.51839   0.28093   0.49412   0.00000  Uiso   1.00
H264   H     0.58818   0.08695   0.35412   0.00000  Uiso   1.00
H265   H     0.53281   0.03158   0.91006   0.00000  Uiso   1.00
H266   H     0.50684   0.42860   0.48136   0.00000  Uiso   1.00
H267   H     0.65402   0.01956   0.18614   0.00000  Uiso   1.00
O268   O     0.60391   0.01907   0.07578   0.00000  Uiso   1.00
O269   O     0.56984   0.53994   0.51332   0.00000  Uiso   1.00
O270   O     0.76294   0.00329   0.12600   0.00000  Uiso   1.00
N271   N     0.65948   0.08222   0.95557   0.00000  Uiso   1.00
N272   N     0.63520   0.45341   0.55478   0.00000  Uiso   1.00
N273   N     0.77280   0.07101   0.27875   0.00000  Uiso   1.00
N274   N     0.57230   0.05262   0.90623   0.00000  Uiso   1.00
N275   N     0.54801   0.42381   0.50544   0.00000  Uiso   1.00
N276   N     0.68562   0.04141   0.22941   0.00000  Uiso   1.00
C277   C     0.19684   0.29522   0.39927   0.00000  Uiso   1.00
C278   C     0.16524   0.33624   0.31354   0.00000  Uiso   1.00
C279   C     0.18724   0.35423   0.21397   0.00000  Uiso   1.00
C280   C     0.15153   0.39185   0.14694   0.00000  Uiso   1.00
C281   C     0.11092   0.45263   0.00901   0.00000  Uiso   1.00
C282   C     0.15854   0.23393   0.42399   0.00000  Uiso   1.00
C283   C     0.17491   0.16591   0.41729   0.00000  Uiso   1.00
C284   C     0.13357   0.11741   0.44325   0.00000  Uiso   1.00
C285   C     0.08258   0.01936   0.47686   0.00000  Uiso   1.00
C286   C     0.19647   0.33933   0.50004   0.00000  Uiso   1.00
C287   C     0.24472   0.35992   0.55732   0.00000  Uiso   1.00
C288   C     0.23530   0.40014   0.64733   0.00000  Uiso   1.00
C289   C     0.24320   0.46574   0.79904   0.00000  Uiso   1.00
C290   C     0.09431   0.33002   0.45730   0.00000  Uiso   1.00
C291   C     0.10955   0.35514   0.34506   0.00000  Uiso   1.00
C292   C     0.07380   0.39274   0.27817   0.00000  Uiso   1.00
C293   C     0.09574   0.41079   0.17852   0.00000  Uiso   1.00
C294   C     0.10286   0.25284   0.45550   0.00000  Uiso   1.00
C295   C     0.06148   0.20442   0.48149   0.00000  Uiso   1.00
C296   C     0.07778   0.13634   0.47482   0.00000  Uiso   1.00
C297   C     0.14078   0.35824   0.53156   0.00000  Uiso   1.00
C298   C     0.13128   0.39843   0.62151   0.00000  Uiso   1.00
C299   C     0.17951   0.41907   0.67891   0.00000  Uiso   1.00
H300   H     0.24019   0.28050   0.37473   0.00000  Uiso   1.00
H301   H     0.23033   0.33959   0.18960   0.00000  Uiso   1.00
H302   H     0.21801   0.15130   0.39290   0.00000  Uiso   1.00
H303   H     0.28781   0.34528   0.53290   0.00000  Uiso   1.00
H304   H     0.19483   0.41342   0.99824   0.00000  Uiso   1.00
H305   H     0.16886   0.01640   0.42694   0.00000  Uiso   1.00
H306   H     0.31604   0.42544   0.72216   0.00000  Uiso   1.00
H307   H     0.05095   0.34474   0.48184   0.00000  Uiso   1.00
H308   H     0.03071   0.40736   0.30259   0.00000  Uiso   1.00
H309   H     0.01839   0.21907   0.50588   0.00000  Uiso   1.00
H310   H     0.08818   0.41305   0.64588   0.00000  Uiso   1.00
H311   H     0.03281   0.46842   0.08994   0.00000  Uiso   1.00
H312   H     0.00684   0.07140   0.51864   0.00000  Uiso   1.00
H313   H     0.15402   0.48044   0.81386   0.00000  Uiso   1.00
O314   O     0.10391   0.48093   0.92422   0.00000  Uiso   1.00
O315   O     0.06984   0.96006   0.48668   0.00000  Uiso   1.00
O316   O     0.26294   0.49671   0.87400   0.00000  Uiso   1.00
N317   N     0.15948   0.41778   0.04443   0.00000  Uiso   1.00
N318   N     0.13520   0.04659   0.44522   0.00000  Uiso   1.00
N319   N     0.27280   0.42899   0.72125   0.00000  Uiso   1.00
N320   N     0.07230   0.44738   0.09377   0.00000  Uiso   1.00
N321   N     0.04801   0.07619   0.49456   0.00000  Uiso   1.00
N322   N     0.18562   0.45859   0.77059   0.00000  Uiso   1.00
C323   C     0.30316   0.20478   0.89927   0.00000  Uiso   1.00
C324   C     0.33476   0.16376   0.81354   0.00000  Uiso   1.00
C325   C     0.31276   0.14577   0.71397   0.00000  Uiso   1.00
C326   C     0.34847   0.10815   0.64694   0.00000  Uiso   1.00
C327   C     0.38908   0.04737   0.50901   0.00000  Uiso   1.00
C328   C     0.34146   0.26607   0.92399   0.00000  Uiso   1.00
C329   C     0.32509   0.33409   0.91729   0.00000  Uiso   1.00
C330   C     0.36643   0.38259   0.94325   0.00000  Uiso   1.00
C331   C     0.41742   0.48064   0.97686   0.00000  Uiso   1.00
C332   C     0.30353   0.16067   0.00004   0.00000  Uiso   1.00
C333   C     0.25528   0.14008   0.05732   0.00000  Uiso   1.00
C334   C     0.26470   0.09986   0.14733   0.00000  Uiso   1.00
C335   C     0.25680   0.03426   0.29904   0.00000  Uiso   1.00
C336   C     0.40569   0.16998   0.95730   0.00000  Uiso   1.00
C337   C     0.39045   0.14486   0.84506   0.00000  Uiso   1.00
C338   C     0.42620   0.10726   0.77817   0.00000  Uiso   1.00
C339   C     0.40426   0.08921   0.67852   0.00000  Uiso   1.00
C340   C     0.39714   0.24716   0.95550   0.00000  Uiso   1.00
C341   C     0.43852   0.29558   0.98149   0.00000  Uiso   1.00
C342   C     0.42222   0.36366   0.97482   0.00000  Uiso   1.00
C343   C     0.35922   0.14176   0.03156   0.00000  Uiso   1.00
C344   C     0.36872   0.10157   0.12151   0.00000  Uiso   1.00
C345   C     0.32049   0.08093   0.17891   0.00000  Uiso   1.00
H346   H     0.25981   0.21950   0.87473   0.00000  Uiso   1.00
H347   H     0.26967   0.16041   0.68960   0.00000  Uiso   1.00
H348   H     0.28199   0.34870   0.89290   0.00000  Uiso   1.00
H349   H     0.21219   0.15472   0.03290   0.00000  Uiso   1.00
H350   H     0.30517   0.08658   0.49824   0.00000  Uiso   1.00
H351   H     0.33114   0.48360   0.92694   0.00000  Uiso   1.00
H352   H     0.18396   0.07456   0.22216   0.00000  Uiso   1.00
H353   H     0.44905   0.15526   0.98184   0.00000  Uiso   1.00
H354   H     0.46929   0.09264   0.80259   0.00000  Uiso   1.00
H355   H     0.48161   0.28093   0.00588   0.00000  Uiso   1.00
H356   H     0.41182   0.08695   0.14588   0.00000  Uiso   1.00
H357   H     0.46719   0.03158   0.58994   0.00000  Uiso   1.00
H358   H     0.49316   0.42860   0.01864   0.00000  Uiso   1.00
H359   H     0.34598   0.01956   0.31386   0.00000  Uiso   1.00
O360   O     0.39609   0.01907   0.42422   0.00000  Uiso   1.00
O361   O     0.43016   0.53994   0.98668   0.00000  Uiso   1.00
O362   O     0.23706   0.00329   0.37400   0.00000  Uiso   1.00
N363   N     0.34052   0.08222   0.54443   0.00000  Uiso   1.00
N364   N     0.36480   0.45341   0.94522   0.00000  Uiso   1.00
N365   N     0.22720   0.07101   0.22125   0.00000  Uiso   1.00
N366   N     0.42770   0.05262   0.59377   0.00000  Uiso   1.00
N367   N     0.45199   0.42381   0.99456   0.00000  Uiso   1.00
N368   N     0.31438   0.04141   0.27059   0.00000  Uiso   1.00
