data_job_01006
_audit_creation_date              2018-12-19
_audit_creation_method            'Materials Studio'
_symmetry_space_group_name_H-M    'P1'
_symmetry_Int_Tables_number       1
_symmetry_cell_setting            triclinic
loop_
_symmetry_equiv_pos_as_xyz
  x,y,z
_cell_length_a                    29.2673
_cell_length_b                    8.9600
_cell_length_c                    21.8242
_cell_angle_alpha                 90.0000
_cell_angle_beta                  90.0000
_cell_angle_gamma                 90.0000
loop_
_atom_site_label
_atom_site_type_symbol
_atom_site_fract_x
_atom_site_fract_y
_atom_site_fract_z
_atom_site_U_iso_or_equiv
_atom_site_adp_type
_atom_site_occupancy
C1     C     0.14838   0.98501   0.89786   0.00000  Uiso   1.00
C2     C     0.10023   0.03570   0.88117   0.00000  Uiso   1.00
C3     C     0.08801   0.17772   0.86179   0.00000  Uiso   1.00
C4     C     0.04216   0.20177   0.84875   0.00000  Uiso   1.00
C5     C     0.97232   0.29783   0.82192   0.00000  Uiso   1.00
C6     C     0.14543   0.92465   0.96307   0.00000  Uiso   1.00
C7     C     0.17122   0.97329   0.01256   0.00000  Uiso   1.00
C8     C     0.16343   0.90384   0.06846   0.00000  Uiso   1.00
C9     C     0.16379   0.82743   0.16879   0.00000  Uiso   1.00
C10    C     0.15859   0.85089   0.85709   0.00000  Uiso   1.00
C11    C     0.19545   0.83748   0.81747   0.00000  Uiso   1.00
C12    C     0.19875   0.70590   0.78416   0.00000  Uiso   1.00
C13    C     0.21953   0.51496   0.71993   0.00000  Uiso   1.00
C14    C     0.08869   0.77517   0.90915   0.00000  Uiso   1.00
C15    C     0.06780   0.92172   0.88730   0.00000  Uiso   1.00
C16    C     0.02197   0.94556   0.87428   0.00000  Uiso   1.00
C17    C     0.00969   0.08759   0.85489   0.00000  Uiso   1.00
C18    C     0.11301   0.81068   0.96921   0.00000  Uiso   1.00
C19    C     0.10518   0.74113   0.02505   0.00000  Uiso   1.00
C20    C     0.13095   0.78966   0.07461   0.00000  Uiso   1.00
C21    C     0.12617   0.73691   0.86322   0.00000  Uiso   1.00
C22    C     0.12941   0.60532   0.82997   0.00000  Uiso   1.00
C23    C     0.16627   0.59172   0.79030   0.00000  Uiso   1.00
H24    H     0.17362   0.07375   0.89309   0.00000  Uiso   1.00
H25    H     0.11311   0.26590   0.85706   0.00000  Uiso   1.00
H26    H     0.19631   0.06149   0.00780   0.00000  Uiso   1.00
H27    H     0.22053   0.92570   0.81274   0.00000  Uiso   1.00
H28    H     0.03171   0.42869   0.81983   0.00000  Uiso   1.00
H29    H     0.20716   0.99764   0.13767   0.00000  Uiso   1.00
H30    H     0.25824   0.71131   0.72636   0.00000  Uiso   1.00
H31    H     0.06345   0.68643   0.91393   0.00000  Uiso   1.00
H32    H     0.99689   0.85733   0.87904   0.00000  Uiso   1.00
H33    H     0.08009   0.65293   0.02978   0.00000  Uiso   1.00
H34    H     0.10431   0.51714   0.83472   0.00000  Uiso   1.00
H35    H     0.93738   0.09708   0.83767   0.00000  Uiso   1.00
H36    H     0.11284   0.66604   0.15552   0.00000  Uiso   1.00
H37    H     0.16391   0.37970   0.74420   0.00000  Uiso   1.00
O38    O     0.94275   0.38231   0.80544   0.00000  Uiso   1.00
O39    O     0.17294   0.81678   0.22243   0.00000  Uiso   1.00
O40    O     0.23995   0.44113   0.68280   0.00000  Uiso   1.00
N41    N     0.01865   0.32718   0.82881   0.00000  Uiso   1.00
N42    N     0.18268   0.92420   0.12597   0.00000  Uiso   1.00
N43    N     0.23044   0.65648   0.74144   0.00000  Uiso   1.00
N44    N     0.96789   0.14875   0.83841   0.00000  Uiso   1.00
N45    N     0.13192   0.74576   0.13557   0.00000  Uiso   1.00
N46    N     0.17969   0.47805   0.75104   0.00000  Uiso   1.00
C47    C     0.35162   0.51499   0.39786   0.00000  Uiso   1.00
C48    C     0.39977   0.46430   0.38117   0.00000  Uiso   1.00
C49    C     0.41199   0.32228   0.36179   0.00000  Uiso   1.00
C50    C     0.45784   0.29823   0.34875   0.00000  Uiso   1.00
C51    C     0.52768   0.20217   0.32192   0.00000  Uiso   1.00
C52    C     0.35457   0.57535   0.46307   0.00000  Uiso   1.00
C53    C     0.32878   0.52671   0.51256   0.00000  Uiso   1.00
C54    C     0.33657   0.59616   0.56846   0.00000  Uiso   1.00
C55    C     0.33621   0.67257   0.66879   0.00000  Uiso   1.00
C56    C     0.34141   0.64911   0.35709   0.00000  Uiso   1.00
C57    C     0.30455   0.66252   0.31747   0.00000  Uiso   1.00
C58    C     0.30125   0.79410   0.28416   0.00000  Uiso   1.00
C59    C     0.28047   0.98504   0.21993   0.00000  Uiso   1.00
C60    C     0.41131   0.72483   0.40915   0.00000  Uiso   1.00
C61    C     0.43220   0.57828   0.38730   0.00000  Uiso   1.00
C62    C     0.47803   0.55444   0.37428   0.00000  Uiso   1.00
C63    C     0.49031   0.41241   0.35489   0.00000  Uiso   1.00
C64    C     0.38699   0.68932   0.46921   0.00000  Uiso   1.00
C65    C     0.39482   0.75887   0.52505   0.00000  Uiso   1.00
C66    C     0.36905   0.71034   0.57461   0.00000  Uiso   1.00
C67    C     0.37383   0.76309   0.36322   0.00000  Uiso   1.00
C68    C     0.37059   0.89468   0.32997   0.00000  Uiso   1.00
C69    C     0.33373   0.90828   0.29030   0.00000  Uiso   1.00
H70    H     0.32638   0.42625   0.39309   0.00000  Uiso   1.00
H71    H     0.38689   0.23410   0.35706   0.00000  Uiso   1.00
H72    H     0.30369   0.43851   0.50780   0.00000  Uiso   1.00
H73    H     0.27947   0.57430   0.31274   0.00000  Uiso   1.00
H74    H     0.46829   0.07131   0.31983   0.00000  Uiso   1.00
H75    H     0.29284   0.50236   0.63767   0.00000  Uiso   1.00
H76    H     0.24176   0.78869   0.22636   0.00000  Uiso   1.00
H77    H     0.43655   0.81357   0.41393   0.00000  Uiso   1.00
H78    H     0.50311   0.64267   0.37904   0.00000  Uiso   1.00
H79    H     0.41991   0.84707   0.52978   0.00000  Uiso   1.00
H80    H     0.39569   0.98286   0.33472   0.00000  Uiso   1.00
H81    H     0.56262   0.40292   0.33767   0.00000  Uiso   1.00
H82    H     0.38716   0.83396   0.65552   0.00000  Uiso   1.00
H83    H     0.33609   0.12030   0.24420   0.00000  Uiso   1.00
O84    O     0.55725   0.11769   0.30544   0.00000  Uiso   1.00
O85    O     0.32706   0.68322   0.72243   0.00000  Uiso   1.00
O86    O     0.26005   0.05887   0.18280   0.00000  Uiso   1.00
N87    N     0.48135   0.17282   0.32881   0.00000  Uiso   1.00
N88    N     0.31732   0.57580   0.62597   0.00000  Uiso   1.00
N89    N     0.26956   0.84352   0.24144   0.00000  Uiso   1.00
N90    N     0.53211   0.35125   0.33841   0.00000  Uiso   1.00
N91    N     0.36808   0.75424   0.63557   0.00000  Uiso   1.00
N92    N     0.32031   0.02195   0.25104   0.00000  Uiso   1.00
C93    C     0.85162   0.98501   0.60214   0.00000  Uiso   1.00
C94    C     0.89977   0.03570   0.61883   0.00000  Uiso   1.00
C95    C     0.91199   0.17772   0.63821   0.00000  Uiso   1.00
C96    C     0.95784   0.20177   0.65125   0.00000  Uiso   1.00
C97    C     0.02768   0.29783   0.67808   0.00000  Uiso   1.00
C98    C     0.85457   0.92465   0.53693   0.00000  Uiso   1.00
C99    C     0.82878   0.97329   0.48744   0.00000  Uiso   1.00
C100   C     0.83657   0.90384   0.43154   0.00000  Uiso   1.00
C101   C     0.83621   0.82743   0.33121   0.00000  Uiso   1.00
C102   C     0.84141   0.85089   0.64291   0.00000  Uiso   1.00
C103   C     0.80455   0.83748   0.68253   0.00000  Uiso   1.00
C104   C     0.80125   0.70590   0.71584   0.00000  Uiso   1.00
C105   C     0.78047   0.51496   0.78007   0.00000  Uiso   1.00
C106   C     0.91131   0.77517   0.59085   0.00000  Uiso   1.00
C107   C     0.93220   0.92172   0.61270   0.00000  Uiso   1.00
C108   C     0.97803   0.94556   0.62572   0.00000  Uiso   1.00
C109   C     0.99031   0.08759   0.64511   0.00000  Uiso   1.00
C110   C     0.88699   0.81068   0.53079   0.00000  Uiso   1.00
C111   C     0.89482   0.74113   0.47495   0.00000  Uiso   1.00
C112   C     0.86905   0.78966   0.42539   0.00000  Uiso   1.00
C113   C     0.87383   0.73691   0.63678   0.00000  Uiso   1.00
C114   C     0.87059   0.60532   0.67003   0.00000  Uiso   1.00
C115   C     0.83373   0.59172   0.70970   0.00000  Uiso   1.00
H116   H     0.82638   0.07375   0.60691   0.00000  Uiso   1.00
H117   H     0.88689   0.26590   0.64294   0.00000  Uiso   1.00
H118   H     0.80369   0.06149   0.49220   0.00000  Uiso   1.00
H119   H     0.77947   0.92570   0.68726   0.00000  Uiso   1.00
H120   H     0.96829   0.42869   0.68017   0.00000  Uiso   1.00
H121   H     0.79284   0.99764   0.36233   0.00000  Uiso   1.00
H122   H     0.74176   0.71131   0.77364   0.00000  Uiso   1.00
H123   H     0.93655   0.68643   0.58607   0.00000  Uiso   1.00
H124   H     0.00311   0.85733   0.62096   0.00000  Uiso   1.00
H125   H     0.91991   0.65293   0.47022   0.00000  Uiso   1.00
H126   H     0.89569   0.51714   0.66528   0.00000  Uiso   1.00
H127   H     0.06262   0.09708   0.66233   0.00000  Uiso   1.00
H128   H     0.88716   0.66604   0.34448   0.00000  Uiso   1.00
H129   H     0.83609   0.37970   0.75580   0.00000  Uiso   1.00
O130   O     0.05725   0.38231   0.69456   0.00000  Uiso   1.00
O131   O     0.82706   0.81678   0.27757   0.00000  Uiso   1.00
O132   O     0.76005   0.44113   0.81720   0.00000  Uiso   1.00
N133   N     0.98135   0.32718   0.67119   0.00000  Uiso   1.00
N134   N     0.81732   0.92420   0.37403   0.00000  Uiso   1.00
N135   N     0.76956   0.65648   0.75856   0.00000  Uiso   1.00
N136   N     0.03211   0.14875   0.66159   0.00000  Uiso   1.00
N137   N     0.86808   0.74576   0.36443   0.00000  Uiso   1.00
N138   N     0.82031   0.47805   0.74896   0.00000  Uiso   1.00
C139   C     0.64838   0.51499   0.10214   0.00000  Uiso   1.00
C140   C     0.60023   0.46430   0.11883   0.00000  Uiso   1.00
C141   C     0.58801   0.32228   0.13821   0.00000  Uiso   1.00
C142   C     0.54216   0.29823   0.15125   0.00000  Uiso   1.00
C143   C     0.47232   0.20217   0.17808   0.00000  Uiso   1.00
C144   C     0.64543   0.57535   0.03693   0.00000  Uiso   1.00
C145   C     0.67122   0.52671   0.98744   0.00000  Uiso   1.00
C146   C     0.66343   0.59616   0.93154   0.00000  Uiso   1.00
C147   C     0.66379   0.67257   0.83121   0.00000  Uiso   1.00
C148   C     0.65859   0.64911   0.14291   0.00000  Uiso   1.00
C149   C     0.69545   0.66252   0.18253   0.00000  Uiso   1.00
C150   C     0.69875   0.79410   0.21584   0.00000  Uiso   1.00
C151   C     0.71953   0.98504   0.28007   0.00000  Uiso   1.00
C152   C     0.58869   0.72483   0.09085   0.00000  Uiso   1.00
C153   C     0.56780   0.57828   0.11270   0.00000  Uiso   1.00
C154   C     0.52197   0.55444   0.12572   0.00000  Uiso   1.00
C155   C     0.50969   0.41241   0.14511   0.00000  Uiso   1.00
C156   C     0.61301   0.68932   0.03079   0.00000  Uiso   1.00
C157   C     0.60518   0.75887   0.97495   0.00000  Uiso   1.00
C158   C     0.63095   0.71034   0.92539   0.00000  Uiso   1.00
C159   C     0.62617   0.76309   0.13678   0.00000  Uiso   1.00
C160   C     0.62941   0.89468   0.17003   0.00000  Uiso   1.00
C161   C     0.66627   0.90828   0.20970   0.00000  Uiso   1.00
H162   H     0.67362   0.42625   0.10691   0.00000  Uiso   1.00
H163   H     0.61311   0.23410   0.14294   0.00000  Uiso   1.00
H164   H     0.69631   0.43851   0.99220   0.00000  Uiso   1.00
H165   H     0.72053   0.57430   0.18726   0.00000  Uiso   1.00
H166   H     0.53171   0.07131   0.18017   0.00000  Uiso   1.00
H167   H     0.70716   0.50236   0.86233   0.00000  Uiso   1.00
H168   H     0.75824   0.78869   0.27364   0.00000  Uiso   1.00
H169   H     0.56345   0.81357   0.08607   0.00000  Uiso   1.00
H170   H     0.49689   0.64267   0.12096   0.00000  Uiso   1.00
H171   H     0.58009   0.84707   0.97022   0.00000  Uiso   1.00
H172   H     0.60431   0.98286   0.16528   0.00000  Uiso   1.00
H173   H     0.43738   0.40292   0.16233   0.00000  Uiso   1.00
H174   H     0.61284   0.83396   0.84448   0.00000  Uiso   1.00
H175   H     0.66391   0.12030   0.25580   0.00000  Uiso   1.00
O176   O     0.44275   0.11769   0.19456   0.00000  Uiso   1.00
O177   O     0.67294   0.68322   0.77757   0.00000  Uiso   1.00
O178   O     0.73995   0.05887   0.31720   0.00000  Uiso   1.00
N179   N     0.51865   0.17282   0.17119   0.00000  Uiso   1.00
N180   N     0.68268   0.57580   0.87403   0.00000  Uiso   1.00
N181   N     0.73044   0.84352   0.25856   0.00000  Uiso   1.00
N182   N     0.46789   0.35125   0.16159   0.00000  Uiso   1.00
N183   N     0.63192   0.75424   0.86443   0.00000  Uiso   1.00
N184   N     0.67969   0.02195   0.24896   0.00000  Uiso   1.00
C185   C     0.85162   0.01499   0.10214   0.00000  Uiso   1.00
C186   C     0.89977   0.96430   0.11883   0.00000  Uiso   1.00
C187   C     0.91199   0.82228   0.13821   0.00000  Uiso   1.00
C188   C     0.95784   0.79823   0.15125   0.00000  Uiso   1.00
C189   C     0.02768   0.70217   0.17808   0.00000  Uiso   1.00
C190   C     0.85457   0.07535   0.03693   0.00000  Uiso   1.00
C191   C     0.82878   0.02671   0.98744   0.00000  Uiso   1.00
C192   C     0.83657   0.09616   0.93154   0.00000  Uiso   1.00
C193   C     0.83621   0.17257   0.83121   0.00000  Uiso   1.00
C194   C     0.84141   0.14911   0.14291   0.00000  Uiso   1.00
C195   C     0.80455   0.16252   0.18253   0.00000  Uiso   1.00
C196   C     0.80125   0.29410   0.21584   0.00000  Uiso   1.00
C197   C     0.78047   0.48504   0.28007   0.00000  Uiso   1.00
C198   C     0.91131   0.22483   0.09085   0.00000  Uiso   1.00
C199   C     0.93220   0.07828   0.11270   0.00000  Uiso   1.00
C200   C     0.97803   0.05444   0.12572   0.00000  Uiso   1.00
C201   C     0.99031   0.91241   0.14511   0.00000  Uiso   1.00
C202   C     0.88699   0.18932   0.03079   0.00000  Uiso   1.00
C203   C     0.89482   0.25887   0.97495   0.00000  Uiso   1.00
C204   C     0.86905   0.21034   0.92539   0.00000  Uiso   1.00
C205   C     0.87383   0.26309   0.13678   0.00000  Uiso   1.00
C206   C     0.87059   0.39468   0.17003   0.00000  Uiso   1.00
C207   C     0.83373   0.40828   0.20970   0.00000  Uiso   1.00
H208   H     0.82638   0.92625   0.10691   0.00000  Uiso   1.00
H209   H     0.88689   0.73410   0.14294   0.00000  Uiso   1.00
H210   H     0.80369   0.93851   0.99220   0.00000  Uiso   1.00
H211   H     0.77947   0.07430   0.18726   0.00000  Uiso   1.00
H212   H     0.96829   0.57131   0.18017   0.00000  Uiso   1.00
H213   H     0.79284   0.00236   0.86233   0.00000  Uiso   1.00
H214   H     0.74176   0.28869   0.27364   0.00000  Uiso   1.00
H215   H     0.93655   0.31357   0.08607   0.00000  Uiso   1.00
H216   H     0.00311   0.14267   0.12096   0.00000  Uiso   1.00
H217   H     0.91991   0.34707   0.97022   0.00000  Uiso   1.00
H218   H     0.89569   0.48286   0.16528   0.00000  Uiso   1.00
H219   H     0.06262   0.90292   0.16233   0.00000  Uiso   1.00
H220   H     0.88716   0.33396   0.84448   0.00000  Uiso   1.00
H221   H     0.83609   0.62030   0.25580   0.00000  Uiso   1.00
O222   O     0.05725   0.61769   0.19456   0.00000  Uiso   1.00
O223   O     0.82706   0.18322   0.77757   0.00000  Uiso   1.00
O224   O     0.76005   0.55887   0.31720   0.00000  Uiso   1.00
N225   N     0.98135   0.67282   0.17119   0.00000  Uiso   1.00
N226   N     0.81732   0.07580   0.87403   0.00000  Uiso   1.00
N227   N     0.76956   0.34352   0.25856   0.00000  Uiso   1.00
N228   N     0.03211   0.85125   0.16159   0.00000  Uiso   1.00
N229   N     0.86808   0.25424   0.86443   0.00000  Uiso   1.00
N230   N     0.82031   0.52195   0.24896   0.00000  Uiso   1.00
C231   C     0.64838   0.48501   0.60214   0.00000  Uiso   1.00
C232   C     0.60023   0.53570   0.61883   0.00000  Uiso   1.00
C233   C     0.58801   0.67772   0.63821   0.00000  Uiso   1.00
C234   C     0.54216   0.70177   0.65125   0.00000  Uiso   1.00
C235   C     0.47232   0.79783   0.67808   0.00000  Uiso   1.00
C236   C     0.64543   0.42465   0.53693   0.00000  Uiso   1.00
C237   C     0.67122   0.47329   0.48744   0.00000  Uiso   1.00
C238   C     0.66343   0.40384   0.43154   0.00000  Uiso   1.00
C239   C     0.66379   0.32743   0.33121   0.00000  Uiso   1.00
C240   C     0.65859   0.35089   0.64291   0.00000  Uiso   1.00
C241   C     0.69545   0.33748   0.68253   0.00000  Uiso   1.00
C242   C     0.69875   0.20590   0.71584   0.00000  Uiso   1.00
C243   C     0.71953   0.01496   0.78007   0.00000  Uiso   1.00
C244   C     0.58869   0.27517   0.59085   0.00000  Uiso   1.00
C245   C     0.56780   0.42172   0.61270   0.00000  Uiso   1.00
C246   C     0.52197   0.44556   0.62572   0.00000  Uiso   1.00
C247   C     0.50969   0.58759   0.64511   0.00000  Uiso   1.00
C248   C     0.61301   0.31068   0.53079   0.00000  Uiso   1.00
C249   C     0.60518   0.24113   0.47495   0.00000  Uiso   1.00
C250   C     0.63095   0.28966   0.42539   0.00000  Uiso   1.00
C251   C     0.62617   0.23691   0.63678   0.00000  Uiso   1.00
C252   C     0.62941   0.10532   0.67003   0.00000  Uiso   1.00
C253   C     0.66627   0.09172   0.70970   0.00000  Uiso   1.00
H254   H     0.67362   0.57375   0.60691   0.00000  Uiso   1.00
H255   H     0.61311   0.76590   0.64294   0.00000  Uiso   1.00
H256   H     0.69631   0.56149   0.49220   0.00000  Uiso   1.00
H257   H     0.72053   0.42570   0.68726   0.00000  Uiso   1.00
H258   H     0.53171   0.92869   0.68017   0.00000  Uiso   1.00
H259   H     0.70716   0.49764   0.36233   0.00000  Uiso   1.00
H260   H     0.75824   0.21131   0.77364   0.00000  Uiso   1.00
H261   H     0.56345   0.18643   0.58607   0.00000  Uiso   1.00
H262   H     0.49689   0.35733   0.62096   0.00000  Uiso   1.00
H263   H     0.58009   0.15293   0.47022   0.00000  Uiso   1.00
H264   H     0.60431   0.01714   0.66528   0.00000  Uiso   1.00
H265   H     0.43738   0.59708   0.66233   0.00000  Uiso   1.00
H266   H     0.61284   0.16604   0.34448   0.00000  Uiso   1.00
H267   H     0.66391   0.87970   0.75580   0.00000  Uiso   1.00
O268   O     0.44275   0.88231   0.69456   0.00000  Uiso   1.00
O269   O     0.67294   0.31678   0.27757   0.00000  Uiso   1.00
O270   O     0.73995   0.94113   0.81720   0.00000  Uiso   1.00
N271   N     0.51865   0.82718   0.67119   0.00000  Uiso   1.00
N272   N     0.68268   0.42420   0.37403   0.00000  Uiso   1.00
N273   N     0.73044   0.15648   0.75856   0.00000  Uiso   1.00
N274   N     0.46789   0.64875   0.66159   0.00000  Uiso   1.00
N275   N     0.63192   0.24576   0.36443   0.00000  Uiso   1.00
N276   N     0.67969   0.97805   0.74896   0.00000  Uiso   1.00
C277   C     0.14838   0.01499   0.39786   0.00000  Uiso   1.00
C278   C     0.10023   0.96430   0.38117   0.00000  Uiso   1.00
C279   C     0.08801   0.82228   0.36179   0.00000  Uiso   1.00
C280   C     0.04216   0.79823   0.34875   0.00000  Uiso   1.00
C281   C     0.97232   0.70217   0.32192   0.00000  Uiso   1.00
C282   C     0.14543   0.07535   0.46307   0.00000  Uiso   1.00
C283   C     0.17122   0.02671   0.51256   0.00000  Uiso   1.00
C284   C     0.16343   0.09616   0.56846   0.00000  Uiso   1.00
C285   C     0.16379   0.17257   0.66879   0.00000  Uiso   1.00
C286   C     0.15859   0.14911   0.35709   0.00000  Uiso   1.00
C287   C     0.19545   0.16252   0.31747   0.00000  Uiso   1.00
C288   C     0.19875   0.29410   0.28416   0.00000  Uiso   1.00
C289   C     0.21953   0.48504   0.21993   0.00000  Uiso   1.00
C290   C     0.08869   0.22483   0.40915   0.00000  Uiso   1.00
C291   C     0.06780   0.07828   0.38730   0.00000  Uiso   1.00
C292   C     0.02197   0.05444   0.37428   0.00000  Uiso   1.00
C293   C     0.00969   0.91241   0.35489   0.00000  Uiso   1.00
C294   C     0.11301   0.18932   0.46921   0.00000  Uiso   1.00
C295   C     0.10518   0.25887   0.52505   0.00000  Uiso   1.00
C296   C     0.13095   0.21034   0.57461   0.00000  Uiso   1.00
C297   C     0.12617   0.26309   0.36322   0.00000  Uiso   1.00
C298   C     0.12941   0.39468   0.32997   0.00000  Uiso   1.00
C299   C     0.16627   0.40828   0.29030   0.00000  Uiso   1.00
H300   H     0.17362   0.92625   0.39309   0.00000  Uiso   1.00
H301   H     0.11311   0.73410   0.35706   0.00000  Uiso   1.00
H302   H     0.19631   0.93851   0.50780   0.00000  Uiso   1.00
H303   H     0.22053   0.07430   0.31274   0.00000  Uiso   1.00
H304   H     0.03171   0.57131   0.31983   0.00000  Uiso   1.00
H305   H     0.20716   0.00236   0.63767   0.00000  Uiso   1.00
H306   H     0.25824   0.28869   0.22636   0.00000  Uiso   1.00
H307   H     0.06345   0.31357   0.41393   0.00000  Uiso   1.00
H308   H     0.99689   0.14267   0.37904   0.00000  Uiso   1.00
H309   H     0.08009   0.34707   0.52978   0.00000  Uiso   1.00
H310   H     0.10431   0.48286   0.33472   0.00000  Uiso   1.00
H311   H     0.93738   0.90292   0.33767   0.00000  Uiso   1.00
H312   H     0.11284   0.33396   0.65552   0.00000  Uiso   1.00
H313   H     0.16391   0.62030   0.24420   0.00000  Uiso   1.00
O314   O     0.94275   0.61769   0.30544   0.00000  Uiso   1.00
O315   O     0.17294   0.18322   0.72243   0.00000  Uiso   1.00
O316   O     0.23995   0.55887   0.18280   0.00000  Uiso   1.00
N317   N     0.01865   0.67282   0.32881   0.00000  Uiso   1.00
N318   N     0.18268   0.07580   0.62597   0.00000  Uiso   1.00
N319   N     0.23044   0.34352   0.24144   0.00000  Uiso   1.00
N320   N     0.96789   0.85125   0.33841   0.00000  Uiso   1.00
N321   N     0.13192   0.25424   0.63557   0.00000  Uiso   1.00
N322   N     0.17969   0.52195   0.25104   0.00000  Uiso   1.00
C323   C     0.35162   0.48501   0.89786   0.00000  Uiso   1.00
C324   C     0.39977   0.53570   0.88117   0.00000  Uiso   1.00
C325   C     0.41199   0.67772   0.86179   0.00000  Uiso   1.00
C326   C     0.45784   0.70177   0.84875   0.00000  Uiso   1.00
C327   C     0.52768   0.79783   0.82192   0.00000  Uiso   1.00
C328   C     0.35457   0.42465   0.96307   0.00000  Uiso   1.00
C329   C     0.32878   0.47329   0.01256   0.00000  Uiso   1.00
C330   C     0.33657   0.40384   0.06846   0.00000  Uiso   1.00
C331   C     0.33621   0.32743   0.16879   0.00000  Uiso   1.00
C332   C     0.34141   0.35089   0.85709   0.00000  Uiso   1.00
C333   C     0.30455   0.33748   0.81747   0.00000  Uiso   1.00
C334   C     0.30125   0.20590   0.78416   0.00000  Uiso   1.00
C335   C     0.28047   0.01496   0.71993   0.00000  Uiso   1.00
C336   C     0.41131   0.27517   0.90915   0.00000  Uiso   1.00
C337   C     0.43220   0.42172   0.88730   0.00000  Uiso   1.00
C338   C     0.47803   0.44556   0.87428   0.00000  Uiso   1.00
C339   C     0.49031   0.58759   0.85489   0.00000  Uiso   1.00
C340   C     0.38699   0.31068   0.96921   0.00000  Uiso   1.00
C341   C     0.39482   0.24113   0.02505   0.00000  Uiso   1.00
C342   C     0.36905   0.28966   0.07461   0.00000  Uiso   1.00
C343   C     0.37383   0.23691   0.86322   0.00000  Uiso   1.00
C344   C     0.37059   0.10532   0.82997   0.00000  Uiso   1.00
C345   C     0.33373   0.09172   0.79030   0.00000  Uiso   1.00
H346   H     0.32638   0.57375   0.89309   0.00000  Uiso   1.00
H347   H     0.38689   0.76590   0.85706   0.00000  Uiso   1.00
H348   H     0.30369   0.56149   0.00780   0.00000  Uiso   1.00
H349   H     0.27947   0.42570   0.81274   0.00000  Uiso   1.00
H350   H     0.46829   0.92869   0.81983   0.00000  Uiso   1.00
H351   H     0.29284   0.49764   0.13767   0.00000  Uiso   1.00
H352   H     0.24176   0.21131   0.72636   0.00000  Uiso   1.00
H353   H     0.43655   0.18643   0.91393   0.00000  Uiso   1.00
H354   H     0.50311   0.35733   0.87904   0.00000  Uiso   1.00
H355   H     0.41991   0.15293   0.02978   0.00000  Uiso   1.00
H356   H     0.39569   0.01714   0.83472   0.00000  Uiso   1.00
H357   H     0.56262   0.59708   0.83767   0.00000  Uiso   1.00
H358   H     0.38716   0.16604   0.15552   0.00000  Uiso   1.00
H359   H     0.33609   0.87970   0.74420   0.00000  Uiso   1.00
O360   O     0.55725   0.88231   0.80544   0.00000  Uiso   1.00
O361   O     0.32706   0.31678   0.22243   0.00000  Uiso   1.00
O362   O     0.26005   0.94113   0.68280   0.00000  Uiso   1.00
N363   N     0.48135   0.82718   0.82881   0.00000  Uiso   1.00
N364   N     0.31732   0.42420   0.12597   0.00000  Uiso   1.00
N365   N     0.26956   0.15648   0.74144   0.00000  Uiso   1.00
N366   N     0.53211   0.64875   0.83841   0.00000  Uiso   1.00
N367   N     0.36808   0.24576   0.13557   0.00000  Uiso   1.00
N368   N     0.32031   0.97805   0.75104   0.00000  Uiso   1.00
