data_job_00448
_audit_creation_date              2018-12-19
_audit_creation_method            'Materials Studio'
_symmetry_space_group_name_H-M    'P1'
_symmetry_Int_Tables_number       1
_symmetry_cell_setting            triclinic
loop_
_symmetry_equiv_pos_as_xyz
  x,y,z
_cell_length_a                    23.4772
_cell_length_b                    7.5116
_cell_length_c                    16.2504
_cell_angle_alpha                 90.0000
_cell_angle_beta                  124.4620
_cell_angle_gamma                 90.0000
loop_
_atom_site_label
_atom_site_type_symbol
_atom_site_fract_x
_atom_site_fract_y
_atom_site_fract_z
_atom_site_U_iso_or_equiv
_atom_site_adp_type
_atom_site_occupancy
C1     C     0.98940   0.16929   0.23478   0.00000  Uiso   1.00
C2     C     0.02757   0.05685   0.20245   0.00000  Uiso   1.00
C3     C     0.04488   0.11027   0.13750   0.00000  Uiso   1.00
C4     C     0.07978   0.98785   0.11735   0.00000  Uiso   1.00
C5     C     0.13644   0.83902   0.06052   0.00000  Uiso   1.00
C6     C     0.92604   0.06148   0.20803   0.00000  Uiso   1.00
C7     C     0.85799   0.11882   0.14778   0.00000  Uiso   1.00
C8     C     0.80742   0.00031   0.13234   0.00000  Uiso   1.00
C9     C     0.70647   0.85875   0.08423   0.00000  Uiso   1.00
C10    C     0.03594   0.17546   0.34848   0.00000  Uiso   1.00
C11    C     0.06029   0.32862   0.40633   0.00000  Uiso   1.00
C12    C     0.10224   0.30607   0.50915   0.00000  Uiso   1.00
C13    C     0.17193   0.34145   0.67911   0.00000  Uiso   1.00
C14    C     0.02058   0.85689   0.31450   0.00000  Uiso   1.00
C15    C     0.04450   0.88716   0.24575   0.00000  Uiso   1.00
C16    C     0.07938   0.76463   0.22570   0.00000  Uiso   1.00
C17    C     0.09675   0.81786   0.16073   0.00000  Uiso   1.00
C18    C     0.94298   0.89180   0.25133   0.00000  Uiso   1.00
C19    C     0.89250   0.77319   0.23598   0.00000  Uiso   1.00
C20    C     0.82439   0.83032   0.17571   0.00000  Uiso   1.00
C21    C     0.05288   0.00577   0.39179   0.00000  Uiso   1.00
C22    C     0.09480   0.98298   0.49453   0.00000  Uiso   1.00
C23    C     0.11921   0.13607   0.55252   0.00000  Uiso   1.00
H24    H     0.97620   0.30140   0.20107   0.00000  Uiso   1.00
H25    H     0.03176   0.24159   0.10400   0.00000  Uiso   1.00
H26    H     0.84490   0.25015   0.11429   0.00000  Uiso   1.00
H27    H     0.04717   0.45991   0.37280   0.00000  Uiso   1.00
H28    H     0.10080   0.10043   0.01544   0.00000  Uiso   1.00
H29    H     0.70680   0.11850   0.03717   0.00000  Uiso   1.00
H30    H     0.13333   0.56082   0.58229   0.00000  Uiso   1.00
H31    H     0.03377   0.72478   0.34821   0.00000  Uiso   1.00
H32    H     0.09248   0.63332   0.25921   0.00000  Uiso   1.00
H33    H     0.90562   0.64189   0.26950   0.00000  Uiso   1.00
H34    H     0.10789   0.85165   0.52801   0.00000  Uiso   1.00
H35    H     0.15008   0.60673   0.14142   0.00000  Uiso   1.00
H36    H     0.75608   0.62481   0.16314   0.00000  Uiso   1.00
H37    H     0.18261   0.06713   0.70826   0.00000  Uiso   1.00
O38    O     0.16301   0.80380   0.01720   0.00000  Uiso   1.00
O39    O     0.64610   0.82753   0.04572   0.00000  Uiso   1.00
O40    O     0.20569   0.40785   0.76091   0.00000  Uiso   1.00
N41    N     0.10435   0.99680   0.05732   0.00000  Uiso   1.00
N42    N     0.73599   0.01369   0.07762   0.00000  Uiso   1.00
N43    N     0.13474   0.42722   0.58726   0.00000  Uiso   1.00
N44    N     0.13087   0.73115   0.12511   0.00000  Uiso   1.00
N45    N     0.76251   0.74804   0.14540   0.00000  Uiso   1.00
N46    N     0.16126   0.16157   0.65505   0.00000  Uiso   1.00
C47    C     0.48940   0.66929   0.23478   0.00000  Uiso   1.00
C48    C     0.52757   0.55685   0.20245   0.00000  Uiso   1.00
C49    C     0.54488   0.61027   0.13750   0.00000  Uiso   1.00
C50    C     0.57978   0.48785   0.11735   0.00000  Uiso   1.00
C51    C     0.63644   0.33902   0.06052   0.00000  Uiso   1.00
C52    C     0.42604   0.56148   0.20803   0.00000  Uiso   1.00
C53    C     0.35799   0.61882   0.14778   0.00000  Uiso   1.00
C54    C     0.30742   0.50031   0.13234   0.00000  Uiso   1.00
C55    C     0.20647   0.35875   0.08423   0.00000  Uiso   1.00
C56    C     0.53594   0.67546   0.34848   0.00000  Uiso   1.00
C57    C     0.56029   0.82862   0.40633   0.00000  Uiso   1.00
C58    C     0.60224   0.80607   0.50915   0.00000  Uiso   1.00
C59    C     0.67193   0.84145   0.67911   0.00000  Uiso   1.00
C60    C     0.52058   0.35689   0.31450   0.00000  Uiso   1.00
C61    C     0.54450   0.38716   0.24575   0.00000  Uiso   1.00
C62    C     0.57938   0.26463   0.22570   0.00000  Uiso   1.00
C63    C     0.59675   0.31786   0.16073   0.00000  Uiso   1.00
C64    C     0.44298   0.39180   0.25133   0.00000  Uiso   1.00
C65    C     0.39250   0.27319   0.23598   0.00000  Uiso   1.00
C66    C     0.32439   0.33032   0.17571   0.00000  Uiso   1.00
C67    C     0.55288   0.50577   0.39179   0.00000  Uiso   1.00
C68    C     0.59480   0.48298   0.49453   0.00000  Uiso   1.00
C69    C     0.61921   0.63607   0.55252   0.00000  Uiso   1.00
H70    H     0.47620   0.80140   0.20107   0.00000  Uiso   1.00
H71    H     0.53176   0.74159   0.10400   0.00000  Uiso   1.00
H72    H     0.34490   0.75015   0.11429   0.00000  Uiso   1.00
H73    H     0.54717   0.95991   0.37280   0.00000  Uiso   1.00
H74    H     0.60080   0.60043   0.01544   0.00000  Uiso   1.00
H75    H     0.20680   0.61850   0.03717   0.00000  Uiso   1.00
H76    H     0.63333   0.06082   0.58229   0.00000  Uiso   1.00
H77    H     0.53377   0.22478   0.34821   0.00000  Uiso   1.00
H78    H     0.59248   0.13332   0.25921   0.00000  Uiso   1.00
H79    H     0.40562   0.14189   0.26950   0.00000  Uiso   1.00
H80    H     0.60789   0.35165   0.52801   0.00000  Uiso   1.00
H81    H     0.65008   0.10673   0.14142   0.00000  Uiso   1.00
H82    H     0.25608   0.12481   0.16314   0.00000  Uiso   1.00
H83    H     0.68261   0.56713   0.70826   0.00000  Uiso   1.00
O84    O     0.66301   0.30380   0.01720   0.00000  Uiso   1.00
O85    O     0.14610   0.32753   0.04572   0.00000  Uiso   1.00
O86    O     0.70569   0.90785   0.76091   0.00000  Uiso   1.00
N87    N     0.60435   0.49680   0.05732   0.00000  Uiso   1.00
N88    N     0.23599   0.51369   0.07762   0.00000  Uiso   1.00
N89    N     0.63474   0.92722   0.58726   0.00000  Uiso   1.00
N90    N     0.63087   0.23115   0.12511   0.00000  Uiso   1.00
N91    N     0.26251   0.24804   0.14540   0.00000  Uiso   1.00
N92    N     0.66126   0.66157   0.65505   0.00000  Uiso   1.00
C93    C     0.01060   0.16929   0.76522   0.00000  Uiso   1.00
C94    C     0.97243   0.05685   0.79755   0.00000  Uiso   1.00
C95    C     0.95512   0.11027   0.86250   0.00000  Uiso   1.00
C96    C     0.92022   0.98785   0.88265   0.00000  Uiso   1.00
C97    C     0.86356   0.83902   0.93948   0.00000  Uiso   1.00
C98    C     0.07396   0.06148   0.79197   0.00000  Uiso   1.00
C99    C     0.14201   0.11882   0.85222   0.00000  Uiso   1.00
C100   C     0.19258   0.00031   0.86766   0.00000  Uiso   1.00
C101   C     0.29353   0.85875   0.91577   0.00000  Uiso   1.00
C102   C     0.96406   0.17546   0.65152   0.00000  Uiso   1.00
C103   C     0.93971   0.32862   0.59367   0.00000  Uiso   1.00
C104   C     0.89776   0.30607   0.49085   0.00000  Uiso   1.00
C105   C     0.82807   0.34145   0.32089   0.00000  Uiso   1.00
C106   C     0.97942   0.85689   0.68550   0.00000  Uiso   1.00
C107   C     0.95550   0.88716   0.75425   0.00000  Uiso   1.00
C108   C     0.92062   0.76463   0.77430   0.00000  Uiso   1.00
C109   C     0.90325   0.81786   0.83927   0.00000  Uiso   1.00
C110   C     0.05702   0.89180   0.74867   0.00000  Uiso   1.00
C111   C     0.10750   0.77319   0.76402   0.00000  Uiso   1.00
C112   C     0.17561   0.83032   0.82429   0.00000  Uiso   1.00
C113   C     0.94712   0.00577   0.60821   0.00000  Uiso   1.00
C114   C     0.90520   0.98298   0.50547   0.00000  Uiso   1.00
C115   C     0.88079   0.13607   0.44748   0.00000  Uiso   1.00
H116   H     0.02380   0.30140   0.79893   0.00000  Uiso   1.00
H117   H     0.96824   0.24159   0.89600   0.00000  Uiso   1.00
H118   H     0.15510   0.25015   0.88571   0.00000  Uiso   1.00
H119   H     0.95283   0.45991   0.62720   0.00000  Uiso   1.00
H120   H     0.89920   0.10043   0.98456   0.00000  Uiso   1.00
H121   H     0.29320   0.11850   0.96283   0.00000  Uiso   1.00
H122   H     0.86667   0.56082   0.41771   0.00000  Uiso   1.00
H123   H     0.96623   0.72478   0.65179   0.00000  Uiso   1.00
H124   H     0.90752   0.63332   0.74079   0.00000  Uiso   1.00
H125   H     0.09438   0.64189   0.73050   0.00000  Uiso   1.00
H126   H     0.89211   0.85165   0.47199   0.00000  Uiso   1.00
H127   H     0.84992   0.60673   0.85858   0.00000  Uiso   1.00
H128   H     0.24392   0.62481   0.83686   0.00000  Uiso   1.00
H129   H     0.81739   0.06713   0.29174   0.00000  Uiso   1.00
O130   O     0.83699   0.80380   0.98280   0.00000  Uiso   1.00
O131   O     0.35390   0.82753   0.95428   0.00000  Uiso   1.00
O132   O     0.79431   0.40785   0.23909   0.00000  Uiso   1.00
N133   N     0.89565   0.99680   0.94268   0.00000  Uiso   1.00
N134   N     0.26401   0.01369   0.92238   0.00000  Uiso   1.00
N135   N     0.86526   0.42722   0.41274   0.00000  Uiso   1.00
N136   N     0.86913   0.73115   0.87489   0.00000  Uiso   1.00
N137   N     0.23749   0.74804   0.85460   0.00000  Uiso   1.00
N138   N     0.83874   0.16157   0.34495   0.00000  Uiso   1.00
C139   C     0.51060   0.66929   0.76522   0.00000  Uiso   1.00
C140   C     0.47243   0.55685   0.79755   0.00000  Uiso   1.00
C141   C     0.45512   0.61027   0.86250   0.00000  Uiso   1.00
C142   C     0.42022   0.48785   0.88265   0.00000  Uiso   1.00
C143   C     0.36356   0.33902   0.93948   0.00000  Uiso   1.00
C144   C     0.57396   0.56148   0.79197   0.00000  Uiso   1.00
C145   C     0.64201   0.61882   0.85222   0.00000  Uiso   1.00
C146   C     0.69258   0.50031   0.86766   0.00000  Uiso   1.00
C147   C     0.79353   0.35875   0.91577   0.00000  Uiso   1.00
C148   C     0.46406   0.67546   0.65152   0.00000  Uiso   1.00
C149   C     0.43971   0.82862   0.59367   0.00000  Uiso   1.00
C150   C     0.39776   0.80607   0.49085   0.00000  Uiso   1.00
C151   C     0.32807   0.84145   0.32089   0.00000  Uiso   1.00
C152   C     0.47942   0.35689   0.68550   0.00000  Uiso   1.00
C153   C     0.45550   0.38716   0.75425   0.00000  Uiso   1.00
C154   C     0.42062   0.26463   0.77430   0.00000  Uiso   1.00
C155   C     0.40325   0.31786   0.83927   0.00000  Uiso   1.00
C156   C     0.55702   0.39180   0.74867   0.00000  Uiso   1.00
C157   C     0.60750   0.27319   0.76402   0.00000  Uiso   1.00
C158   C     0.67561   0.33032   0.82429   0.00000  Uiso   1.00
C159   C     0.44712   0.50577   0.60821   0.00000  Uiso   1.00
C160   C     0.40520   0.48298   0.50547   0.00000  Uiso   1.00
C161   C     0.38079   0.63607   0.44748   0.00000  Uiso   1.00
H162   H     0.52380   0.80140   0.79893   0.00000  Uiso   1.00
H163   H     0.46824   0.74159   0.89600   0.00000  Uiso   1.00
H164   H     0.65510   0.75015   0.88571   0.00000  Uiso   1.00
H165   H     0.45283   0.95991   0.62720   0.00000  Uiso   1.00
H166   H     0.39920   0.60043   0.98456   0.00000  Uiso   1.00
H167   H     0.79320   0.61850   0.96283   0.00000  Uiso   1.00
H168   H     0.36667   0.06082   0.41771   0.00000  Uiso   1.00
H169   H     0.46623   0.22478   0.65179   0.00000  Uiso   1.00
H170   H     0.40752   0.13332   0.74079   0.00000  Uiso   1.00
H171   H     0.59438   0.14189   0.73050   0.00000  Uiso   1.00
H172   H     0.39211   0.35165   0.47199   0.00000  Uiso   1.00
H173   H     0.34992   0.10673   0.85858   0.00000  Uiso   1.00
H174   H     0.74392   0.12481   0.83686   0.00000  Uiso   1.00
H175   H     0.31739   0.56713   0.29174   0.00000  Uiso   1.00
O176   O     0.33699   0.30380   0.98280   0.00000  Uiso   1.00
O177   O     0.85390   0.32753   0.95428   0.00000  Uiso   1.00
O178   O     0.29431   0.90785   0.23909   0.00000  Uiso   1.00
N179   N     0.39565   0.49680   0.94268   0.00000  Uiso   1.00
N180   N     0.76401   0.51369   0.92238   0.00000  Uiso   1.00
N181   N     0.36526   0.92722   0.41274   0.00000  Uiso   1.00
N182   N     0.36913   0.23115   0.87489   0.00000  Uiso   1.00
N183   N     0.73749   0.24804   0.85460   0.00000  Uiso   1.00
N184   N     0.33874   0.66157   0.34495   0.00000  Uiso   1.00
