data_job_04684
_audit_creation_date              2018-12-19
_audit_creation_method            'Materials Studio'
_symmetry_space_group_name_H-M    'P1'
_symmetry_Int_Tables_number       1
_symmetry_cell_setting            triclinic
loop_
_symmetry_equiv_pos_as_xyz
  x,y,z
_cell_length_a                    13.1523
_cell_length_b                    12.3769
_cell_length_c                    34.7876
_cell_angle_alpha                 90.0000
_cell_angle_beta                  120.0052
_cell_angle_gamma                 90.0000
loop_
_atom_site_label
_atom_site_type_symbol
_atom_site_fract_x
_atom_site_fract_y
_atom_site_fract_z
_atom_site_U_iso_or_equiv
_atom_site_adp_type
_atom_site_occupancy
C1     C     0.17190   0.01488   0.66735   0.00000  Uiso   1.00
C2     C     0.15164   0.90243   0.64688   0.00000  Uiso   1.00
C3     C     0.05583   0.83648   0.63631   0.00000  Uiso   1.00
C4     C     0.05355   0.73645   0.61784   0.00000  Uiso   1.00
C5     C     0.00838   0.56681   0.58722   0.00000  Uiso   1.00
C6     C     0.29116   0.01074   0.70977   0.00000  Uiso   1.00
C7     C     0.31267   0.03587   0.75207   0.00000  Uiso   1.00
C8     C     0.42785   0.02702   0.78654   0.00000  Uiso   1.00
C9     C     0.59930   0.02562   0.85355   0.00000  Uiso   1.00
C10    C     0.18688   0.09009   0.63581   0.00000  Uiso   1.00
C11    C     0.12072   0.18195   0.61594   0.00000  Uiso   1.00
C12    C     0.14812   0.23992   0.58815   0.00000  Uiso   1.00
C13    C     0.15766   0.36171   0.54035   0.00000  Uiso   1.00
C14    C     0.33822   0.95451   0.65334   0.00000  Uiso   1.00
C15    C     0.24198   0.86964   0.63927   0.00000  Uiso   1.00
C16    C     0.23984   0.76968   0.62080   0.00000  Uiso   1.00
C17    C     0.14405   0.70359   0.61021   0.00000  Uiso   1.00
C18    C     0.38150   0.97795   0.70216   0.00000  Uiso   1.00
C19    C     0.49668   0.96907   0.73657   0.00000  Uiso   1.00
C20    C     0.51835   0.99417   0.77891   0.00000  Uiso   1.00
C21    C     0.27722   0.05729   0.62820   0.00000  Uiso   1.00
C22    C     0.30473   0.11514   0.60044   0.00000  Uiso   1.00
C23    C     0.23862   0.20707   0.58053   0.00000  Uiso   1.00
H24    H     0.10157   0.04041   0.67328   0.00000  Uiso   1.00
H25    H     0.98594   0.86189   0.64221   0.00000  Uiso   1.00
H26    H     0.24274   0.06126   0.75795   0.00000  Uiso   1.00
H27    H     0.05082   0.20730   0.62184   0.00000  Uiso   1.00
H28    H     0.89761   0.64948   0.60442   0.00000  Uiso   1.00
H29    H     0.43908   0.06989   0.84846   0.00000  Uiso   1.00
H30    H     0.03438   0.37787   0.56145   0.00000  Uiso   1.00
H31    H     0.40856   0.92897   0.64742   0.00000  Uiso   1.00
H32    H     0.30977   0.74433   0.61492   0.00000  Uiso   1.00
H33    H     0.56656   0.94370   0.73066   0.00000  Uiso   1.00
H34    H     0.37464   0.08974   0.59456   0.00000  Uiso   1.00
H35    H     0.16044   0.55406   0.58227   0.00000  Uiso   1.00
H36    H     0.70192   0.97448   0.82632   0.00000  Uiso   1.00
H37    H     0.29721   0.28245   0.53931   0.00000  Uiso   1.00
O38    O     0.95852   0.48230   0.57245   0.00000  Uiso   1.00
O39    O     0.66891   0.03389   0.89262   0.00000  Uiso   1.00
O40    O     0.13795   0.43793   0.51608   0.00000  Uiso   1.00
N41    N     0.97301   0.65237   0.60366   0.00000  Uiso   1.00
N42    N     0.47926   0.04542   0.83183   0.00000  Uiso   1.00
N43    N     0.10091   0.33336   0.56351   0.00000  Uiso   1.00
N44    N     0.11443   0.60102   0.59174   0.00000  Uiso   1.00
N45    N     0.62068   0.99407   0.81991   0.00000  Uiso   1.00
N46    N     0.24234   0.28202   0.55159   0.00000  Uiso   1.00
C47    C     0.65628   0.30129   0.12855   0.00000  Uiso   1.00
C48    C     0.63202   0.19111   0.10603   0.00000  Uiso   1.00
C49    C     0.53527   0.12629   0.09523   0.00000  Uiso   1.00
C50    C     0.52916   0.02830   0.07475   0.00000  Uiso   1.00
C51    C     0.47820   0.86205   0.04121   0.00000  Uiso   1.00
C52    C     0.77694   0.29272   0.17012   0.00000  Uiso   1.00
C53    C     0.80203   0.31335   0.21321   0.00000  Uiso   1.00
C54    C     0.91793   0.30092   0.24668   0.00000  Uiso   1.00
C55    C     0.09197   0.29250   0.31264   0.00000  Uiso   1.00
C56    C     0.67037   0.37978   0.09774   0.00000  Uiso   1.00
C57    C     0.60588   0.47363   0.07999   0.00000  Uiso   1.00
C58    C     0.63207   0.53451   0.05253   0.00000  Uiso   1.00
C59    C     0.64065   0.66126   0.00612   0.00000  Uiso   1.00
C60    C     0.81748   0.24255   0.11138   0.00000  Uiso   1.00
C61    C     0.71958   0.15920   0.09670   0.00000  Uiso   1.00
C62    C     0.71362   0.06129   0.07623   0.00000  Uiso   1.00
C63    C     0.61688   0.99634   0.06540   0.00000  Uiso   1.00
C64    C     0.86449   0.26082   0.16079   0.00000  Uiso   1.00
C65    C     0.98038   0.24836   0.19420   0.00000  Uiso   1.00
C66    C     0.00565   0.26896   0.23733   0.00000  Uiso   1.00
C67    C     0.75792   0.34787   0.08841   0.00000  Uiso   1.00
C68    C     0.78423   0.40863   0.06098   0.00000  Uiso   1.00
C69    C     0.71979   0.50254   0.04318   0.00000  Uiso   1.00
H70    H     0.58812   0.32613   0.13582   0.00000  Uiso   1.00
H71    H     0.46753   0.15100   0.10246   0.00000  Uiso   1.00
H72    H     0.73426   0.33805   0.22041   0.00000  Uiso   1.00
H73    H     0.53813   0.49829   0.08721   0.00000  Uiso   1.00
H74    H     0.37247   0.94275   0.06137   0.00000  Uiso   1.00
H75    H     0.93488   0.33719   0.31009   0.00000  Uiso   1.00
H76    H     0.52132   0.67509   0.02921   0.00000  Uiso   1.00
H77    H     0.88566   0.21771   0.10411   0.00000  Uiso   1.00
H78    H     0.78139   0.03663   0.06901   0.00000  Uiso   1.00
H79    H     0.04812   0.22367   0.18697   0.00000  Uiso   1.00
H80    H     0.85199   0.38391   0.05377   0.00000  Uiso   1.00
H81    H     0.62722   0.84992   0.03423   0.00000  Uiso   1.00
H82    H     0.18963   0.24436   0.28295   0.00000  Uiso   1.00
H83    H     0.77606   0.58226   0.00207   0.00000  Uiso   1.00
O84    O     0.42591   0.77915   0.02530   0.00000  Uiso   1.00
O85    O     0.16377   0.29666   0.35160   0.00000  Uiso   1.00
O86    O     0.62118   0.73997   0.98309   0.00000  Uiso   1.00
N87    N     0.44672   0.94576   0.05979   0.00000  Uiso   1.00
N88    N     0.97254   0.31452   0.29233   0.00000  Uiso   1.00
N89    N     0.58591   0.63045   0.02974   0.00000  Uiso   1.00
N90    N     0.58380   0.89581   0.04519   0.00000  Uiso   1.00
N91    N     0.10962   0.26457   0.27773   0.00000  Uiso   1.00
N92    N     0.72299   0.58050   0.01514   0.00000  Uiso   1.00
C93    C     0.82810   0.51488   0.83265   0.00000  Uiso   1.00
C94    C     0.84836   0.40243   0.85312   0.00000  Uiso   1.00
C95    C     0.94417   0.33648   0.86369   0.00000  Uiso   1.00
C96    C     0.94645   0.23645   0.88216   0.00000  Uiso   1.00
C97    C     0.99162   0.06681   0.91278   0.00000  Uiso   1.00
C98    C     0.70884   0.51074   0.79023   0.00000  Uiso   1.00
C99    C     0.68733   0.53587   0.74793   0.00000  Uiso   1.00
C100   C     0.57215   0.52702   0.71346   0.00000  Uiso   1.00
C101   C     0.40070   0.52562   0.64645   0.00000  Uiso   1.00
C102   C     0.81312   0.59009   0.86419   0.00000  Uiso   1.00
C103   C     0.87928   0.68195   0.88406   0.00000  Uiso   1.00
C104   C     0.85188   0.73992   0.91185   0.00000  Uiso   1.00
C105   C     0.84234   0.86171   0.95965   0.00000  Uiso   1.00
C106   C     0.66178   0.45451   0.84666   0.00000  Uiso   1.00
C107   C     0.75802   0.36964   0.86073   0.00000  Uiso   1.00
C108   C     0.76016   0.26968   0.87920   0.00000  Uiso   1.00
C109   C     0.85595   0.20359   0.88979   0.00000  Uiso   1.00
C110   C     0.61850   0.47795   0.79784   0.00000  Uiso   1.00
C111   C     0.50332   0.46907   0.76343   0.00000  Uiso   1.00
C112   C     0.48165   0.49417   0.72109   0.00000  Uiso   1.00
C113   C     0.72278   0.55729   0.87180   0.00000  Uiso   1.00
C114   C     0.69527   0.61514   0.89956   0.00000  Uiso   1.00
C115   C     0.76138   0.70707   0.91947   0.00000  Uiso   1.00
H116   H     0.89843   0.54041   0.82672   0.00000  Uiso   1.00
H117   H     0.01406   0.36189   0.85779   0.00000  Uiso   1.00
H118   H     0.75726   0.56126   0.74205   0.00000  Uiso   1.00
H119   H     0.94918   0.70730   0.87816   0.00000  Uiso   1.00
H120   H     0.10239   0.14948   0.89558   0.00000  Uiso   1.00
H121   H     0.56092   0.56989   0.65154   0.00000  Uiso   1.00
H122   H     0.96562   0.87787   0.93855   0.00000  Uiso   1.00
H123   H     0.59144   0.42897   0.85258   0.00000  Uiso   1.00
H124   H     0.69023   0.24433   0.88508   0.00000  Uiso   1.00
H125   H     0.43344   0.44370   0.76934   0.00000  Uiso   1.00
H126   H     0.62536   0.58974   0.90544   0.00000  Uiso   1.00
H127   H     0.83956   0.05406   0.91773   0.00000  Uiso   1.00
H128   H     0.29808   0.47448   0.67368   0.00000  Uiso   1.00
H129   H     0.70279   0.78245   0.96069   0.00000  Uiso   1.00
O130   O     0.04148   0.98230   0.92755   0.00000  Uiso   1.00
O131   O     0.33109   0.53389   0.60738   0.00000  Uiso   1.00
O132   O     0.86205   0.93793   0.98392   0.00000  Uiso   1.00
N133   N     0.02699   0.15237   0.89634   0.00000  Uiso   1.00
N134   N     0.52074   0.54542   0.66817   0.00000  Uiso   1.00
N135   N     0.89909   0.83336   0.93649   0.00000  Uiso   1.00
N136   N     0.88557   0.10102   0.90826   0.00000  Uiso   1.00
N137   N     0.37932   0.49407   0.68009   0.00000  Uiso   1.00
N138   N     0.75766   0.78202   0.94841   0.00000  Uiso   1.00
C139   C     0.34372   0.80129   0.37145   0.00000  Uiso   1.00
C140   C     0.36798   0.69111   0.39397   0.00000  Uiso   1.00
C141   C     0.46473   0.62629   0.40477   0.00000  Uiso   1.00
C142   C     0.47084   0.52830   0.42525   0.00000  Uiso   1.00
C143   C     0.52180   0.36205   0.45879   0.00000  Uiso   1.00
C144   C     0.22306   0.79272   0.32988   0.00000  Uiso   1.00
C145   C     0.19797   0.81335   0.28679   0.00000  Uiso   1.00
C146   C     0.08207   0.80092   0.25332   0.00000  Uiso   1.00
C147   C     0.90803   0.79250   0.18736   0.00000  Uiso   1.00
C148   C     0.32963   0.87978   0.40226   0.00000  Uiso   1.00
C149   C     0.39412   0.97363   0.42001   0.00000  Uiso   1.00
C150   C     0.36793   0.03451   0.44747   0.00000  Uiso   1.00
C151   C     0.35935   0.16126   0.49388   0.00000  Uiso   1.00
C152   C     0.18252   0.74255   0.38862   0.00000  Uiso   1.00
C153   C     0.28042   0.65920   0.40330   0.00000  Uiso   1.00
C154   C     0.28638   0.56129   0.42377   0.00000  Uiso   1.00
C155   C     0.38312   0.49634   0.43460   0.00000  Uiso   1.00
C156   C     0.13551   0.76082   0.33921   0.00000  Uiso   1.00
C157   C     0.01962   0.74836   0.30580   0.00000  Uiso   1.00
C158   C     0.99435   0.76896   0.26267   0.00000  Uiso   1.00
C159   C     0.24208   0.84787   0.41159   0.00000  Uiso   1.00
C160   C     0.21577   0.90863   0.43902   0.00000  Uiso   1.00
C161   C     0.28021   0.00254   0.45682   0.00000  Uiso   1.00
H162   H     0.41188   0.82613   0.36418   0.00000  Uiso   1.00
H163   H     0.53247   0.65100   0.39754   0.00000  Uiso   1.00
H164   H     0.26574   0.83805   0.27959   0.00000  Uiso   1.00
H165   H     0.46187   0.99829   0.41279   0.00000  Uiso   1.00
H166   H     0.62753   0.44275   0.43863   0.00000  Uiso   1.00
H167   H     0.06512   0.83719   0.18991   0.00000  Uiso   1.00
H168   H     0.47868   0.17509   0.47079   0.00000  Uiso   1.00
H169   H     0.11434   0.71771   0.39589   0.00000  Uiso   1.00
H170   H     0.21861   0.53663   0.43099   0.00000  Uiso   1.00
H171   H     0.95188   0.72367   0.31303   0.00000  Uiso   1.00
H172   H     0.14801   0.88391   0.44623   0.00000  Uiso   1.00
H173   H     0.37278   0.34992   0.46577   0.00000  Uiso   1.00
H174   H     0.81037   0.74436   0.21705   0.00000  Uiso   1.00
H175   H     0.22394   0.08226   0.49793   0.00000  Uiso   1.00
O176   O     0.57409   0.27915   0.47470   0.00000  Uiso   1.00
O177   O     0.83623   0.79666   0.14840   0.00000  Uiso   1.00
O178   O     0.37882   0.23997   0.51691   0.00000  Uiso   1.00
N179   N     0.55328   0.44576   0.44021   0.00000  Uiso   1.00
N180   N     0.02746   0.81452   0.20767   0.00000  Uiso   1.00
N181   N     0.41409   0.13045   0.47026   0.00000  Uiso   1.00
N182   N     0.41620   0.39581   0.45481   0.00000  Uiso   1.00
N183   N     0.89038   0.76457   0.22227   0.00000  Uiso   1.00
N184   N     0.27701   0.08050   0.48486   0.00000  Uiso   1.00
C185   C     0.82810   0.98512   0.33265   0.00000  Uiso   1.00
C186   C     0.84836   0.09757   0.35312   0.00000  Uiso   1.00
C187   C     0.94417   0.16352   0.36369   0.00000  Uiso   1.00
C188   C     0.94645   0.26355   0.38216   0.00000  Uiso   1.00
C189   C     0.99162   0.43319   0.41278   0.00000  Uiso   1.00
C190   C     0.70884   0.98926   0.29023   0.00000  Uiso   1.00
C191   C     0.68733   0.96413   0.24793   0.00000  Uiso   1.00
C192   C     0.57215   0.97298   0.21346   0.00000  Uiso   1.00
C193   C     0.40070   0.97438   0.14645   0.00000  Uiso   1.00
C194   C     0.81312   0.90991   0.36419   0.00000  Uiso   1.00
C195   C     0.87928   0.81805   0.38406   0.00000  Uiso   1.00
C196   C     0.85188   0.76008   0.41185   0.00000  Uiso   1.00
C197   C     0.84234   0.63829   0.45965   0.00000  Uiso   1.00
C198   C     0.66178   0.04549   0.34666   0.00000  Uiso   1.00
C199   C     0.75802   0.13036   0.36073   0.00000  Uiso   1.00
C200   C     0.76016   0.23032   0.37920   0.00000  Uiso   1.00
C201   C     0.85595   0.29641   0.38979   0.00000  Uiso   1.00
C202   C     0.61850   0.02205   0.29784   0.00000  Uiso   1.00
C203   C     0.50332   0.03093   0.26343   0.00000  Uiso   1.00
C204   C     0.48165   0.00583   0.22109   0.00000  Uiso   1.00
C205   C     0.72278   0.94271   0.37180   0.00000  Uiso   1.00
C206   C     0.69527   0.88486   0.39956   0.00000  Uiso   1.00
C207   C     0.76138   0.79293   0.41947   0.00000  Uiso   1.00
H208   H     0.89843   0.95959   0.32672   0.00000  Uiso   1.00
H209   H     0.01406   0.13811   0.35779   0.00000  Uiso   1.00
H210   H     0.75726   0.93874   0.24205   0.00000  Uiso   1.00
H211   H     0.94918   0.79270   0.37816   0.00000  Uiso   1.00
H212   H     0.10239   0.35052   0.39558   0.00000  Uiso   1.00
H213   H     0.56092   0.93011   0.15154   0.00000  Uiso   1.00
H214   H     0.96562   0.62213   0.43855   0.00000  Uiso   1.00
H215   H     0.59144   0.07103   0.35258   0.00000  Uiso   1.00
H216   H     0.69023   0.25567   0.38508   0.00000  Uiso   1.00
H217   H     0.43344   0.05630   0.26934   0.00000  Uiso   1.00
H218   H     0.62536   0.91026   0.40544   0.00000  Uiso   1.00
H219   H     0.83956   0.44594   0.41773   0.00000  Uiso   1.00
H220   H     0.29808   0.02552   0.17368   0.00000  Uiso   1.00
H221   H     0.70279   0.71755   0.46069   0.00000  Uiso   1.00
O222   O     0.04148   0.51770   0.42755   0.00000  Uiso   1.00
O223   O     0.33109   0.96611   0.10738   0.00000  Uiso   1.00
O224   O     0.86205   0.56207   0.48392   0.00000  Uiso   1.00
N225   N     0.02699   0.34763   0.39634   0.00000  Uiso   1.00
N226   N     0.52074   0.95458   0.16817   0.00000  Uiso   1.00
N227   N     0.89909   0.66664   0.43649   0.00000  Uiso   1.00
N228   N     0.88557   0.39898   0.40826   0.00000  Uiso   1.00
N229   N     0.37932   0.00593   0.18009   0.00000  Uiso   1.00
N230   N     0.75766   0.71798   0.44841   0.00000  Uiso   1.00
C231   C     0.34372   0.69871   0.87145   0.00000  Uiso   1.00
C232   C     0.36798   0.80889   0.89397   0.00000  Uiso   1.00
C233   C     0.46473   0.87371   0.90477   0.00000  Uiso   1.00
C234   C     0.47084   0.97170   0.92525   0.00000  Uiso   1.00
C235   C     0.52180   0.13795   0.95879   0.00000  Uiso   1.00
C236   C     0.22306   0.70728   0.82988   0.00000  Uiso   1.00
C237   C     0.19797   0.68665   0.78679   0.00000  Uiso   1.00
C238   C     0.08207   0.69908   0.75332   0.00000  Uiso   1.00
C239   C     0.90803   0.70750   0.68736   0.00000  Uiso   1.00
C240   C     0.32963   0.62022   0.90226   0.00000  Uiso   1.00
C241   C     0.39412   0.52637   0.92001   0.00000  Uiso   1.00
C242   C     0.36793   0.46549   0.94747   0.00000  Uiso   1.00
C243   C     0.35935   0.33874   0.99388   0.00000  Uiso   1.00
C244   C     0.18252   0.75745   0.88862   0.00000  Uiso   1.00
C245   C     0.28042   0.84080   0.90330   0.00000  Uiso   1.00
C246   C     0.28638   0.93871   0.92377   0.00000  Uiso   1.00
C247   C     0.38312   0.00366   0.93460   0.00000  Uiso   1.00
C248   C     0.13551   0.73918   0.83921   0.00000  Uiso   1.00
C249   C     0.01962   0.75164   0.80580   0.00000  Uiso   1.00
C250   C     0.99435   0.73104   0.76267   0.00000  Uiso   1.00
C251   C     0.24208   0.65213   0.91159   0.00000  Uiso   1.00
C252   C     0.21577   0.59137   0.93902   0.00000  Uiso   1.00
C253   C     0.28021   0.49746   0.95682   0.00000  Uiso   1.00
H254   H     0.41188   0.67387   0.86418   0.00000  Uiso   1.00
H255   H     0.53247   0.84900   0.89754   0.00000  Uiso   1.00
H256   H     0.26574   0.66195   0.77959   0.00000  Uiso   1.00
H257   H     0.46187   0.50171   0.91279   0.00000  Uiso   1.00
H258   H     0.62753   0.05725   0.93863   0.00000  Uiso   1.00
H259   H     0.06512   0.66281   0.68991   0.00000  Uiso   1.00
H260   H     0.47868   0.32491   0.97079   0.00000  Uiso   1.00
H261   H     0.11434   0.78229   0.89589   0.00000  Uiso   1.00
H262   H     0.21861   0.96337   0.93099   0.00000  Uiso   1.00
H263   H     0.95188   0.77633   0.81303   0.00000  Uiso   1.00
H264   H     0.14801   0.61609   0.94623   0.00000  Uiso   1.00
H265   H     0.37278   0.15008   0.96577   0.00000  Uiso   1.00
H266   H     0.81037   0.75564   0.71705   0.00000  Uiso   1.00
H267   H     0.22394   0.41774   0.99793   0.00000  Uiso   1.00
O268   O     0.57409   0.22085   0.97470   0.00000  Uiso   1.00
O269   O     0.83623   0.70334   0.64840   0.00000  Uiso   1.00
O270   O     0.37882   0.26003   0.01691   0.00000  Uiso   1.00
N271   N     0.55328   0.05424   0.94021   0.00000  Uiso   1.00
N272   N     0.02746   0.68548   0.70767   0.00000  Uiso   1.00
N273   N     0.41409   0.36955   0.97026   0.00000  Uiso   1.00
N274   N     0.41620   0.10419   0.95481   0.00000  Uiso   1.00
N275   N     0.89038   0.73543   0.72227   0.00000  Uiso   1.00
N276   N     0.27701   0.41950   0.98486   0.00000  Uiso   1.00
C277   C     0.17190   0.48512   0.16735   0.00000  Uiso   1.00
C278   C     0.15164   0.59757   0.14688   0.00000  Uiso   1.00
C279   C     0.05583   0.66352   0.13631   0.00000  Uiso   1.00
C280   C     0.05355   0.76355   0.11784   0.00000  Uiso   1.00
C281   C     0.00838   0.93319   0.08722   0.00000  Uiso   1.00
C282   C     0.29116   0.48926   0.20977   0.00000  Uiso   1.00
C283   C     0.31267   0.46413   0.25207   0.00000  Uiso   1.00
C284   C     0.42785   0.47298   0.28654   0.00000  Uiso   1.00
C285   C     0.59930   0.47438   0.35355   0.00000  Uiso   1.00
C286   C     0.18688   0.40991   0.13581   0.00000  Uiso   1.00
C287   C     0.12072   0.31805   0.11594   0.00000  Uiso   1.00
C288   C     0.14812   0.26008   0.08815   0.00000  Uiso   1.00
C289   C     0.15766   0.13829   0.04035   0.00000  Uiso   1.00
C290   C     0.33822   0.54549   0.15334   0.00000  Uiso   1.00
C291   C     0.24198   0.63036   0.13927   0.00000  Uiso   1.00
C292   C     0.23984   0.73032   0.12080   0.00000  Uiso   1.00
C293   C     0.14405   0.79641   0.11021   0.00000  Uiso   1.00
C294   C     0.38150   0.52205   0.20216   0.00000  Uiso   1.00
C295   C     0.49668   0.53093   0.23657   0.00000  Uiso   1.00
C296   C     0.51835   0.50583   0.27891   0.00000  Uiso   1.00
C297   C     0.27722   0.44271   0.12820   0.00000  Uiso   1.00
C298   C     0.30473   0.38486   0.10044   0.00000  Uiso   1.00
C299   C     0.23862   0.29293   0.08053   0.00000  Uiso   1.00
H300   H     0.10157   0.45959   0.17328   0.00000  Uiso   1.00
H301   H     0.98594   0.63811   0.14221   0.00000  Uiso   1.00
H302   H     0.24274   0.43874   0.25795   0.00000  Uiso   1.00
H303   H     0.05082   0.29270   0.12184   0.00000  Uiso   1.00
H304   H     0.89761   0.85052   0.10442   0.00000  Uiso   1.00
H305   H     0.43908   0.43011   0.34846   0.00000  Uiso   1.00
H306   H     0.03438   0.12213   0.06145   0.00000  Uiso   1.00
H307   H     0.40856   0.57103   0.14742   0.00000  Uiso   1.00
H308   H     0.30977   0.75567   0.11492   0.00000  Uiso   1.00
H309   H     0.56656   0.55630   0.23066   0.00000  Uiso   1.00
H310   H     0.37464   0.41026   0.09456   0.00000  Uiso   1.00
H311   H     0.16044   0.94594   0.08227   0.00000  Uiso   1.00
H312   H     0.70192   0.52552   0.32632   0.00000  Uiso   1.00
H313   H     0.29721   0.21755   0.03931   0.00000  Uiso   1.00
O314   O     0.95852   0.01770   0.07245   0.00000  Uiso   1.00
O315   O     0.66891   0.46611   0.39262   0.00000  Uiso   1.00
O316   O     0.13795   0.06207   0.01608   0.00000  Uiso   1.00
N317   N     0.97301   0.84763   0.10366   0.00000  Uiso   1.00
N318   N     0.47926   0.45458   0.33183   0.00000  Uiso   1.00
N319   N     0.10091   0.16664   0.06351   0.00000  Uiso   1.00
N320   N     0.11443   0.89898   0.09174   0.00000  Uiso   1.00
N321   N     0.62068   0.50593   0.31991   0.00000  Uiso   1.00
N322   N     0.24234   0.21798   0.05159   0.00000  Uiso   1.00
C323   C     0.65628   0.19871   0.62855   0.00000  Uiso   1.00
C324   C     0.63202   0.30889   0.60603   0.00000  Uiso   1.00
C325   C     0.53527   0.37371   0.59523   0.00000  Uiso   1.00
C326   C     0.52916   0.47170   0.57475   0.00000  Uiso   1.00
C327   C     0.47820   0.63795   0.54121   0.00000  Uiso   1.00
C328   C     0.77694   0.20728   0.67012   0.00000  Uiso   1.00
C329   C     0.80203   0.18665   0.71321   0.00000  Uiso   1.00
C330   C     0.91793   0.19908   0.74668   0.00000  Uiso   1.00
C331   C     0.09197   0.20750   0.81264   0.00000  Uiso   1.00
C332   C     0.67037   0.12022   0.59774   0.00000  Uiso   1.00
C333   C     0.60588   0.02637   0.57999   0.00000  Uiso   1.00
C334   C     0.63207   0.96549   0.55253   0.00000  Uiso   1.00
C335   C     0.64065   0.83874   0.50612   0.00000  Uiso   1.00
C336   C     0.81748   0.25745   0.61138   0.00000  Uiso   1.00
C337   C     0.71958   0.34080   0.59670   0.00000  Uiso   1.00
C338   C     0.71362   0.43871   0.57623   0.00000  Uiso   1.00
C339   C     0.61688   0.50366   0.56540   0.00000  Uiso   1.00
C340   C     0.86449   0.23918   0.66079   0.00000  Uiso   1.00
C341   C     0.98038   0.25164   0.69420   0.00000  Uiso   1.00
C342   C     0.00565   0.23104   0.73733   0.00000  Uiso   1.00
C343   C     0.75792   0.15213   0.58841   0.00000  Uiso   1.00
C344   C     0.78423   0.09137   0.56098   0.00000  Uiso   1.00
C345   C     0.71979   0.99746   0.54318   0.00000  Uiso   1.00
H346   H     0.58812   0.17387   0.63582   0.00000  Uiso   1.00
H347   H     0.46753   0.34900   0.60246   0.00000  Uiso   1.00
H348   H     0.73426   0.16195   0.72041   0.00000  Uiso   1.00
H349   H     0.53813   0.00171   0.58721   0.00000  Uiso   1.00
H350   H     0.37247   0.55725   0.56137   0.00000  Uiso   1.00
H351   H     0.93488   0.16281   0.81009   0.00000  Uiso   1.00
H352   H     0.52132   0.82491   0.52921   0.00000  Uiso   1.00
H353   H     0.88566   0.28229   0.60411   0.00000  Uiso   1.00
H354   H     0.78139   0.46337   0.56901   0.00000  Uiso   1.00
H355   H     0.04812   0.27633   0.68697   0.00000  Uiso   1.00
H356   H     0.85199   0.11609   0.55377   0.00000  Uiso   1.00
H357   H     0.62722   0.65008   0.53423   0.00000  Uiso   1.00
H358   H     0.18963   0.25564   0.78295   0.00000  Uiso   1.00
H359   H     0.77606   0.91774   0.50207   0.00000  Uiso   1.00
O360   O     0.42591   0.72085   0.52530   0.00000  Uiso   1.00
O361   O     0.16377   0.20334   0.85160   0.00000  Uiso   1.00
O362   O     0.62118   0.76003   0.48309   0.00000  Uiso   1.00
N363   N     0.44672   0.55424   0.55979   0.00000  Uiso   1.00
N364   N     0.97254   0.18548   0.79233   0.00000  Uiso   1.00
N365   N     0.58591   0.86955   0.52974   0.00000  Uiso   1.00
N366   N     0.58380   0.60419   0.54519   0.00000  Uiso   1.00
N367   N     0.10962   0.23543   0.77773   0.00000  Uiso   1.00
N368   N     0.72299   0.91950   0.51514   0.00000  Uiso   1.00
