data_job_00937
_audit_creation_date              2018-12-19
_audit_creation_method            'Materials Studio'
_symmetry_space_group_name_H-M    'P1'
_symmetry_Int_Tables_number       1
_symmetry_cell_setting            triclinic
loop_
_symmetry_equiv_pos_as_xyz
  x,y,z
_cell_length_a                    20.2705
_cell_length_b                    7.4567
_cell_length_c                    17.6759
_cell_angle_alpha                 90.0000
_cell_angle_beta                  90.0000
_cell_angle_gamma                 90.0000
loop_
_atom_site_label
_atom_site_type_symbol
_atom_site_fract_x
_atom_site_fract_y
_atom_site_fract_z
_atom_site_U_iso_or_equiv
_atom_site_adp_type
_atom_site_occupancy
C1     C     0.68097   0.57711   0.02001   0.00000  Uiso   1.00
C2     C     0.74896   0.65609   0.00405   0.00000  Uiso   1.00
C3     C     0.80612   0.55872   0.99064   0.00000  Uiso   1.00
C4     C     0.86336   0.65593   0.97722   0.00000  Uiso   1.00
C5     C     0.65904   0.65610   0.09550   0.00000  Uiso   1.00
C6     C     0.64059   0.55872   0.15898   0.00000  Uiso   1.00
C7     C     0.62212   0.65593   0.22254   0.00000  Uiso   1.00
C8     C     0.63493   0.65609   0.96047   0.00000  Uiso   1.00
C9     C     0.59620   0.55872   0.91044   0.00000  Uiso   1.00
C10    C     0.55742   0.65593   0.86033   0.00000  Uiso   1.00
H11    H     0.68097   0.43090   0.02001   0.00000  Uiso   1.00
H12    H     0.80610   0.41338   0.99065   0.00000  Uiso   1.00
H13    H     0.64059   0.41339   0.15896   0.00000  Uiso   1.00
H14    H     0.59621   0.41339   0.91045   0.00000  Uiso   1.00
H15    H     0.94483   0.47679   0.95814   0.00000  Uiso   1.00
H16    H     0.59581   0.47679   0.31301   0.00000  Uiso   1.00
H17    H     0.50223   0.47679   0.78899   0.00000  Uiso   1.00
N18    N     0.92766   0.60299   0.96215   0.00000  Uiso   1.00
N19    N     0.60136   0.60299   0.29394   0.00000  Uiso   1.00
N20    N     0.51385   0.60299   0.80403   0.00000  Uiso   1.00
C21    C     0.81903   0.42289   0.52001   0.00000  Uiso   1.00
C22    C     0.75104   0.34391   0.50405   0.00000  Uiso   1.00
C23    C     0.69388   0.44128   0.49064   0.00000  Uiso   1.00
C24    C     0.63664   0.34407   0.47722   0.00000  Uiso   1.00
C25    C     0.84096   0.34390   0.59550   0.00000  Uiso   1.00
C26    C     0.85941   0.44128   0.65898   0.00000  Uiso   1.00
C27    C     0.87788   0.34407   0.72254   0.00000  Uiso   1.00
C28    C     0.86507   0.34391   0.46047   0.00000  Uiso   1.00
C29    C     0.90380   0.44128   0.41044   0.00000  Uiso   1.00
C30    C     0.94258   0.34407   0.36033   0.00000  Uiso   1.00
H31    H     0.81903   0.56910   0.52001   0.00000  Uiso   1.00
H32    H     0.69390   0.58662   0.49065   0.00000  Uiso   1.00
H33    H     0.85941   0.58661   0.65896   0.00000  Uiso   1.00
H34    H     0.90379   0.58661   0.41045   0.00000  Uiso   1.00
H35    H     0.55517   0.52321   0.45814   0.00000  Uiso   1.00
H36    H     0.90419   0.52321   0.81301   0.00000  Uiso   1.00
H37    H     0.99777   0.52321   0.28899   0.00000  Uiso   1.00
N38    N     0.57234   0.39701   0.46215   0.00000  Uiso   1.00
N39    N     0.89864   0.39701   0.79394   0.00000  Uiso   1.00
N40    N     0.98615   0.39701   0.30403   0.00000  Uiso   1.00
C41    C     0.31903   0.07711   0.97999   0.00000  Uiso   1.00
C42    C     0.25104   0.15609   0.99595   0.00000  Uiso   1.00
C43    C     0.19388   0.05872   0.00936   0.00000  Uiso   1.00
C44    C     0.13664   0.15593   0.02278   0.00000  Uiso   1.00
C45    C     0.34096   0.15610   0.90450   0.00000  Uiso   1.00
C46    C     0.35941   0.05872   0.84102   0.00000  Uiso   1.00
C47    C     0.37788   0.15593   0.77746   0.00000  Uiso   1.00
C48    C     0.36507   0.15609   0.03953   0.00000  Uiso   1.00
C49    C     0.40380   0.05872   0.08956   0.00000  Uiso   1.00
C50    C     0.44258   0.15593   0.13967   0.00000  Uiso   1.00
H51    H     0.31903   0.93090   0.97999   0.00000  Uiso   1.00
H52    H     0.19390   0.91338   0.00935   0.00000  Uiso   1.00
H53    H     0.35941   0.91339   0.84104   0.00000  Uiso   1.00
H54    H     0.40379   0.91339   0.08955   0.00000  Uiso   1.00
H55    H     0.05517   0.97679   0.04186   0.00000  Uiso   1.00
H56    H     0.40419   0.97679   0.68699   0.00000  Uiso   1.00
H57    H     0.49777   0.97679   0.21101   0.00000  Uiso   1.00
N58    N     0.07234   0.10299   0.03785   0.00000  Uiso   1.00
N59    N     0.39864   0.10299   0.70606   0.00000  Uiso   1.00
N60    N     0.48615   0.10299   0.19597   0.00000  Uiso   1.00
C61    C     0.18097   0.92289   0.47999   0.00000  Uiso   1.00
C62    C     0.24896   0.84391   0.49595   0.00000  Uiso   1.00
C63    C     0.30612   0.94128   0.50936   0.00000  Uiso   1.00
C64    C     0.36336   0.84407   0.52278   0.00000  Uiso   1.00
C65    C     0.15904   0.84390   0.40450   0.00000  Uiso   1.00
C66    C     0.14059   0.94128   0.34102   0.00000  Uiso   1.00
C67    C     0.12212   0.84407   0.27746   0.00000  Uiso   1.00
C68    C     0.13493   0.84391   0.53953   0.00000  Uiso   1.00
C69    C     0.09620   0.94128   0.58956   0.00000  Uiso   1.00
C70    C     0.05742   0.84407   0.63967   0.00000  Uiso   1.00
H71    H     0.18097   0.06910   0.47999   0.00000  Uiso   1.00
H72    H     0.30610   0.08662   0.50935   0.00000  Uiso   1.00
H73    H     0.14059   0.08661   0.34104   0.00000  Uiso   1.00
H74    H     0.09621   0.08661   0.58955   0.00000  Uiso   1.00
H75    H     0.44483   0.02321   0.54186   0.00000  Uiso   1.00
H76    H     0.09581   0.02321   0.18699   0.00000  Uiso   1.00
H77    H     0.00223   0.02321   0.71101   0.00000  Uiso   1.00
N78    N     0.42766   0.89701   0.53785   0.00000  Uiso   1.00
N79    N     0.10136   0.89701   0.20606   0.00000  Uiso   1.00
N80    N     0.01385   0.89701   0.69597   0.00000  Uiso   1.00
C81    C     0.31903   0.42289   0.97999   0.00000  Uiso   1.00
C82    C     0.25104   0.34391   0.99595   0.00000  Uiso   1.00
C83    C     0.19388   0.44128   0.00936   0.00000  Uiso   1.00
C84    C     0.13664   0.34407   0.02278   0.00000  Uiso   1.00
C85    C     0.34096   0.34390   0.90450   0.00000  Uiso   1.00
C86    C     0.35941   0.44128   0.84102   0.00000  Uiso   1.00
C87    C     0.37788   0.34407   0.77746   0.00000  Uiso   1.00
C88    C     0.36507   0.34391   0.03953   0.00000  Uiso   1.00
C89    C     0.40380   0.44128   0.08956   0.00000  Uiso   1.00
C90    C     0.44258   0.34407   0.13967   0.00000  Uiso   1.00
H91    H     0.31903   0.56910   0.97999   0.00000  Uiso   1.00
H92    H     0.19390   0.58662   0.00935   0.00000  Uiso   1.00
H93    H     0.35941   0.58661   0.84104   0.00000  Uiso   1.00
H94    H     0.40379   0.58661   0.08955   0.00000  Uiso   1.00
H95    H     0.05517   0.52321   0.04186   0.00000  Uiso   1.00
H96    H     0.40419   0.52321   0.68699   0.00000  Uiso   1.00
H97    H     0.49777   0.52321   0.21101   0.00000  Uiso   1.00
N98    N     0.07234   0.39701   0.03785   0.00000  Uiso   1.00
N99    N     0.39864   0.39701   0.70606   0.00000  Uiso   1.00
N100   N     0.48615   0.39701   0.19597   0.00000  Uiso   1.00
C101   C     0.18097   0.57711   0.47999   0.00000  Uiso   1.00
C102   C     0.24896   0.65609   0.49595   0.00000  Uiso   1.00
C103   C     0.30612   0.55872   0.50936   0.00000  Uiso   1.00
C104   C     0.36336   0.65593   0.52278   0.00000  Uiso   1.00
C105   C     0.15904   0.65610   0.40450   0.00000  Uiso   1.00
C106   C     0.14059   0.55872   0.34102   0.00000  Uiso   1.00
C107   C     0.12212   0.65593   0.27746   0.00000  Uiso   1.00
C108   C     0.13493   0.65609   0.53953   0.00000  Uiso   1.00
C109   C     0.09620   0.55872   0.58956   0.00000  Uiso   1.00
C110   C     0.05742   0.65593   0.63967   0.00000  Uiso   1.00
H111   H     0.18097   0.43090   0.47999   0.00000  Uiso   1.00
H112   H     0.30610   0.41338   0.50935   0.00000  Uiso   1.00
H113   H     0.14059   0.41339   0.34104   0.00000  Uiso   1.00
H114   H     0.09621   0.41339   0.58955   0.00000  Uiso   1.00
H115   H     0.44483   0.47679   0.54186   0.00000  Uiso   1.00
H116   H     0.09581   0.47679   0.18699   0.00000  Uiso   1.00
H117   H     0.00223   0.47679   0.71101   0.00000  Uiso   1.00
N118   N     0.42766   0.60299   0.53785   0.00000  Uiso   1.00
N119   N     0.10136   0.60299   0.20606   0.00000  Uiso   1.00
N120   N     0.01385   0.60299   0.69597   0.00000  Uiso   1.00
C121   C     0.68097   0.92289   0.02001   0.00000  Uiso   1.00
C122   C     0.74896   0.84391   0.00405   0.00000  Uiso   1.00
C123   C     0.80612   0.94128   0.99064   0.00000  Uiso   1.00
C124   C     0.86336   0.84407   0.97722   0.00000  Uiso   1.00
C125   C     0.65904   0.84390   0.09550   0.00000  Uiso   1.00
C126   C     0.64059   0.94128   0.15898   0.00000  Uiso   1.00
C127   C     0.62212   0.84407   0.22254   0.00000  Uiso   1.00
C128   C     0.63493   0.84391   0.96047   0.00000  Uiso   1.00
C129   C     0.59620   0.94128   0.91044   0.00000  Uiso   1.00
C130   C     0.55742   0.84407   0.86033   0.00000  Uiso   1.00
H131   H     0.68097   0.06910   0.02001   0.00000  Uiso   1.00
H132   H     0.80610   0.08662   0.99065   0.00000  Uiso   1.00
H133   H     0.64059   0.08661   0.15896   0.00000  Uiso   1.00
H134   H     0.59621   0.08661   0.91045   0.00000  Uiso   1.00
H135   H     0.94483   0.02321   0.95814   0.00000  Uiso   1.00
H136   H     0.59581   0.02321   0.31301   0.00000  Uiso   1.00
H137   H     0.50223   0.02321   0.78899   0.00000  Uiso   1.00
N138   N     0.92766   0.89701   0.96215   0.00000  Uiso   1.00
N139   N     0.60136   0.89701   0.29394   0.00000  Uiso   1.00
N140   N     0.51385   0.89701   0.80403   0.00000  Uiso   1.00
C141   C     0.81903   0.07711   0.52001   0.00000  Uiso   1.00
C142   C     0.75104   0.15609   0.50405   0.00000  Uiso   1.00
C143   C     0.69388   0.05872   0.49064   0.00000  Uiso   1.00
C144   C     0.63664   0.15593   0.47722   0.00000  Uiso   1.00
C145   C     0.84096   0.15610   0.59550   0.00000  Uiso   1.00
C146   C     0.85941   0.05872   0.65898   0.00000  Uiso   1.00
C147   C     0.87788   0.15593   0.72254   0.00000  Uiso   1.00
C148   C     0.86507   0.15609   0.46047   0.00000  Uiso   1.00
C149   C     0.90380   0.05872   0.41044   0.00000  Uiso   1.00
C150   C     0.94258   0.15593   0.36033   0.00000  Uiso   1.00
H151   H     0.81903   0.93090   0.52001   0.00000  Uiso   1.00
H152   H     0.69390   0.91338   0.49065   0.00000  Uiso   1.00
H153   H     0.85941   0.91339   0.65896   0.00000  Uiso   1.00
H154   H     0.90379   0.91339   0.41045   0.00000  Uiso   1.00
H155   H     0.55517   0.97679   0.45814   0.00000  Uiso   1.00
H156   H     0.90419   0.97679   0.81301   0.00000  Uiso   1.00
H157   H     0.99777   0.97679   0.28899   0.00000  Uiso   1.00
N158   N     0.57234   0.10299   0.46215   0.00000  Uiso   1.00
N159   N     0.89864   0.10299   0.79394   0.00000  Uiso   1.00
N160   N     0.98615   0.10299   0.30403   0.00000  Uiso   1.00
C161   C     0.96892   0.75000   0.95249   0.00000  Uiso   1.00
C162   C     0.58803   0.75000   0.33976   0.00000  Uiso   1.00
C163   C     0.48590   0.75000   0.76790   0.00000  Uiso   1.00
O164   O     0.02715   0.75000   0.93885   0.00000  Uiso   1.00
O165   O     0.56924   0.75000   0.40442   0.00000  Uiso   1.00
O166   O     0.44647   0.75000   0.71691   0.00000  Uiso   1.00
C167   C     0.53108   0.25000   0.45249   0.00000  Uiso   1.00
C168   C     0.91197   0.25000   0.83976   0.00000  Uiso   1.00
C169   C     0.01410   0.25000   0.26790   0.00000  Uiso   1.00
O170   O     0.47285   0.25000   0.43885   0.00000  Uiso   1.00
O171   O     0.93076   0.25000   0.90442   0.00000  Uiso   1.00
O172   O     0.05353   0.25000   0.21691   0.00000  Uiso   1.00
C173   C     0.03108   0.25000   0.04751   0.00000  Uiso   1.00
C174   C     0.41197   0.25000   0.66024   0.00000  Uiso   1.00
C175   C     0.51410   0.25000   0.23210   0.00000  Uiso   1.00
O176   O     0.97285   0.25000   0.06115   0.00000  Uiso   1.00
O177   O     0.43076   0.25000   0.59558   0.00000  Uiso   1.00
O178   O     0.55353   0.25000   0.28309   0.00000  Uiso   1.00
C179   C     0.46892   0.75000   0.54751   0.00000  Uiso   1.00
C180   C     0.08803   0.75000   0.16024   0.00000  Uiso   1.00
C181   C     0.98590   0.75000   0.73210   0.00000  Uiso   1.00
O182   O     0.52715   0.75000   0.56115   0.00000  Uiso   1.00
O183   O     0.06924   0.75000   0.09558   0.00000  Uiso   1.00
O184   O     0.94647   0.75000   0.78309   0.00000  Uiso   1.00
