data_job_00973
_audit_creation_date              2018-12-19
_audit_creation_method            'Materials Studio'
_symmetry_space_group_name_H-M    'P1'
_symmetry_Int_Tables_number       1
_symmetry_cell_setting            triclinic
loop_
_symmetry_equiv_pos_as_xyz
  x,y,z
_cell_length_a                    19.8369
_cell_length_b                    10.3934
_cell_length_c                    29.8911
_cell_angle_alpha                 90.0000
_cell_angle_beta                  125.1517
_cell_angle_gamma                 90.0000
loop_
_atom_site_label
_atom_site_type_symbol
_atom_site_fract_x
_atom_site_fract_y
_atom_site_fract_z
_atom_site_U_iso_or_equiv
_atom_site_adp_type
_atom_site_occupancy
C1     C     0.72620   0.54421   0.77220   0.00000  Uiso   1.00
C2     C     0.66363   0.62960   0.72445   0.00000  Uiso   1.00
C3     C     0.64791   0.63011   0.67280   0.00000  Uiso   1.00
C4     C     0.58833   0.71538   0.63476   0.00000  Uiso   1.00
C5     C     0.49765   0.83557   0.55861   0.00000  Uiso   1.00
C6     C     0.78358   0.63513   0.81930   0.00000  Uiso   1.00
C7     C     0.86869   0.64027   0.84741   0.00000  Uiso   1.00
C8     C     0.91009   0.73018   0.88923   0.00000  Uiso   1.00
C9     C     0.00562   0.85889   0.96037   0.00000  Uiso   1.00
C10    C     0.67806   0.47107   0.78949   0.00000  Uiso   1.00
C11    C     0.67447   0.33827   0.79254   0.00000  Uiso   1.00
C12    C     0.62703   0.29005   0.80926   0.00000  Uiso   1.00
C13    C     0.55873   0.16403   0.83412   0.00000  Uiso   1.00
C14    C     0.64837   0.69473   0.79648   0.00000  Uiso   1.00
C15    C     0.62136   0.71136   0.73764   0.00000  Uiso   1.00
C16    C     0.56179   0.79664   0.69966   0.00000  Uiso   1.00
C17    C     0.54598   0.79728   0.64797   0.00000  Uiso   1.00
C18    C     0.74130   0.71688   0.83249   0.00000  Uiso   1.00
C19    C     0.78258   0.80680   0.87427   0.00000  Uiso   1.00
C20    C     0.86774   0.81208   0.90244   0.00000  Uiso   1.00
C21    C     0.63578   0.55282   0.80267   0.00000  Uiso   1.00
C22    C     0.58835   0.50480   0.81940   0.00000  Uiso   1.00
C23    C     0.58468   0.37195   0.82248   0.00000  Uiso   1.00
H24    H     0.75912   0.48057   0.76194   0.00000  Uiso   1.00
H25    H     0.68064   0.56684   0.66262   0.00000  Uiso   1.00
H26    H     0.90139   0.57698   0.83720   0.00000  Uiso   1.00
H27    H     0.70719   0.27503   0.78234   0.00000  Uiso   1.00
H28    H     0.57501   0.69857   0.55832   0.00000  Uiso   1.00
H29    H     0.04048   0.71993   0.92646   0.00000  Uiso   1.00
H30    H     0.63097   0.08321   0.81077   0.00000  Uiso   1.00
H31    H     0.61545   0.75838   0.80674   0.00000  Uiso   1.00
H32    H     0.52909   0.85990   0.70988   0.00000  Uiso   1.00
H33    H     0.74985   0.87004   0.88447   0.00000  Uiso   1.00
H34    H     0.55564   0.56809   0.82960   0.00000  Uiso   1.00
H35    H     0.45201   0.93643   0.59668   0.00000  Uiso   1.00
H36    H     0.91749   0.95779   0.96482   0.00000  Uiso   1.00
H37    H     0.50797   0.32107   0.84912   0.00000  Uiso   1.00
O38    O     0.45931   0.87930   0.51298   0.00000  Uiso   1.00
O39    O     0.06999   0.90730   0.99597   0.00000  Uiso   1.00
O40    O     0.53272   0.07194   0.84417   0.00000  Uiso   1.00
N41    N     0.55791   0.74060   0.58064   0.00000  Uiso   1.00
N42    N     0.99309   0.76059   0.92482   0.00000  Uiso   1.00
N43    N     0.61025   0.16530   0.81667   0.00000  Uiso   1.00
N44    N     0.49172   0.86859   0.60128   0.00000  Uiso   1.00
N45    N     0.92691   0.88858   0.94546   0.00000  Uiso   1.00
N46    N     0.54406   0.29329   0.83731   0.00000  Uiso   1.00
C47    C     0.22620   0.04421   0.77220   0.00000  Uiso   1.00
C48    C     0.16363   0.12960   0.72445   0.00000  Uiso   1.00
C49    C     0.14791   0.13011   0.67280   0.00000  Uiso   1.00
C50    C     0.08833   0.21538   0.63476   0.00000  Uiso   1.00
C51    C     0.99765   0.33557   0.55861   0.00000  Uiso   1.00
C52    C     0.28358   0.13513   0.81930   0.00000  Uiso   1.00
C53    C     0.36869   0.14027   0.84741   0.00000  Uiso   1.00
C54    C     0.41009   0.23018   0.88923   0.00000  Uiso   1.00
C55    C     0.50562   0.35889   0.96037   0.00000  Uiso   1.00
C56    C     0.17806   0.97107   0.78949   0.00000  Uiso   1.00
C57    C     0.17447   0.83827   0.79254   0.00000  Uiso   1.00
C58    C     0.12703   0.79005   0.80926   0.00000  Uiso   1.00
C59    C     0.05873   0.66403   0.83412   0.00000  Uiso   1.00
C60    C     0.14837   0.19473   0.79648   0.00000  Uiso   1.00
C61    C     0.12136   0.21136   0.73764   0.00000  Uiso   1.00
C62    C     0.06179   0.29664   0.69966   0.00000  Uiso   1.00
C63    C     0.04598   0.29728   0.64797   0.00000  Uiso   1.00
C64    C     0.24130   0.21688   0.83249   0.00000  Uiso   1.00
C65    C     0.28258   0.30680   0.87427   0.00000  Uiso   1.00
C66    C     0.36774   0.31208   0.90244   0.00000  Uiso   1.00
C67    C     0.13578   0.05282   0.80267   0.00000  Uiso   1.00
C68    C     0.08835   0.00480   0.81940   0.00000  Uiso   1.00
C69    C     0.08468   0.87195   0.82248   0.00000  Uiso   1.00
H70    H     0.25912   0.98057   0.76194   0.00000  Uiso   1.00
H71    H     0.18064   0.06684   0.66262   0.00000  Uiso   1.00
H72    H     0.40139   0.07698   0.83720   0.00000  Uiso   1.00
H73    H     0.20719   0.77503   0.78234   0.00000  Uiso   1.00
H74    H     0.07501   0.19857   0.55832   0.00000  Uiso   1.00
H75    H     0.54048   0.21993   0.92646   0.00000  Uiso   1.00
H76    H     0.13097   0.58321   0.81077   0.00000  Uiso   1.00
H77    H     0.11545   0.25838   0.80674   0.00000  Uiso   1.00
H78    H     0.02909   0.35990   0.70988   0.00000  Uiso   1.00
H79    H     0.24985   0.37004   0.88447   0.00000  Uiso   1.00
H80    H     0.05564   0.06809   0.82960   0.00000  Uiso   1.00
H81    H     0.95201   0.43643   0.59668   0.00000  Uiso   1.00
H82    H     0.41749   0.45779   0.96482   0.00000  Uiso   1.00
H83    H     0.00797   0.82107   0.84912   0.00000  Uiso   1.00
O84    O     0.95931   0.37930   0.51298   0.00000  Uiso   1.00
O85    O     0.56999   0.40730   0.99597   0.00000  Uiso   1.00
O86    O     0.03272   0.57194   0.84417   0.00000  Uiso   1.00
N87    N     0.05791   0.24060   0.58064   0.00000  Uiso   1.00
N88    N     0.49309   0.26059   0.92482   0.00000  Uiso   1.00
N89    N     0.11025   0.66530   0.81667   0.00000  Uiso   1.00
N90    N     0.99172   0.36859   0.60128   0.00000  Uiso   1.00
N91    N     0.42691   0.38858   0.94546   0.00000  Uiso   1.00
N92    N     0.04406   0.79329   0.83731   0.00000  Uiso   1.00
C93    C     0.27380   0.54421   0.72780   0.00000  Uiso   1.00
C94    C     0.33637   0.62960   0.77555   0.00000  Uiso   1.00
C95    C     0.35209   0.63011   0.82720   0.00000  Uiso   1.00
C96    C     0.41167   0.71538   0.86524   0.00000  Uiso   1.00
C97    C     0.50235   0.83557   0.94139   0.00000  Uiso   1.00
C98    C     0.21642   0.63513   0.68070   0.00000  Uiso   1.00
C99    C     0.13131   0.64027   0.65259   0.00000  Uiso   1.00
C100   C     0.08991   0.73018   0.61077   0.00000  Uiso   1.00
C101   C     0.99438   0.85889   0.53963   0.00000  Uiso   1.00
C102   C     0.32194   0.47107   0.71051   0.00000  Uiso   1.00
C103   C     0.32553   0.33827   0.70746   0.00000  Uiso   1.00
C104   C     0.37297   0.29005   0.69074   0.00000  Uiso   1.00
C105   C     0.44127   0.16403   0.66588   0.00000  Uiso   1.00
C106   C     0.35163   0.69473   0.70352   0.00000  Uiso   1.00
C107   C     0.37864   0.71136   0.76236   0.00000  Uiso   1.00
C108   C     0.43821   0.79664   0.80034   0.00000  Uiso   1.00
C109   C     0.45402   0.79728   0.85203   0.00000  Uiso   1.00
C110   C     0.25870   0.71688   0.66751   0.00000  Uiso   1.00
C111   C     0.21742   0.80680   0.62573   0.00000  Uiso   1.00
C112   C     0.13226   0.81208   0.59756   0.00000  Uiso   1.00
C113   C     0.36422   0.55282   0.69733   0.00000  Uiso   1.00
C114   C     0.41165   0.50480   0.68060   0.00000  Uiso   1.00
C115   C     0.41532   0.37195   0.67752   0.00000  Uiso   1.00
H116   H     0.24088   0.48057   0.73806   0.00000  Uiso   1.00
H117   H     0.31936   0.56684   0.83738   0.00000  Uiso   1.00
H118   H     0.09861   0.57698   0.66280   0.00000  Uiso   1.00
H119   H     0.29281   0.27503   0.71766   0.00000  Uiso   1.00
H120   H     0.42499   0.69857   0.94168   0.00000  Uiso   1.00
H121   H     0.95952   0.71993   0.57354   0.00000  Uiso   1.00
H122   H     0.36903   0.08321   0.68923   0.00000  Uiso   1.00
H123   H     0.38455   0.75838   0.69326   0.00000  Uiso   1.00
H124   H     0.47091   0.85990   0.79012   0.00000  Uiso   1.00
H125   H     0.25015   0.87004   0.61553   0.00000  Uiso   1.00
H126   H     0.44436   0.56809   0.67040   0.00000  Uiso   1.00
H127   H     0.54799   0.93643   0.90332   0.00000  Uiso   1.00
H128   H     0.08251   0.95779   0.53518   0.00000  Uiso   1.00
H129   H     0.49203   0.32107   0.65088   0.00000  Uiso   1.00
O130   O     0.54069   0.87930   0.98702   0.00000  Uiso   1.00
O131   O     0.93001   0.90730   0.50403   0.00000  Uiso   1.00
O132   O     0.46728   0.07194   0.65583   0.00000  Uiso   1.00
N133   N     0.44209   0.74060   0.91936   0.00000  Uiso   1.00
N134   N     0.00691   0.76059   0.57518   0.00000  Uiso   1.00
N135   N     0.38975   0.16530   0.68333   0.00000  Uiso   1.00
N136   N     0.50828   0.86859   0.89872   0.00000  Uiso   1.00
N137   N     0.07309   0.88858   0.55454   0.00000  Uiso   1.00
N138   N     0.45594   0.29329   0.66269   0.00000  Uiso   1.00
C139   C     0.77380   0.04421   0.72780   0.00000  Uiso   1.00
C140   C     0.83637   0.12960   0.77555   0.00000  Uiso   1.00
C141   C     0.85209   0.13011   0.82720   0.00000  Uiso   1.00
C142   C     0.91167   0.21538   0.86524   0.00000  Uiso   1.00
C143   C     0.00235   0.33557   0.94139   0.00000  Uiso   1.00
C144   C     0.71642   0.13513   0.68070   0.00000  Uiso   1.00
C145   C     0.63131   0.14027   0.65259   0.00000  Uiso   1.00
C146   C     0.58991   0.23018   0.61077   0.00000  Uiso   1.00
C147   C     0.49438   0.35889   0.53963   0.00000  Uiso   1.00
C148   C     0.82194   0.97107   0.71051   0.00000  Uiso   1.00
C149   C     0.82553   0.83827   0.70746   0.00000  Uiso   1.00
C150   C     0.87297   0.79005   0.69074   0.00000  Uiso   1.00
C151   C     0.94127   0.66403   0.66588   0.00000  Uiso   1.00
C152   C     0.85163   0.19473   0.70352   0.00000  Uiso   1.00
C153   C     0.87864   0.21136   0.76236   0.00000  Uiso   1.00
C154   C     0.93821   0.29664   0.80034   0.00000  Uiso   1.00
C155   C     0.95402   0.29728   0.85203   0.00000  Uiso   1.00
C156   C     0.75870   0.21688   0.66751   0.00000  Uiso   1.00
C157   C     0.71742   0.30680   0.62573   0.00000  Uiso   1.00
C158   C     0.63226   0.31208   0.59756   0.00000  Uiso   1.00
C159   C     0.86422   0.05282   0.69733   0.00000  Uiso   1.00
C160   C     0.91165   0.00480   0.68060   0.00000  Uiso   1.00
C161   C     0.91532   0.87195   0.67752   0.00000  Uiso   1.00
H162   H     0.74088   0.98057   0.73806   0.00000  Uiso   1.00
H163   H     0.81936   0.06684   0.83738   0.00000  Uiso   1.00
H164   H     0.59861   0.07698   0.66280   0.00000  Uiso   1.00
H165   H     0.79281   0.77503   0.71766   0.00000  Uiso   1.00
H166   H     0.92499   0.19857   0.94168   0.00000  Uiso   1.00
H167   H     0.45952   0.21993   0.57354   0.00000  Uiso   1.00
H168   H     0.86903   0.58321   0.68923   0.00000  Uiso   1.00
H169   H     0.88455   0.25838   0.69326   0.00000  Uiso   1.00
H170   H     0.97091   0.35990   0.79012   0.00000  Uiso   1.00
H171   H     0.75015   0.37004   0.61553   0.00000  Uiso   1.00
H172   H     0.94436   0.06809   0.67040   0.00000  Uiso   1.00
H173   H     0.04799   0.43643   0.90332   0.00000  Uiso   1.00
H174   H     0.58251   0.45779   0.53518   0.00000  Uiso   1.00
H175   H     0.99203   0.82107   0.65088   0.00000  Uiso   1.00
O176   O     0.04069   0.37930   0.98702   0.00000  Uiso   1.00
O177   O     0.43001   0.40730   0.50403   0.00000  Uiso   1.00
O178   O     0.96728   0.57194   0.65583   0.00000  Uiso   1.00
N179   N     0.94209   0.24060   0.91936   0.00000  Uiso   1.00
N180   N     0.50691   0.26059   0.57518   0.00000  Uiso   1.00
N181   N     0.88975   0.66530   0.68333   0.00000  Uiso   1.00
N182   N     0.00828   0.36859   0.89872   0.00000  Uiso   1.00
N183   N     0.57309   0.38858   0.55454   0.00000  Uiso   1.00
N184   N     0.95594   0.79329   0.66269   0.00000  Uiso   1.00
C185   C     0.27380   0.45579   0.22780   0.00000  Uiso   1.00
C186   C     0.33637   0.37040   0.27555   0.00000  Uiso   1.00
C187   C     0.35209   0.36989   0.32720   0.00000  Uiso   1.00
C188   C     0.41167   0.28462   0.36524   0.00000  Uiso   1.00
C189   C     0.50235   0.16443   0.44139   0.00000  Uiso   1.00
C190   C     0.21642   0.36487   0.18070   0.00000  Uiso   1.00
C191   C     0.13131   0.35973   0.15259   0.00000  Uiso   1.00
C192   C     0.08991   0.26982   0.11077   0.00000  Uiso   1.00
C193   C     0.99438   0.14111   0.03963   0.00000  Uiso   1.00
C194   C     0.32194   0.52893   0.21051   0.00000  Uiso   1.00
C195   C     0.32553   0.66173   0.20746   0.00000  Uiso   1.00
C196   C     0.37297   0.70995   0.19074   0.00000  Uiso   1.00
C197   C     0.44127   0.83597   0.16588   0.00000  Uiso   1.00
C198   C     0.35163   0.30527   0.20352   0.00000  Uiso   1.00
C199   C     0.37864   0.28864   0.26236   0.00000  Uiso   1.00
C200   C     0.43821   0.20336   0.30034   0.00000  Uiso   1.00
C201   C     0.45402   0.20272   0.35203   0.00000  Uiso   1.00
C202   C     0.25870   0.28312   0.16751   0.00000  Uiso   1.00
C203   C     0.21742   0.19320   0.12573   0.00000  Uiso   1.00
C204   C     0.13226   0.18792   0.09756   0.00000  Uiso   1.00
C205   C     0.36422   0.44718   0.19733   0.00000  Uiso   1.00
C206   C     0.41165   0.49520   0.18060   0.00000  Uiso   1.00
C207   C     0.41532   0.62805   0.17752   0.00000  Uiso   1.00
H208   H     0.24088   0.51943   0.23806   0.00000  Uiso   1.00
H209   H     0.31936   0.43316   0.33738   0.00000  Uiso   1.00
H210   H     0.09861   0.42302   0.16280   0.00000  Uiso   1.00
H211   H     0.29281   0.72497   0.21766   0.00000  Uiso   1.00
H212   H     0.42499   0.30143   0.44168   0.00000  Uiso   1.00
H213   H     0.95952   0.28007   0.07354   0.00000  Uiso   1.00
H214   H     0.36903   0.91679   0.18923   0.00000  Uiso   1.00
H215   H     0.38455   0.24162   0.19326   0.00000  Uiso   1.00
H216   H     0.47091   0.14010   0.29012   0.00000  Uiso   1.00
H217   H     0.25015   0.12996   0.11553   0.00000  Uiso   1.00
H218   H     0.44436   0.43191   0.17040   0.00000  Uiso   1.00
H219   H     0.54799   0.06357   0.40332   0.00000  Uiso   1.00
H220   H     0.08251   0.04221   0.03518   0.00000  Uiso   1.00
H221   H     0.49203   0.67893   0.15088   0.00000  Uiso   1.00
O222   O     0.54069   0.12070   0.48702   0.00000  Uiso   1.00
O223   O     0.93001   0.09270   0.00403   0.00000  Uiso   1.00
O224   O     0.46728   0.92806   0.15583   0.00000  Uiso   1.00
N225   N     0.44209   0.25940   0.41936   0.00000  Uiso   1.00
N226   N     0.00691   0.23941   0.07518   0.00000  Uiso   1.00
N227   N     0.38975   0.83470   0.18333   0.00000  Uiso   1.00
N228   N     0.50828   0.13141   0.39872   0.00000  Uiso   1.00
N229   N     0.07309   0.11142   0.05454   0.00000  Uiso   1.00
N230   N     0.45594   0.70671   0.16269   0.00000  Uiso   1.00
C231   C     0.77380   0.95579   0.22780   0.00000  Uiso   1.00
C232   C     0.83637   0.87040   0.27555   0.00000  Uiso   1.00
C233   C     0.85209   0.86989   0.32720   0.00000  Uiso   1.00
C234   C     0.91167   0.78462   0.36524   0.00000  Uiso   1.00
C235   C     0.00235   0.66443   0.44139   0.00000  Uiso   1.00
C236   C     0.71642   0.86487   0.18070   0.00000  Uiso   1.00
C237   C     0.63131   0.85973   0.15259   0.00000  Uiso   1.00
C238   C     0.58991   0.76982   0.11077   0.00000  Uiso   1.00
C239   C     0.49438   0.64111   0.03963   0.00000  Uiso   1.00
C240   C     0.82194   0.02893   0.21051   0.00000  Uiso   1.00
C241   C     0.82553   0.16173   0.20746   0.00000  Uiso   1.00
C242   C     0.87297   0.20995   0.19074   0.00000  Uiso   1.00
C243   C     0.94127   0.33597   0.16588   0.00000  Uiso   1.00
C244   C     0.85163   0.80527   0.20352   0.00000  Uiso   1.00
C245   C     0.87864   0.78864   0.26236   0.00000  Uiso   1.00
C246   C     0.93821   0.70336   0.30034   0.00000  Uiso   1.00
C247   C     0.95402   0.70272   0.35203   0.00000  Uiso   1.00
C248   C     0.75870   0.78312   0.16751   0.00000  Uiso   1.00
C249   C     0.71742   0.69320   0.12573   0.00000  Uiso   1.00
C250   C     0.63226   0.68792   0.09756   0.00000  Uiso   1.00
C251   C     0.86422   0.94718   0.19733   0.00000  Uiso   1.00
C252   C     0.91165   0.99520   0.18060   0.00000  Uiso   1.00
C253   C     0.91532   0.12805   0.17752   0.00000  Uiso   1.00
H254   H     0.74088   0.01943   0.23806   0.00000  Uiso   1.00
H255   H     0.81936   0.93316   0.33738   0.00000  Uiso   1.00
H256   H     0.59861   0.92302   0.16280   0.00000  Uiso   1.00
H257   H     0.79281   0.22497   0.21766   0.00000  Uiso   1.00
H258   H     0.92499   0.80143   0.44168   0.00000  Uiso   1.00
H259   H     0.45952   0.78007   0.07354   0.00000  Uiso   1.00
H260   H     0.86903   0.41679   0.18923   0.00000  Uiso   1.00
H261   H     0.88455   0.74162   0.19326   0.00000  Uiso   1.00
H262   H     0.97091   0.64010   0.29012   0.00000  Uiso   1.00
H263   H     0.75015   0.62996   0.11553   0.00000  Uiso   1.00
H264   H     0.94436   0.93191   0.17040   0.00000  Uiso   1.00
H265   H     0.04799   0.56357   0.40332   0.00000  Uiso   1.00
H266   H     0.58251   0.54221   0.03518   0.00000  Uiso   1.00
H267   H     0.99203   0.17893   0.15088   0.00000  Uiso   1.00
O268   O     0.04069   0.62070   0.48702   0.00000  Uiso   1.00
O269   O     0.43001   0.59270   0.00403   0.00000  Uiso   1.00
O270   O     0.96728   0.42806   0.15583   0.00000  Uiso   1.00
N271   N     0.94209   0.75940   0.41936   0.00000  Uiso   1.00
N272   N     0.50691   0.73941   0.07518   0.00000  Uiso   1.00
N273   N     0.88975   0.33470   0.18333   0.00000  Uiso   1.00
N274   N     0.00828   0.63141   0.39872   0.00000  Uiso   1.00
N275   N     0.57309   0.61142   0.05454   0.00000  Uiso   1.00
N276   N     0.95594   0.20671   0.16269   0.00000  Uiso   1.00
C277   C     0.72620   0.45579   0.27220   0.00000  Uiso   1.00
C278   C     0.66363   0.37040   0.22445   0.00000  Uiso   1.00
C279   C     0.64791   0.36989   0.17280   0.00000  Uiso   1.00
C280   C     0.58833   0.28462   0.13476   0.00000  Uiso   1.00
C281   C     0.49765   0.16443   0.05861   0.00000  Uiso   1.00
C282   C     0.78358   0.36487   0.31930   0.00000  Uiso   1.00
C283   C     0.86869   0.35973   0.34741   0.00000  Uiso   1.00
C284   C     0.91009   0.26982   0.38923   0.00000  Uiso   1.00
C285   C     0.00562   0.14111   0.46037   0.00000  Uiso   1.00
C286   C     0.67806   0.52893   0.28949   0.00000  Uiso   1.00
C287   C     0.67447   0.66173   0.29254   0.00000  Uiso   1.00
C288   C     0.62703   0.70995   0.30926   0.00000  Uiso   1.00
C289   C     0.55873   0.83597   0.33412   0.00000  Uiso   1.00
C290   C     0.64837   0.30527   0.29648   0.00000  Uiso   1.00
C291   C     0.62136   0.28864   0.23764   0.00000  Uiso   1.00
C292   C     0.56179   0.20336   0.19966   0.00000  Uiso   1.00
C293   C     0.54598   0.20272   0.14797   0.00000  Uiso   1.00
C294   C     0.74130   0.28312   0.33249   0.00000  Uiso   1.00
C295   C     0.78258   0.19320   0.37427   0.00000  Uiso   1.00
C296   C     0.86774   0.18792   0.40244   0.00000  Uiso   1.00
C297   C     0.63578   0.44718   0.30267   0.00000  Uiso   1.00
C298   C     0.58835   0.49520   0.31940   0.00000  Uiso   1.00
C299   C     0.58468   0.62805   0.32248   0.00000  Uiso   1.00
H300   H     0.75912   0.51943   0.26194   0.00000  Uiso   1.00
H301   H     0.68064   0.43316   0.16262   0.00000  Uiso   1.00
H302   H     0.90139   0.42302   0.33720   0.00000  Uiso   1.00
H303   H     0.70719   0.72497   0.28234   0.00000  Uiso   1.00
H304   H     0.57501   0.30143   0.05832   0.00000  Uiso   1.00
H305   H     0.04048   0.28007   0.42646   0.00000  Uiso   1.00
H306   H     0.63097   0.91679   0.31077   0.00000  Uiso   1.00
H307   H     0.61545   0.24162   0.30674   0.00000  Uiso   1.00
H308   H     0.52909   0.14010   0.20988   0.00000  Uiso   1.00
H309   H     0.74985   0.12996   0.38447   0.00000  Uiso   1.00
H310   H     0.55564   0.43191   0.32960   0.00000  Uiso   1.00
H311   H     0.45201   0.06357   0.09668   0.00000  Uiso   1.00
H312   H     0.91749   0.04221   0.46482   0.00000  Uiso   1.00
H313   H     0.50797   0.67893   0.34912   0.00000  Uiso   1.00
O314   O     0.45931   0.12070   0.01298   0.00000  Uiso   1.00
O315   O     0.06999   0.09270   0.49597   0.00000  Uiso   1.00
O316   O     0.53272   0.92806   0.34417   0.00000  Uiso   1.00
N317   N     0.55791   0.25940   0.08064   0.00000  Uiso   1.00
N318   N     0.99309   0.23941   0.42482   0.00000  Uiso   1.00
N319   N     0.61025   0.83470   0.31667   0.00000  Uiso   1.00
N320   N     0.49172   0.13141   0.10128   0.00000  Uiso   1.00
N321   N     0.92691   0.11142   0.44546   0.00000  Uiso   1.00
N322   N     0.54406   0.70671   0.33731   0.00000  Uiso   1.00
C323   C     0.22620   0.95579   0.27220   0.00000  Uiso   1.00
C324   C     0.16363   0.87040   0.22445   0.00000  Uiso   1.00
C325   C     0.14791   0.86989   0.17280   0.00000  Uiso   1.00
C326   C     0.08833   0.78462   0.13476   0.00000  Uiso   1.00
C327   C     0.99765   0.66443   0.05861   0.00000  Uiso   1.00
C328   C     0.28358   0.86487   0.31930   0.00000  Uiso   1.00
C329   C     0.36869   0.85973   0.34741   0.00000  Uiso   1.00
C330   C     0.41009   0.76982   0.38923   0.00000  Uiso   1.00
C331   C     0.50562   0.64111   0.46037   0.00000  Uiso   1.00
C332   C     0.17806   0.02893   0.28949   0.00000  Uiso   1.00
C333   C     0.17447   0.16173   0.29254   0.00000  Uiso   1.00
C334   C     0.12703   0.20995   0.30926   0.00000  Uiso   1.00
C335   C     0.05873   0.33597   0.33412   0.00000  Uiso   1.00
C336   C     0.14837   0.80527   0.29648   0.00000  Uiso   1.00
C337   C     0.12136   0.78864   0.23764   0.00000  Uiso   1.00
C338   C     0.06179   0.70336   0.19966   0.00000  Uiso   1.00
C339   C     0.04598   0.70272   0.14797   0.00000  Uiso   1.00
C340   C     0.24130   0.78312   0.33249   0.00000  Uiso   1.00
C341   C     0.28258   0.69320   0.37427   0.00000  Uiso   1.00
C342   C     0.36774   0.68792   0.40244   0.00000  Uiso   1.00
C343   C     0.13578   0.94718   0.30267   0.00000  Uiso   1.00
C344   C     0.08835   0.99520   0.31940   0.00000  Uiso   1.00
C345   C     0.08468   0.12805   0.32248   0.00000  Uiso   1.00
H346   H     0.25912   0.01943   0.26194   0.00000  Uiso   1.00
H347   H     0.18064   0.93316   0.16262   0.00000  Uiso   1.00
H348   H     0.40139   0.92302   0.33720   0.00000  Uiso   1.00
H349   H     0.20719   0.22497   0.28234   0.00000  Uiso   1.00
H350   H     0.07501   0.80143   0.05832   0.00000  Uiso   1.00
H351   H     0.54048   0.78007   0.42646   0.00000  Uiso   1.00
H352   H     0.13097   0.41679   0.31077   0.00000  Uiso   1.00
H353   H     0.11545   0.74162   0.30674   0.00000  Uiso   1.00
H354   H     0.02909   0.64010   0.20988   0.00000  Uiso   1.00
H355   H     0.24985   0.62996   0.38447   0.00000  Uiso   1.00
H356   H     0.05564   0.93191   0.32960   0.00000  Uiso   1.00
H357   H     0.95201   0.56357   0.09668   0.00000  Uiso   1.00
H358   H     0.41749   0.54221   0.46482   0.00000  Uiso   1.00
H359   H     0.00797   0.17893   0.34912   0.00000  Uiso   1.00
O360   O     0.95931   0.62070   0.01298   0.00000  Uiso   1.00
O361   O     0.56999   0.59270   0.49597   0.00000  Uiso   1.00
O362   O     0.03272   0.42806   0.34417   0.00000  Uiso   1.00
N363   N     0.05791   0.75940   0.08064   0.00000  Uiso   1.00
N364   N     0.49309   0.73941   0.42482   0.00000  Uiso   1.00
N365   N     0.11025   0.33470   0.31667   0.00000  Uiso   1.00
N366   N     0.99172   0.63141   0.10128   0.00000  Uiso   1.00
N367   N     0.42691   0.61142   0.44546   0.00000  Uiso   1.00
N368   N     0.04406   0.20671   0.33731   0.00000  Uiso   1.00
