data_job_04722
_audit_creation_date              2018-12-19
_audit_creation_method            'Materials Studio'
_symmetry_space_group_name_H-M    'P1'
_symmetry_Int_Tables_number       1
_symmetry_cell_setting            triclinic
loop_
_symmetry_equiv_pos_as_xyz
  x,y,z
_cell_length_a                    13.3649
_cell_length_b                    13.5718
_cell_length_c                    24.1016
_cell_angle_alpha                 76.2127
_cell_angle_beta                  89.0706
_cell_angle_gamma                 113.3120
loop_
_atom_site_label
_atom_site_type_symbol
_atom_site_fract_x
_atom_site_fract_y
_atom_site_fract_z
_atom_site_U_iso_or_equiv
_atom_site_adp_type
_atom_site_occupancy
C1     C     0.89336   0.17091   0.39899   0.00000  Uiso   1.00
C2     C     0.91395   0.06681   0.40295   0.00000  Uiso   1.00
C3     C     0.01575   0.06443   0.39414   0.00000  Uiso   1.00
C4     C     0.01725   0.96083   0.39973   0.00000  Uiso   1.00
C5     C     0.06397   0.81405   0.40374   0.00000  Uiso   1.00
C6     C     0.81299   0.17075   0.35478   0.00000  Uiso   1.00
C7     C     0.82989   0.25578   0.30548   0.00000  Uiso   1.00
C8     C     0.74639   0.23967   0.27054   0.00000  Uiso   1.00
C9     C     0.63632   0.25430   0.19978   0.00000  Uiso   1.00
C10    C     0.83090   0.15197   0.45679   0.00000  Uiso   1.00
C11    C     0.86284   0.22123   0.49325   0.00000  Uiso   1.00
C12    C     0.79440   0.18934   0.54418   0.00000  Uiso   1.00
C13    C     0.71214   0.17481   0.63180   0.00000  Uiso   1.00
C14    C     0.71499   0.99114   0.42461   0.00000  Uiso   1.00
C15    C     0.81707   0.96916   0.41686   0.00000  Uiso   1.00
C16    C     0.81841   0.86554   0.42248   0.00000  Uiso   1.00
C17    C     0.92020   0.86301   0.41367   0.00000  Uiso   1.00
C18    C     0.71611   0.07311   0.36869   0.00000  Uiso   1.00
C19    C     0.63255   0.05688   0.33382   0.00000  Uiso   1.00
C20    C     0.64933   0.14185   0.28447   0.00000  Uiso   1.00
C21    C     0.73401   0.05433   0.47070   0.00000  Uiso   1.00
C22    C     0.66550   0.02233   0.52159   0.00000  Uiso   1.00
C23    C     0.69734   0.09152   0.55811   0.00000  Uiso   1.00
H24    H     0.96878   0.24693   0.38816   0.00000  Uiso   1.00
H25    H     0.09071   0.14002   0.38337   0.00000  Uiso   1.00
H26    H     0.90487   0.33133   0.29473   0.00000  Uiso   1.00
H27    H     0.93782   0.29679   0.48247   0.00000  Uiso   1.00
H28    H     0.18317   0.97843   0.38417   0.00000  Uiso   1.00
H29    H     0.79130   0.38184   0.19728   0.00000  Uiso   1.00
H30    H     0.86077   0.30900   0.59316   0.00000  Uiso   1.00
H31    H     0.63956   0.91512   0.43544   0.00000  Uiso   1.00
H32    H     0.74343   0.78999   0.43324   0.00000  Uiso   1.00
H33    H     0.55759   0.98131   0.34460   0.00000  Uiso   1.00
H34    H     0.59054   0.94676   0.53234   0.00000  Uiso   1.00
H35    H     0.90130   0.69433   0.42465   0.00000  Uiso   1.00
H36    H     0.50943   0.09775   0.23776   0.00000  Uiso   1.00
H37    H     0.57891   0.02491   0.63364   0.00000  Uiso   1.00
O38    O     0.11650   0.76006   0.40209   0.00000  Uiso   1.00
O39    O     0.60238   0.28933   0.15690   0.00000  Uiso   1.00
O40    O     0.69353   0.19377   0.67629   0.00000  Uiso   1.00
N41    N     0.10258   0.92874   0.39401   0.00000  Uiso   1.00
N42    N     0.73621   0.30590   0.21927   0.00000  Uiso   1.00
N43    N     0.80115   0.23781   0.58938   0.00000  Uiso   1.00
N44    N     0.95091   0.77587   0.41579   0.00000  Uiso   1.00
N45    N     0.58454   0.15303   0.24105   0.00000  Uiso   1.00
N46    N     0.64948   0.08494   0.61116   0.00000  Uiso   1.00
C47    C     0.79613   0.65774   0.16625   0.00000  Uiso   1.00
C48    C     0.86682   0.78265   0.14687   0.00000  Uiso   1.00
C49    C     0.82816   0.86520   0.13148   0.00000  Uiso   1.00
C50    C     0.90606   0.97458   0.11498   0.00000  Uiso   1.00
C51    C     0.99870   0.16461   0.08502   0.00000  Uiso   1.00
C52    C     0.83634   0.60706   0.12547   0.00000  Uiso   1.00
C53    C     0.77206   0.54196   0.09210   0.00000  Uiso   1.00
C54    C     0.82430   0.50351   0.05760   0.00000  Uiso   1.00
C55    C     0.86962   0.42087   0.99445   0.00000  Uiso   1.00
C56    C     0.82715   0.61602   0.22509   0.00000  Uiso   1.00
C57    C     0.75513   0.55842   0.27547   0.00000  Uiso   1.00
C58    C     0.79963   0.52749   0.32483   0.00000  Uiso   1.00
C59    C     0.83067   0.45876   0.41634   0.00000  Uiso   1.00
C60    C     0.00321   0.70519   0.16433   0.00000  Uiso   1.00
C61    C     0.97930   0.80843   0.14582   0.00000  Uiso   1.00
C62    C     0.05727   0.91771   0.12935   0.00000  Uiso   1.00
C63    C     0.01874   0.00040   0.11394   0.00000  Uiso   1.00
C64    C     0.94882   0.63284   0.12443   0.00000  Uiso   1.00
C65    C     0.00117   0.59447   0.08997   0.00000  Uiso   1.00
C66    C     0.93699   0.52933   0.05655   0.00000  Uiso   1.00
C67    C     0.93963   0.64180   0.22404   0.00000  Uiso   1.00
C68    C     0.98425   0.61094   0.27333   0.00000  Uiso   1.00
C69    C     0.91231   0.55331   0.32378   0.00000  Uiso   1.00
H70    H     0.70856   0.63767   0.16707   0.00000  Uiso   1.00
H71    H     0.74111   0.84522   0.13229   0.00000  Uiso   1.00
H72    H     0.68502   0.52202   0.09292   0.00000  Uiso   1.00
H73    H     0.66809   0.53849   0.27626   0.00000  Uiso   1.00
H74    H     0.82679   0.08669   0.09326   0.00000  Uiso   1.00
H75    H     0.70851   0.40518   0.01026   0.00000  Uiso   1.00
H76    H     0.67283   0.43991   0.39686   0.00000  Uiso   1.00
H77    H     0.09079   0.72526   0.16351   0.00000  Uiso   1.00
H78    H     0.14431   0.93763   0.12854   0.00000  Uiso   1.00
H79    H     0.08821   0.61443   0.08917   0.00000  Uiso   1.00
H80    H     0.07129   0.63090   0.27251   0.00000  Uiso   1.00
H81    H     0.15405   0.16170   0.09021   0.00000  Uiso   1.00
H82    H     0.03576   0.48018   0.00721   0.00000  Uiso   1.00
H83    H     0.00008   0.51491   0.39381   0.00000  Uiso   1.00
O84    O     0.01873   0.26231   0.06878   0.00000  Uiso   1.00
O85    O     0.86355   0.36818   0.95990   0.00000  Uiso   1.00
O86    O     0.81673   0.41375   0.46711   0.00000  Uiso   1.00
N87    N     0.89647   0.07520   0.09735   0.00000  Uiso   1.00
N88    N     0.78588   0.43805   0.01975   0.00000  Uiso   1.00
N89    N     0.75252   0.47048   0.38118   0.00000  Uiso   1.00
N90    N     0.07256   0.11556   0.09571   0.00000  Uiso   1.00
N91    N     0.96198   0.47840   0.01811   0.00000  Uiso   1.00
N92    N     0.92861   0.51084   0.37954   0.00000  Uiso   1.00
C93    C     0.33629   0.09519   0.75669   0.00000  Uiso   1.00
C94    C     0.21143   0.05065   0.76599   0.00000  Uiso   1.00
C95    C     0.13891   0.93919   0.78119   0.00000  Uiso   1.00
C96    C     0.02771   0.91557   0.78762   0.00000  Uiso   1.00
C97    C     0.83949   0.83351   0.80332   0.00000  Uiso   1.00
C98    C     0.37198   0.17294   0.69597   0.00000  Uiso   1.00
C99    C     0.43448   0.16430   0.65232   0.00000  Uiso   1.00
C100   C     0.45844   0.24364   0.59982   0.00000  Uiso   1.00
C101   C     0.51955   0.35149   0.50683   0.00000  Uiso   1.00
C102   C     0.37849   0.16906   0.79740   0.00000  Uiso   1.00
C103   C     0.44648   0.15717   0.83901   0.00000  Uiso   1.00
C104   C     0.47593   0.23326   0.87190   0.00000  Uiso   1.00
C105   C     0.54715   0.33507   0.93639   0.00000  Uiso   1.00
C106   C     0.26775   0.25146   0.74107   0.00000  Uiso   1.00
C107   C     0.17420   0.13553   0.75750   0.00000  Uiso   1.00
C108   C     0.06307   0.11208   0.76391   0.00000  Uiso   1.00
C109   C     0.99040   0.00060   0.77913   0.00000  Uiso   1.00
C110   C     0.33476   0.25782   0.68749   0.00000  Uiso   1.00
C111   C     0.35863   0.33720   0.63504   0.00000  Uiso   1.00
C112   C     0.42114   0.32868   0.59132   0.00000  Uiso   1.00
C113   C     0.34126   0.25394   0.78892   0.00000  Uiso   1.00
C114   C     0.37063   0.33006   0.82174   0.00000  Uiso   1.00
C115   C     0.43864   0.31829   0.86340   0.00000  Uiso   1.00
H116   H     0.36528   0.02911   0.76329   0.00000  Uiso   1.00
H117   H     0.16776   0.87352   0.78774   0.00000  Uiso   1.00
H118   H     0.46329   0.09862   0.65890   0.00000  Uiso   1.00
H119   H     0.47527   0.09148   0.84557   0.00000  Uiso   1.00
H120   H     0.93235   0.73847   0.81110   0.00000  Uiso   1.00
H121   H     0.55551   0.21310   0.53942   0.00000  Uiso   1.00
H122   H     0.58079   0.19806   0.93305   0.00000  Uiso   1.00
H123   H     0.23876   0.31754   0.73447   0.00000  Uiso   1.00
H124   H     0.03428   0.17778   0.75735   0.00000  Uiso   1.00
H125   H     0.32981   0.40287   0.62850   0.00000  Uiso   1.00
H126   H     0.34180   0.39574   0.81516   0.00000  Uiso   1.00
H127   H     0.82401   0.98541   0.78642   0.00000  Uiso   1.00
H128   H     0.44718   0.46005   0.51474   0.00000  Uiso   1.00
H129   H     0.47246   0.44501   0.90837   0.00000  Uiso   1.00
O130   O     0.74595   0.76480   0.81431   0.00000  Uiso   1.00
O131   O     0.56354   0.38751   0.45788   0.00000  Uiso   1.00
O132   O     0.59670   0.36777   0.97432   0.00000  Uiso   1.00
N133   N     0.93491   0.81576   0.80216   0.00000  Uiso   1.00
N134   N     0.51752   0.25951   0.54816   0.00000  Uiso   1.00
N135   N     0.54118   0.24546   0.91615   0.00000  Uiso   1.00
N136   N     0.87662   0.94864   0.78889   0.00000  Uiso   1.00
N137   N     0.45922   0.39239   0.53488   0.00000  Uiso   1.00
N138   N     0.48289   0.37834   0.90288   0.00000  Uiso   1.00
C139   C     0.19362   0.80884   0.64996   0.00000  Uiso   1.00
C140   C     0.13190   0.88368   0.64245   0.00000  Uiso   1.00
C141   C     0.17947   0.99920   0.62618   0.00000  Uiso   1.00
C142   C     0.10885   0.05235   0.62173   0.00000  Uiso   1.00
C143   C     0.03036   0.17772   0.60836   0.00000  Uiso   1.00
C144   C     0.15667   0.73397   0.71131   0.00000  Uiso   1.00
C145   C     0.22508   0.72360   0.75292   0.00000  Uiso   1.00
C146   C     0.17532   0.65070   0.80644   0.00000  Uiso   1.00
C147   C     0.13530   0.54358   0.89995   0.00000  Uiso   1.00
C148   C     0.14839   0.73279   0.61055   0.00000  Uiso   1.00
C149   C     0.20984   0.72140   0.56746   0.00000  Uiso   1.00
C150   C     0.15310   0.64749   0.53616   0.00000  Uiso   1.00
C151   C     0.10022   0.53854   0.47323   0.00000  Uiso   1.00
C152   C     0.98362   0.69781   0.67099   0.00000  Uiso   1.00
C153   C     0.01783   0.82337   0.65388   0.00000  Uiso   1.00
C154   C     0.94712   0.87635   0.64945   0.00000  Uiso   1.00
C155   C     0.99458   0.99193   0.63317   0.00000  Uiso   1.00
C156   C     0.04261   0.67366   0.72273   0.00000  Uiso   1.00
C157   C     0.99273   0.60075   0.77619   0.00000  Uiso   1.00
C158   C     0.06105   0.59028   0.81788   0.00000  Uiso   1.00
C159   C     0.03432   0.67248   0.62197   0.00000  Uiso   1.00
C160   C     0.97749   0.59856   0.59073   0.00000  Uiso   1.00
C161   C     0.03883   0.58707   0.54760   0.00000  Uiso   1.00
H162   H     0.28243   0.85579   0.64107   0.00000  Uiso   1.00
H163   H     0.26775   0.04584   0.61735   0.00000  Uiso   1.00
H164   H     0.31335   0.77027   0.74407   0.00000  Uiso   1.00
H165   H     0.29810   0.76808   0.55864   0.00000  Uiso   1.00
H166   H     0.20117   0.22995   0.59610   0.00000  Uiso   1.00
H167   H     0.29733   0.64887   0.86329   0.00000  Uiso   1.00
H168   H     0.26518   0.64425   0.47227   0.00000  Uiso   1.00
H169   H     0.89481   0.65085   0.67989   0.00000  Uiso   1.00
H170   H     0.85886   0.82966   0.65829   0.00000  Uiso   1.00
H171   H     0.90446   0.55409   0.78502   0.00000  Uiso   1.00
H172   H     0.88922   0.55190   0.59958   0.00000  Uiso   1.00
H173   H     0.86930   0.05449   0.62934   0.00000  Uiso   1.00
H174   H     0.96546   0.47340   0.89653   0.00000  Uiso   1.00
H175   H     0.93331   0.46879   0.50551   0.00000  Uiso   1.00
O176   O     0.01858   0.26354   0.59783   0.00000  Uiso   1.00
O177   O     0.14474   0.50117   0.94837   0.00000  Uiso   1.00
O178   O     0.10256   0.49512   0.43536   0.00000  Uiso   1.00
N179   N     0.12799   0.16412   0.60688   0.00000  Uiso   1.00
N180   N     0.21790   0.62086   0.85669   0.00000  Uiso   1.00
N181   N     0.18785   0.61651   0.49113   0.00000  Uiso   1.00
N182   N     0.94942   0.06970   0.62476   0.00000  Uiso   1.00
N183   N     0.03932   0.52644   0.87457   0.00000  Uiso   1.00
N184   N     0.00927   0.52210   0.50901   0.00000  Uiso   1.00
C185   C     0.69256   0.85832   0.98131   0.00000  Uiso   1.00
C186   C     0.81747   0.91133   0.97739   0.00000  Uiso   1.00
C187   C     0.88384   0.85461   0.99213   0.00000  Uiso   1.00
C188   C     0.99625   0.91823   0.98546   0.00000  Uiso   1.00
C189   C     0.18346   0.98288   0.98254   0.00000  Uiso   1.00
C190   C     0.65121   0.91293   0.01932   0.00000  Uiso   1.00
C191   C     0.57777   0.85755   0.06931   0.00000  Uiso   1.00
C192   C     0.55020   0.92251   0.09793   0.00000  Uiso   1.00
C193   C     0.47922   0.98963   0.16009   0.00000  Uiso   1.00
C194   C     0.66493   0.89724   0.92114   0.00000  Uiso   1.00
C195   C     0.60300   0.82868   0.88859   0.00000  Uiso   1.00
C196   C     0.58696   0.88045   0.83455   0.00000  Uiso   1.00
C197   C     0.53727   0.92322   0.74427   0.00000  Uiso   1.00
C198   C     0.77416   0.07216   0.94324   0.00000  Uiso   1.00
C199   C     0.86179   0.02748   0.95671   0.00000  Uiso   1.00
C200   C     0.97413   0.09121   0.95001   0.00000  Uiso   1.00
C201   C     0.04065   0.03459   0.96474   0.00000  Uiso   1.00
C202   C     0.69553   0.02908   0.99864   0.00000  Uiso   1.00
C203   C     0.66806   0.09414   0.02719   0.00000  Uiso   1.00
C204   C     0.59461   0.03888   0.07722   0.00000  Uiso   1.00
C205   C     0.70925   0.01340   0.90046   0.00000  Uiso   1.00
C206   C     0.69329   0.06528   0.84647   0.00000  Uiso   1.00
C207   C     0.63136   0.99681   0.81384   0.00000  Uiso   1.00
H208   H     0.65805   0.76789   0.99741   0.00000  Uiso   1.00
H209   H     0.84951   0.76472   0.00814   0.00000  Uiso   1.00
H210   H     0.54348   0.76766   0.08530   0.00000  Uiso   1.00
H211   H     0.56871   0.73880   0.90460   0.00000  Uiso   1.00
H212   H     0.08132   0.81244   0.01093   0.00000  Uiso   1.00
H213   H     0.43601   0.81862   0.17362   0.00000  Uiso   1.00
H214   H     0.48921   0.75777   0.79258   0.00000  Uiso   1.00
H215   H     0.80867   0.16260   0.92714   0.00000  Uiso   1.00
H216   H     0.00841   0.18109   0.93401   0.00000  Uiso   1.00
H217   H     0.70237   0.18402   0.01118   0.00000  Uiso   1.00
H218   H     0.72760   0.15517   0.83048   0.00000  Uiso   1.00
H219   H     0.21029   0.15038   0.95077   0.00000  Uiso   1.00
H220   H     0.56497   0.15656   0.11346   0.00000  Uiso   1.00
H221   H     0.61817   0.09571   0.73242   0.00000  Uiso   1.00
O222   O     0.27447   0.98646   0.98665   0.00000  Uiso   1.00
O223   O     0.42783   0.99457   0.20010   0.00000  Uiso   1.00
O224   O     0.49764   0.91472   0.70018   0.00000  Uiso   1.00
N225   N     0.08427   0.88943   0.99581   0.00000  Uiso   1.00
N226   N     0.48095   0.89522   0.14793   0.00000  Uiso   1.00
N227   N     0.53066   0.83832   0.79170   0.00000  Uiso   1.00
N228   N     0.15366   0.07128   0.96344   0.00000  Uiso   1.00
N229   N     0.55034   0.07706   0.11556   0.00000  Uiso   1.00
N230   N     0.60006   0.02016   0.75933   0.00000  Uiso   1.00
C231   C     0.12617   0.32416   0.21597   0.00000  Uiso   1.00
C232   C     0.06362   0.19786   0.23238   0.00000  Uiso   1.00
C233   C     0.95040   0.14008   0.23824   0.00000  Uiso   1.00
C234   C     0.90911   0.02468   0.25356   0.00000  Uiso   1.00
C235   C     0.80141   0.83701   0.27770   0.00000  Uiso   1.00
C236   C     0.19608   0.35105   0.26420   0.00000  Uiso   1.00
C237   C     0.19423   0.42208   0.29680   0.00000  Uiso   1.00
C238   C     0.26446   0.43564   0.33890   0.00000  Uiso   1.00
C239   C     0.36246   0.48587   0.41240   0.00000  Uiso   1.00
C240   C     0.20653   0.35354   0.16284   0.00000  Uiso   1.00
C241   C     0.21349   0.42668   0.11020   0.00000  Uiso   1.00
C242   C     0.29253   0.44236   0.06697   0.00000  Uiso   1.00
C243   C     0.40675   0.49645   0.98309   0.00000  Uiso   1.00
C244   C     0.25418   0.22197   0.23278   0.00000  Uiso   1.00
C245   C     0.13316   0.14236   0.24152   0.00000  Uiso   1.00
C246   C     0.09203   0.02702   0.25684   0.00000  Uiso   1.00
C247   C     0.97877   0.96907   0.26271   0.00000  Uiso   1.00
C248   C     0.26561   0.29555   0.27333   0.00000  Uiso   1.00
C249   C     0.33586   0.30902   0.31540   0.00000  Uiso   1.00
C250   C     0.33412   0.38004   0.34805   0.00000  Uiso   1.00
C251   C     0.27606   0.29803   0.17197   0.00000  Uiso   1.00
C252   C     0.35511   0.31361   0.12881   0.00000  Uiso   1.00
C253   C     0.36219   0.38676   0.07612   0.00000  Uiso   1.00
H254   H     0.07204   0.36738   0.20886   0.00000  Uiso   1.00
H255   H     0.89662   0.18307   0.23117   0.00000  Uiso   1.00
H256   H     0.14042   0.46503   0.28972   0.00000  Uiso   1.00
H257   H     0.15967   0.46962   0.10316   0.00000  Uiso   1.00
H258   H     0.73279   0.95424   0.25995   0.00000  Uiso   1.00
H259   H     0.24689   0.54881   0.38339   0.00000  Uiso   1.00
H260   H     0.28748   0.55849   0.98999   0.00000  Uiso   1.00
H261   H     0.30832   0.17876   0.23989   0.00000  Uiso   1.00
H262   H     0.14586   0.98409   0.26390   0.00000  Uiso   1.00
H263   H     0.38966   0.26606   0.32245   0.00000  Uiso   1.00
H264   H     0.40891   0.27064   0.13589   0.00000  Uiso   1.00
H265   H     0.93508   0.79274   0.28652   0.00000  Uiso   1.00
H266   H     0.44919   0.38732   0.40996   0.00000  Uiso   1.00
H267   H     0.48977   0.39700   0.01655   0.00000  Uiso   1.00
O268   O     0.72280   0.74883   0.28849   0.00000  Uiso   1.00
O269   O     0.39730   0.52890   0.45043   0.00000  Uiso   1.00
O270   O     0.45054   0.54160   0.93429   0.00000  Uiso   1.00
N271   N     0.80270   0.94294   0.26290   0.00000  Uiso   1.00
N272   N     0.28334   0.49882   0.37831   0.00000  Uiso   1.00
N273   N     0.32130   0.50790   0.01052   0.00000  Uiso   1.00
N274   N     0.91155   0.85604   0.27719   0.00000  Uiso   1.00
N275   N     0.39219   0.41192   0.39261   0.00000  Uiso   1.00
N276   N     0.43016   0.42100   0.02481   0.00000  Uiso   1.00
