data_job_04596
_audit_creation_date              2018-12-19
_audit_creation_method            'Materials Studio'
_symmetry_space_group_name_H-M    'P1'
_symmetry_Int_Tables_number       1
_symmetry_cell_setting            triclinic
loop_
_symmetry_equiv_pos_as_xyz
  x,y,z
_cell_length_a                    21.0427
_cell_length_b                    13.3685
_cell_length_c                    16.8151
_cell_angle_alpha                 90.0000
_cell_angle_beta                  68.2270
_cell_angle_gamma                 90.0000
loop_
_atom_site_label
_atom_site_type_symbol
_atom_site_fract_x
_atom_site_fract_y
_atom_site_fract_z
_atom_site_U_iso_or_equiv
_atom_site_adp_type
_atom_site_occupancy
C1     C     0.33851   0.12108   0.79401   0.00000  Uiso   1.00
C2     C     0.35713   0.21433   0.83290   0.00000  Uiso   1.00
C3     C     0.34884   0.22637   0.91816   0.00000  Uiso   1.00
C4     C     0.36899   0.31732   0.94106   0.00000  Uiso   1.00
C5     C     0.39369   0.45056   0.01063   0.00000  Uiso   1.00
C6     C     0.28927   0.15575   0.75214   0.00000  Uiso   1.00
C7     C     0.22392   0.11853   0.76949   0.00000  Uiso   1.00
C8     C     0.18695   0.16016   0.72439   0.00000  Uiso   1.00
C9     C     0.10631   0.20240   0.66854   0.00000  Uiso   1.00
C10    C     0.40377   0.08918   0.72095   0.00000  Uiso   1.00
C11    C     0.43469   0.99597   0.71205   0.00000  Uiso   1.00
C12    C     0.49411   0.98154   0.64067   0.00000  Uiso   1.00
C13    C     0.59126   0.92042   0.53638   0.00000  Uiso   1.00
C14    C     0.38906   0.26119   0.68306   0.00000  Uiso   1.00
C15    C     0.38458   0.29043   0.77264   0.00000  Uiso   1.00
C16    C     0.40476   0.38139   0.79542   0.00000  Uiso   1.00
C17    C     0.39649   0.39356   0.88069   0.00000  Uiso   1.00
C18    C     0.31672   0.23185   0.69189   0.00000  Uiso   1.00
C19    C     0.27984   0.27354   0.64675   0.00000  Uiso   1.00
C20    C     0.21445   0.23640   0.66402   0.00000  Uiso   1.00
C21    C     0.43123   0.16528   0.66069   0.00000  Uiso   1.00
C22    C     0.49061   0.15099   0.58931   0.00000  Uiso   1.00
C23    C     0.52161   0.05778   0.58031   0.00000  Uiso   1.00
H24    H     0.31714   0.06183   0.84092   0.00000  Uiso   1.00
H25    H     0.32758   0.16746   0.96477   0.00000  Uiso   1.00
H26    H     0.20269   0.05963   0.81612   0.00000  Uiso   1.00
H27    H     0.41343   0.93710   0.75869   0.00000  Uiso   1.00
H28    H     0.35125   0.31815   0.07552   0.00000  Uiso   1.00
H29    H     0.08791   0.09076   0.76206   0.00000  Uiso   1.00
H30    H     0.53230   0.83236   0.64096   0.00000  Uiso   1.00
H31    H     0.41043   0.32044   0.63615   0.00000  Uiso   1.00
H32    H     0.42600   0.44027   0.74877   0.00000  Uiso   1.00
H33    H     0.30110   0.33243   0.60012   0.00000  Uiso   1.00
H34    H     0.51184   0.20990   0.54269   0.00000  Uiso   1.00
H35    H     0.43112   0.53957   0.90021   0.00000  Uiso   1.00
H36    H     0.16778   0.31217   0.58674   0.00000  Uiso   1.00
H37    H     0.61217   0.05378   0.46564   0.00000  Uiso   1.00
O38    O     0.39972   0.50303   0.06565   0.00000  Uiso   1.00
O39    O     0.05424   0.20468   0.65438   0.00000  Uiso   1.00
O40    O     0.63726   0.86568   0.49551   0.00000  Uiso   1.00
N41    N     0.36792   0.35381   0.01880   0.00000  Uiso   1.00
N42    N     0.12171   0.14122   0.72574   0.00000  Uiso   1.00
N43    N     0.53717   0.89964   0.61251   0.00000  Uiso   1.00
N44    N     0.41090   0.47295   0.92447   0.00000  Uiso   1.00
N45    N     0.16469   0.26036   0.63140   0.00000  Uiso   1.00
N46    N     0.58014   0.01878   0.51818   0.00000  Uiso   1.00
C47    C     0.83851   0.62108   0.79401   0.00000  Uiso   1.00
C48    C     0.85713   0.71433   0.83290   0.00000  Uiso   1.00
C49    C     0.84884   0.72637   0.91816   0.00000  Uiso   1.00
C50    C     0.86899   0.81732   0.94106   0.00000  Uiso   1.00
C51    C     0.89369   0.95056   0.01063   0.00000  Uiso   1.00
C52    C     0.78927   0.65575   0.75214   0.00000  Uiso   1.00
C53    C     0.72392   0.61853   0.76949   0.00000  Uiso   1.00
C54    C     0.68695   0.66016   0.72439   0.00000  Uiso   1.00
C55    C     0.60631   0.70240   0.66854   0.00000  Uiso   1.00
C56    C     0.90377   0.58918   0.72095   0.00000  Uiso   1.00
C57    C     0.93469   0.49597   0.71205   0.00000  Uiso   1.00
C58    C     0.99411   0.48154   0.64067   0.00000  Uiso   1.00
C59    C     0.09126   0.42042   0.53638   0.00000  Uiso   1.00
C60    C     0.88906   0.76119   0.68306   0.00000  Uiso   1.00
C61    C     0.88458   0.79043   0.77264   0.00000  Uiso   1.00
C62    C     0.90476   0.88139   0.79542   0.00000  Uiso   1.00
C63    C     0.89649   0.89356   0.88069   0.00000  Uiso   1.00
C64    C     0.81672   0.73185   0.69189   0.00000  Uiso   1.00
C65    C     0.77984   0.77354   0.64675   0.00000  Uiso   1.00
C66    C     0.71445   0.73640   0.66402   0.00000  Uiso   1.00
C67    C     0.93123   0.66528   0.66069   0.00000  Uiso   1.00
C68    C     0.99061   0.65099   0.58931   0.00000  Uiso   1.00
C69    C     0.02161   0.55778   0.58031   0.00000  Uiso   1.00
H70    H     0.81714   0.56183   0.84092   0.00000  Uiso   1.00
H71    H     0.82758   0.66746   0.96477   0.00000  Uiso   1.00
H72    H     0.70269   0.55963   0.81612   0.00000  Uiso   1.00
H73    H     0.91343   0.43710   0.75869   0.00000  Uiso   1.00
H74    H     0.85125   0.81815   0.07552   0.00000  Uiso   1.00
H75    H     0.58791   0.59076   0.76206   0.00000  Uiso   1.00
H76    H     0.03230   0.33236   0.64096   0.00000  Uiso   1.00
H77    H     0.91043   0.82044   0.63615   0.00000  Uiso   1.00
H78    H     0.92600   0.94027   0.74877   0.00000  Uiso   1.00
H79    H     0.80110   0.83243   0.60012   0.00000  Uiso   1.00
H80    H     0.01184   0.70990   0.54269   0.00000  Uiso   1.00
H81    H     0.93112   0.03957   0.90021   0.00000  Uiso   1.00
H82    H     0.66778   0.81217   0.58674   0.00000  Uiso   1.00
H83    H     0.11217   0.55378   0.46564   0.00000  Uiso   1.00
O84    O     0.89972   0.00303   0.06565   0.00000  Uiso   1.00
O85    O     0.55424   0.70468   0.65438   0.00000  Uiso   1.00
O86    O     0.13726   0.36568   0.49551   0.00000  Uiso   1.00
N87    N     0.86792   0.85381   0.01880   0.00000  Uiso   1.00
N88    N     0.62171   0.64122   0.72574   0.00000  Uiso   1.00
N89    N     0.03717   0.39964   0.61251   0.00000  Uiso   1.00
N90    N     0.91090   0.97295   0.92447   0.00000  Uiso   1.00
N91    N     0.66469   0.76036   0.63140   0.00000  Uiso   1.00
N92    N     0.08014   0.51878   0.51818   0.00000  Uiso   1.00
C93    C     0.66149   0.12108   0.70599   0.00000  Uiso   1.00
C94    C     0.64287   0.21433   0.66710   0.00000  Uiso   1.00
C95    C     0.65116   0.22637   0.58184   0.00000  Uiso   1.00
C96    C     0.63101   0.31732   0.55894   0.00000  Uiso   1.00
C97    C     0.60631   0.45056   0.48937   0.00000  Uiso   1.00
C98    C     0.71073   0.15575   0.74786   0.00000  Uiso   1.00
C99    C     0.77608   0.11853   0.73051   0.00000  Uiso   1.00
C100   C     0.81305   0.16016   0.77561   0.00000  Uiso   1.00
C101   C     0.89369   0.20240   0.83146   0.00000  Uiso   1.00
C102   C     0.59623   0.08918   0.77905   0.00000  Uiso   1.00
C103   C     0.56531   0.99597   0.78795   0.00000  Uiso   1.00
C104   C     0.50589   0.98154   0.85933   0.00000  Uiso   1.00
C105   C     0.40874   0.92042   0.96362   0.00000  Uiso   1.00
C106   C     0.61094   0.26119   0.81694   0.00000  Uiso   1.00
C107   C     0.61542   0.29043   0.72736   0.00000  Uiso   1.00
C108   C     0.59524   0.38139   0.70458   0.00000  Uiso   1.00
C109   C     0.60351   0.39356   0.61931   0.00000  Uiso   1.00
C110   C     0.68328   0.23185   0.80811   0.00000  Uiso   1.00
C111   C     0.72016   0.27354   0.85325   0.00000  Uiso   1.00
C112   C     0.78555   0.23640   0.83598   0.00000  Uiso   1.00
C113   C     0.56877   0.16528   0.83931   0.00000  Uiso   1.00
C114   C     0.50939   0.15099   0.91069   0.00000  Uiso   1.00
C115   C     0.47839   0.05778   0.91969   0.00000  Uiso   1.00
H116   H     0.68286   0.06183   0.65908   0.00000  Uiso   1.00
H117   H     0.67242   0.16746   0.53523   0.00000  Uiso   1.00
H118   H     0.79731   0.05963   0.68388   0.00000  Uiso   1.00
H119   H     0.58657   0.93710   0.74131   0.00000  Uiso   1.00
H120   H     0.64875   0.31815   0.42448   0.00000  Uiso   1.00
H121   H     0.91209   0.09076   0.73794   0.00000  Uiso   1.00
H122   H     0.46770   0.83236   0.85904   0.00000  Uiso   1.00
H123   H     0.58957   0.32044   0.86385   0.00000  Uiso   1.00
H124   H     0.57400   0.44027   0.75123   0.00000  Uiso   1.00
H125   H     0.69890   0.33243   0.89988   0.00000  Uiso   1.00
H126   H     0.48816   0.20990   0.95731   0.00000  Uiso   1.00
H127   H     0.56888   0.53957   0.59979   0.00000  Uiso   1.00
H128   H     0.83222   0.31217   0.91326   0.00000  Uiso   1.00
H129   H     0.38783   0.05378   0.03436   0.00000  Uiso   1.00
O130   O     0.60028   0.50303   0.43435   0.00000  Uiso   1.00
O131   O     0.94576   0.20468   0.84562   0.00000  Uiso   1.00
O132   O     0.36274   0.86568   0.00449   0.00000  Uiso   1.00
N133   N     0.63208   0.35381   0.48120   0.00000  Uiso   1.00
N134   N     0.87829   0.14122   0.77426   0.00000  Uiso   1.00
N135   N     0.46283   0.89964   0.88749   0.00000  Uiso   1.00
N136   N     0.58910   0.47295   0.57553   0.00000  Uiso   1.00
N137   N     0.83531   0.26036   0.86860   0.00000  Uiso   1.00
N138   N     0.41986   0.01878   0.98182   0.00000  Uiso   1.00
C139   C     0.16149   0.62108   0.70599   0.00000  Uiso   1.00
C140   C     0.14287   0.71433   0.66710   0.00000  Uiso   1.00
C141   C     0.15116   0.72637   0.58184   0.00000  Uiso   1.00
C142   C     0.13101   0.81732   0.55894   0.00000  Uiso   1.00
C143   C     0.10631   0.95056   0.48937   0.00000  Uiso   1.00
C144   C     0.21073   0.65575   0.74786   0.00000  Uiso   1.00
C145   C     0.27608   0.61853   0.73051   0.00000  Uiso   1.00
C146   C     0.31305   0.66016   0.77561   0.00000  Uiso   1.00
C147   C     0.39369   0.70240   0.83146   0.00000  Uiso   1.00
C148   C     0.09623   0.58918   0.77905   0.00000  Uiso   1.00
C149   C     0.06531   0.49597   0.78795   0.00000  Uiso   1.00
C150   C     0.00589   0.48154   0.85933   0.00000  Uiso   1.00
C151   C     0.90874   0.42042   0.96362   0.00000  Uiso   1.00
C152   C     0.11094   0.76119   0.81694   0.00000  Uiso   1.00
C153   C     0.11542   0.79043   0.72736   0.00000  Uiso   1.00
C154   C     0.09524   0.88139   0.70458   0.00000  Uiso   1.00
C155   C     0.10351   0.89356   0.61931   0.00000  Uiso   1.00
C156   C     0.18328   0.73185   0.80811   0.00000  Uiso   1.00
C157   C     0.22016   0.77354   0.85325   0.00000  Uiso   1.00
C158   C     0.28555   0.73640   0.83598   0.00000  Uiso   1.00
C159   C     0.06877   0.66528   0.83931   0.00000  Uiso   1.00
C160   C     0.00939   0.65099   0.91069   0.00000  Uiso   1.00
C161   C     0.97839   0.55778   0.91969   0.00000  Uiso   1.00
H162   H     0.18286   0.56183   0.65908   0.00000  Uiso   1.00
H163   H     0.17242   0.66746   0.53523   0.00000  Uiso   1.00
H164   H     0.29731   0.55963   0.68388   0.00000  Uiso   1.00
H165   H     0.08657   0.43710   0.74131   0.00000  Uiso   1.00
H166   H     0.14875   0.81815   0.42448   0.00000  Uiso   1.00
H167   H     0.41209   0.59076   0.73794   0.00000  Uiso   1.00
H168   H     0.96770   0.33236   0.85904   0.00000  Uiso   1.00
H169   H     0.08957   0.82044   0.86385   0.00000  Uiso   1.00
H170   H     0.07400   0.94027   0.75123   0.00000  Uiso   1.00
H171   H     0.19890   0.83243   0.89988   0.00000  Uiso   1.00
H172   H     0.98816   0.70990   0.95731   0.00000  Uiso   1.00
H173   H     0.06888   0.03957   0.59979   0.00000  Uiso   1.00
H174   H     0.33222   0.81217   0.91326   0.00000  Uiso   1.00
H175   H     0.88783   0.55378   0.03436   0.00000  Uiso   1.00
O176   O     0.10028   0.00303   0.43435   0.00000  Uiso   1.00
O177   O     0.44576   0.70468   0.84562   0.00000  Uiso   1.00
O178   O     0.86274   0.36568   0.00449   0.00000  Uiso   1.00
N179   N     0.13208   0.85381   0.48120   0.00000  Uiso   1.00
N180   N     0.37829   0.64122   0.77426   0.00000  Uiso   1.00
N181   N     0.96283   0.39964   0.88749   0.00000  Uiso   1.00
N182   N     0.08910   0.97295   0.57553   0.00000  Uiso   1.00
N183   N     0.33531   0.76036   0.86860   0.00000  Uiso   1.00
N184   N     0.91985   0.51878   0.98182   0.00000  Uiso   1.00
C185   C     0.66149   0.87892   0.20599   0.00000  Uiso   1.00
C186   C     0.64287   0.78567   0.16710   0.00000  Uiso   1.00
C187   C     0.65116   0.77363   0.08184   0.00000  Uiso   1.00
C188   C     0.63101   0.68268   0.05894   0.00000  Uiso   1.00
C189   C     0.60631   0.54944   0.98937   0.00000  Uiso   1.00
C190   C     0.71073   0.84425   0.24786   0.00000  Uiso   1.00
C191   C     0.77608   0.88147   0.23051   0.00000  Uiso   1.00
C192   C     0.81305   0.83984   0.27561   0.00000  Uiso   1.00
C193   C     0.89369   0.79760   0.33146   0.00000  Uiso   1.00
C194   C     0.59623   0.91082   0.27905   0.00000  Uiso   1.00
C195   C     0.56531   0.00403   0.28795   0.00000  Uiso   1.00
C196   C     0.50589   0.01846   0.35933   0.00000  Uiso   1.00
C197   C     0.40874   0.07958   0.46362   0.00000  Uiso   1.00
C198   C     0.61094   0.73881   0.31694   0.00000  Uiso   1.00
C199   C     0.61542   0.70957   0.22736   0.00000  Uiso   1.00
C200   C     0.59524   0.61861   0.20458   0.00000  Uiso   1.00
C201   C     0.60351   0.60644   0.11931   0.00000  Uiso   1.00
C202   C     0.68328   0.76815   0.30811   0.00000  Uiso   1.00
C203   C     0.72016   0.72646   0.35325   0.00000  Uiso   1.00
C204   C     0.78555   0.76360   0.33598   0.00000  Uiso   1.00
C205   C     0.56877   0.83472   0.33931   0.00000  Uiso   1.00
C206   C     0.50939   0.84901   0.41069   0.00000  Uiso   1.00
C207   C     0.47839   0.94222   0.41969   0.00000  Uiso   1.00
H208   H     0.68286   0.93817   0.15908   0.00000  Uiso   1.00
H209   H     0.67242   0.83254   0.03523   0.00000  Uiso   1.00
H210   H     0.79731   0.94037   0.18388   0.00000  Uiso   1.00
H211   H     0.58657   0.06290   0.24131   0.00000  Uiso   1.00
H212   H     0.64875   0.68185   0.92448   0.00000  Uiso   1.00
H213   H     0.91209   0.90924   0.23794   0.00000  Uiso   1.00
H214   H     0.46770   0.16764   0.35904   0.00000  Uiso   1.00
H215   H     0.58957   0.67956   0.36385   0.00000  Uiso   1.00
H216   H     0.57400   0.55973   0.25123   0.00000  Uiso   1.00
H217   H     0.69890   0.66757   0.39988   0.00000  Uiso   1.00
H218   H     0.48816   0.79010   0.45731   0.00000  Uiso   1.00
H219   H     0.56888   0.46043   0.09979   0.00000  Uiso   1.00
H220   H     0.83222   0.68783   0.41326   0.00000  Uiso   1.00
H221   H     0.38783   0.94622   0.53436   0.00000  Uiso   1.00
O222   O     0.60028   0.49697   0.93435   0.00000  Uiso   1.00
O223   O     0.94576   0.79532   0.34562   0.00000  Uiso   1.00
O224   O     0.36274   0.13432   0.50449   0.00000  Uiso   1.00
N225   N     0.63208   0.64619   0.98120   0.00000  Uiso   1.00
N226   N     0.87829   0.85878   0.27426   0.00000  Uiso   1.00
N227   N     0.46283   0.10036   0.38749   0.00000  Uiso   1.00
N228   N     0.58910   0.52705   0.07553   0.00000  Uiso   1.00
N229   N     0.83531   0.73964   0.36860   0.00000  Uiso   1.00
N230   N     0.41986   0.98122   0.48182   0.00000  Uiso   1.00
C231   C     0.16149   0.37892   0.20599   0.00000  Uiso   1.00
C232   C     0.14287   0.28567   0.16710   0.00000  Uiso   1.00
C233   C     0.15116   0.27363   0.08184   0.00000  Uiso   1.00
C234   C     0.13101   0.18268   0.05894   0.00000  Uiso   1.00
C235   C     0.10631   0.04944   0.98937   0.00000  Uiso   1.00
C236   C     0.21073   0.34425   0.24786   0.00000  Uiso   1.00
C237   C     0.27608   0.38147   0.23051   0.00000  Uiso   1.00
C238   C     0.31305   0.33984   0.27561   0.00000  Uiso   1.00
C239   C     0.39369   0.29760   0.33146   0.00000  Uiso   1.00
C240   C     0.09623   0.41082   0.27905   0.00000  Uiso   1.00
C241   C     0.06531   0.50403   0.28795   0.00000  Uiso   1.00
C242   C     0.00589   0.51846   0.35933   0.00000  Uiso   1.00
C243   C     0.90874   0.57958   0.46362   0.00000  Uiso   1.00
C244   C     0.11094   0.23881   0.31694   0.00000  Uiso   1.00
C245   C     0.11542   0.20957   0.22736   0.00000  Uiso   1.00
C246   C     0.09524   0.11861   0.20458   0.00000  Uiso   1.00
C247   C     0.10351   0.10644   0.11931   0.00000  Uiso   1.00
C248   C     0.18328   0.26815   0.30811   0.00000  Uiso   1.00
C249   C     0.22016   0.22646   0.35325   0.00000  Uiso   1.00
C250   C     0.28555   0.26360   0.33598   0.00000  Uiso   1.00
C251   C     0.06877   0.33472   0.33931   0.00000  Uiso   1.00
C252   C     0.00939   0.34901   0.41069   0.00000  Uiso   1.00
C253   C     0.97839   0.44222   0.41969   0.00000  Uiso   1.00
H254   H     0.18286   0.43817   0.15908   0.00000  Uiso   1.00
H255   H     0.17242   0.33254   0.03523   0.00000  Uiso   1.00
H256   H     0.29731   0.44037   0.18388   0.00000  Uiso   1.00
H257   H     0.08657   0.56290   0.24131   0.00000  Uiso   1.00
H258   H     0.14875   0.18185   0.92448   0.00000  Uiso   1.00
H259   H     0.41209   0.40924   0.23794   0.00000  Uiso   1.00
H260   H     0.96770   0.66764   0.35904   0.00000  Uiso   1.00
H261   H     0.08957   0.17956   0.36385   0.00000  Uiso   1.00
H262   H     0.07400   0.05973   0.25123   0.00000  Uiso   1.00
H263   H     0.19890   0.16757   0.39988   0.00000  Uiso   1.00
H264   H     0.98816   0.29010   0.45731   0.00000  Uiso   1.00
H265   H     0.06888   0.96043   0.09979   0.00000  Uiso   1.00
H266   H     0.33222   0.18783   0.41326   0.00000  Uiso   1.00
H267   H     0.88783   0.44622   0.53436   0.00000  Uiso   1.00
O268   O     0.10028   0.99697   0.93435   0.00000  Uiso   1.00
O269   O     0.44576   0.29532   0.34562   0.00000  Uiso   1.00
O270   O     0.86274   0.63432   0.50449   0.00000  Uiso   1.00
N271   N     0.13208   0.14619   0.98120   0.00000  Uiso   1.00
N272   N     0.37829   0.35878   0.27426   0.00000  Uiso   1.00
N273   N     0.96283   0.60036   0.38749   0.00000  Uiso   1.00
N274   N     0.08910   0.02705   0.07553   0.00000  Uiso   1.00
N275   N     0.33531   0.23964   0.36860   0.00000  Uiso   1.00
N276   N     0.91985   0.48122   0.48182   0.00000  Uiso   1.00
C277   C     0.33851   0.87892   0.29401   0.00000  Uiso   1.00
C278   C     0.35713   0.78567   0.33290   0.00000  Uiso   1.00
C279   C     0.34884   0.77363   0.41816   0.00000  Uiso   1.00
C280   C     0.36899   0.68268   0.44106   0.00000  Uiso   1.00
C281   C     0.39369   0.54944   0.51063   0.00000  Uiso   1.00
C282   C     0.28927   0.84425   0.25214   0.00000  Uiso   1.00
C283   C     0.22392   0.88147   0.26949   0.00000  Uiso   1.00
C284   C     0.18695   0.83984   0.22439   0.00000  Uiso   1.00
C285   C     0.10631   0.79760   0.16854   0.00000  Uiso   1.00
C286   C     0.40377   0.91082   0.22095   0.00000  Uiso   1.00
C287   C     0.43469   0.00403   0.21205   0.00000  Uiso   1.00
C288   C     0.49411   0.01846   0.14067   0.00000  Uiso   1.00
C289   C     0.59126   0.07958   0.03638   0.00000  Uiso   1.00
C290   C     0.38906   0.73881   0.18306   0.00000  Uiso   1.00
C291   C     0.38458   0.70957   0.27264   0.00000  Uiso   1.00
C292   C     0.40476   0.61861   0.29542   0.00000  Uiso   1.00
C293   C     0.39649   0.60644   0.38069   0.00000  Uiso   1.00
C294   C     0.31672   0.76815   0.19189   0.00000  Uiso   1.00
C295   C     0.27984   0.72646   0.14675   0.00000  Uiso   1.00
C296   C     0.21445   0.76360   0.16402   0.00000  Uiso   1.00
C297   C     0.43123   0.83472   0.16069   0.00000  Uiso   1.00
C298   C     0.49061   0.84901   0.08931   0.00000  Uiso   1.00
C299   C     0.52161   0.94222   0.08031   0.00000  Uiso   1.00
H300   H     0.31714   0.93817   0.34092   0.00000  Uiso   1.00
H301   H     0.32758   0.83254   0.46477   0.00000  Uiso   1.00
H302   H     0.20269   0.94037   0.31612   0.00000  Uiso   1.00
H303   H     0.41343   0.06290   0.25869   0.00000  Uiso   1.00
H304   H     0.35125   0.68185   0.57552   0.00000  Uiso   1.00
H305   H     0.08791   0.90924   0.26206   0.00000  Uiso   1.00
H306   H     0.53230   0.16764   0.14096   0.00000  Uiso   1.00
H307   H     0.41043   0.67956   0.13615   0.00000  Uiso   1.00
H308   H     0.42600   0.55973   0.24877   0.00000  Uiso   1.00
H309   H     0.30110   0.66757   0.10012   0.00000  Uiso   1.00
H310   H     0.51184   0.79010   0.04269   0.00000  Uiso   1.00
H311   H     0.43112   0.46043   0.40021   0.00000  Uiso   1.00
H312   H     0.16778   0.68783   0.08674   0.00000  Uiso   1.00
H313   H     0.61217   0.94622   0.96564   0.00000  Uiso   1.00
O314   O     0.39972   0.49697   0.56565   0.00000  Uiso   1.00
O315   O     0.05424   0.79532   0.15438   0.00000  Uiso   1.00
O316   O     0.63726   0.13432   0.99551   0.00000  Uiso   1.00
N317   N     0.36792   0.64619   0.51880   0.00000  Uiso   1.00
N318   N     0.12171   0.85878   0.22574   0.00000  Uiso   1.00
N319   N     0.53717   0.10036   0.11251   0.00000  Uiso   1.00
N320   N     0.41090   0.52705   0.42447   0.00000  Uiso   1.00
N321   N     0.16469   0.73964   0.13140   0.00000  Uiso   1.00
N322   N     0.58014   0.98122   0.01818   0.00000  Uiso   1.00
C323   C     0.83851   0.37892   0.29401   0.00000  Uiso   1.00
C324   C     0.85713   0.28567   0.33290   0.00000  Uiso   1.00
C325   C     0.84884   0.27363   0.41816   0.00000  Uiso   1.00
C326   C     0.86899   0.18268   0.44106   0.00000  Uiso   1.00
C327   C     0.89369   0.04944   0.51063   0.00000  Uiso   1.00
C328   C     0.78927   0.34425   0.25214   0.00000  Uiso   1.00
C329   C     0.72392   0.38147   0.26949   0.00000  Uiso   1.00
C330   C     0.68695   0.33984   0.22439   0.00000  Uiso   1.00
C331   C     0.60631   0.29760   0.16854   0.00000  Uiso   1.00
C332   C     0.90377   0.41082   0.22095   0.00000  Uiso   1.00
C333   C     0.93469   0.50403   0.21205   0.00000  Uiso   1.00
C334   C     0.99411   0.51846   0.14067   0.00000  Uiso   1.00
C335   C     0.09126   0.57958   0.03638   0.00000  Uiso   1.00
C336   C     0.88906   0.23881   0.18306   0.00000  Uiso   1.00
C337   C     0.88458   0.20957   0.27264   0.00000  Uiso   1.00
C338   C     0.90476   0.11861   0.29542   0.00000  Uiso   1.00
C339   C     0.89649   0.10644   0.38069   0.00000  Uiso   1.00
C340   C     0.81672   0.26815   0.19189   0.00000  Uiso   1.00
C341   C     0.77984   0.22646   0.14675   0.00000  Uiso   1.00
C342   C     0.71445   0.26360   0.16402   0.00000  Uiso   1.00
C343   C     0.93123   0.33472   0.16069   0.00000  Uiso   1.00
C344   C     0.99061   0.34901   0.08931   0.00000  Uiso   1.00
C345   C     0.02161   0.44222   0.08031   0.00000  Uiso   1.00
H346   H     0.81714   0.43817   0.34092   0.00000  Uiso   1.00
H347   H     0.82758   0.33254   0.46477   0.00000  Uiso   1.00
H348   H     0.70269   0.44037   0.31612   0.00000  Uiso   1.00
H349   H     0.91343   0.56290   0.25869   0.00000  Uiso   1.00
H350   H     0.85125   0.18185   0.57552   0.00000  Uiso   1.00
H351   H     0.58791   0.40924   0.26206   0.00000  Uiso   1.00
H352   H     0.03230   0.66764   0.14096   0.00000  Uiso   1.00
H353   H     0.91043   0.17956   0.13615   0.00000  Uiso   1.00
H354   H     0.92600   0.05973   0.24877   0.00000  Uiso   1.00
H355   H     0.80110   0.16757   0.10012   0.00000  Uiso   1.00
H356   H     0.01184   0.29010   0.04269   0.00000  Uiso   1.00
H357   H     0.93112   0.96043   0.40021   0.00000  Uiso   1.00
H358   H     0.66778   0.18783   0.08674   0.00000  Uiso   1.00
H359   H     0.11217   0.44622   0.96564   0.00000  Uiso   1.00
O360   O     0.89972   0.99697   0.56565   0.00000  Uiso   1.00
O361   O     0.55424   0.29532   0.15438   0.00000  Uiso   1.00
O362   O     0.13726   0.63432   0.99551   0.00000  Uiso   1.00
N363   N     0.86792   0.14619   0.51880   0.00000  Uiso   1.00
N364   N     0.62171   0.35878   0.22574   0.00000  Uiso   1.00
N365   N     0.03717   0.60036   0.11251   0.00000  Uiso   1.00
N366   N     0.91090   0.02705   0.42447   0.00000  Uiso   1.00
N367   N     0.66469   0.23964   0.13140   0.00000  Uiso   1.00
N368   N     0.08014   0.48122   0.01818   0.00000  Uiso   1.00
