data_job_04065
_audit_creation_date              2018-12-19
_audit_creation_method            'Materials Studio'
_symmetry_space_group_name_H-M    'P1'
_symmetry_Int_Tables_number       1
_symmetry_cell_setting            triclinic
loop_
_symmetry_equiv_pos_as_xyz
  x,y,z
_cell_length_a                    31.3852
_cell_length_b                    11.5963
_cell_length_c                    13.9423
_cell_angle_alpha                 90.0000
_cell_angle_beta                  82.5954
_cell_angle_gamma                 90.0000
loop_
_atom_site_label
_atom_site_type_symbol
_atom_site_fract_x
_atom_site_fract_y
_atom_site_fract_z
_atom_site_U_iso_or_equiv
_atom_site_adp_type
_atom_site_occupancy
C1     C     0.13119   0.68000   0.53739   0.00000  Uiso   1.00
C2     C     0.11195   0.77413   0.60614   0.00000  Uiso   1.00
C3     C     0.10357   0.88671   0.58047   0.00000  Uiso   1.00
C4     C     0.08592   0.95968   0.65400   0.00000  Uiso   1.00
C5     C     0.05743   0.11168   0.74619   0.00000  Uiso   1.00
C6     C     0.17111   0.63716   0.57825   0.00000  Uiso   1.00
C7     C     0.21248   0.63457   0.52911   0.00000  Uiso   1.00
C8     C     0.24463   0.59224   0.57917   0.00000  Uiso   1.00
C9     C     0.30798   0.53152   0.62803   0.00000  Uiso   1.00
C10    C     0.09924   0.58035   0.54857   0.00000  Uiso   1.00
C11    C     0.08017   0.52996   0.47447   0.00000  Uiso   1.00
C12    C     0.05181   0.43976   0.49953   0.00000  Uiso   1.00
C13    C     0.00357   0.29083   0.50231   0.00000  Uiso   1.00
C14    C     0.11475   0.60941   0.71364   0.00000  Uiso   1.00
C15    C     0.10302   0.73578   0.70187   0.00000  Uiso   1.00
C16    C     0.08538   0.80860   0.77546   0.00000  Uiso   1.00
C17    C     0.07697   0.92127   0.74990   0.00000  Uiso   1.00
C18    C     0.16218   0.59882   0.67398   0.00000  Uiso   1.00
C19    C     0.19428   0.55647   0.72411   0.00000  Uiso   1.00
C20    C     0.23568   0.55383   0.67507   0.00000  Uiso   1.00
C21    C     0.09030   0.54200   0.64430   0.00000  Uiso   1.00
C22    C     0.06197   0.45186   0.66947   0.00000  Uiso   1.00
C23    C     0.04287   0.40135   0.59543   0.00000  Uiso   1.00
H24    H     0.13815   0.70985   0.46287   0.00000  Uiso   1.00
H25    H     0.11049   0.91635   0.50638   0.00000  Uiso   1.00
H26    H     0.21938   0.66424   0.45503   0.00000  Uiso   1.00
H27    H     0.08709   0.55965   0.40040   0.00000  Uiso   1.00
H28    H     0.07591   0.12839   0.59684   0.00000  Uiso   1.00
H29    H     0.30550   0.59678   0.48857   0.00000  Uiso   1.00
H30    H     0.02654   0.37622   0.37337   0.00000  Uiso   1.00
H31    H     0.10779   0.57955   0.78817   0.00000  Uiso   1.00
H32    H     0.07847   0.77891   0.84953   0.00000  Uiso   1.00
H33    H     0.18736   0.52680   0.79819   0.00000  Uiso   1.00
H34    H     0.05507   0.42221   0.74356   0.00000  Uiso   1.00
H35    H     0.04992   0.01684   0.87536   0.00000  Uiso   1.00
H36    H     0.27951   0.48522   0.76708   0.00000  Uiso   1.00
H37    H     0.00056   0.26467   0.65188   0.00000  Uiso   1.00
O38    O     0.04419   0.20612   0.77060   0.00000  Uiso   1.00
O39    O     0.34540   0.50864   0.62854   0.00000  Uiso   1.00
O40    O     0.97942   0.21928   0.47740   0.00000  Uiso   1.00
N41    N     0.07381   0.07477   0.65397   0.00000  Uiso   1.00
N42    N     0.28846   0.57776   0.55274   0.00000  Uiso   1.00
N43    N     0.02767   0.37154   0.44503   0.00000  Uiso   1.00
N44    N     0.05983   0.01475   0.80383   0.00000  Uiso   1.00
N45    N     0.27448   0.51774   0.70261   0.00000  Uiso   1.00
N46    N     0.01369   0.31151   0.59490   0.00000  Uiso   1.00
C47    C     0.63119   0.18000   0.53739   0.00000  Uiso   1.00
C48    C     0.61195   0.27413   0.60614   0.00000  Uiso   1.00
C49    C     0.60357   0.38671   0.58047   0.00000  Uiso   1.00
C50    C     0.58592   0.45968   0.65400   0.00000  Uiso   1.00
C51    C     0.55743   0.61168   0.74619   0.00000  Uiso   1.00
C52    C     0.67111   0.13716   0.57825   0.00000  Uiso   1.00
C53    C     0.71248   0.13457   0.52911   0.00000  Uiso   1.00
C54    C     0.74463   0.09224   0.57917   0.00000  Uiso   1.00
C55    C     0.80798   0.03152   0.62803   0.00000  Uiso   1.00
C56    C     0.59924   0.08035   0.54857   0.00000  Uiso   1.00
C57    C     0.58017   0.02996   0.47447   0.00000  Uiso   1.00
C58    C     0.55181   0.93976   0.49953   0.00000  Uiso   1.00
C59    C     0.50357   0.79083   0.50231   0.00000  Uiso   1.00
C60    C     0.61475   0.10941   0.71364   0.00000  Uiso   1.00
C61    C     0.60302   0.23578   0.70187   0.00000  Uiso   1.00
C62    C     0.58538   0.30860   0.77546   0.00000  Uiso   1.00
C63    C     0.57697   0.42127   0.74990   0.00000  Uiso   1.00
C64    C     0.66218   0.09882   0.67398   0.00000  Uiso   1.00
C65    C     0.69428   0.05647   0.72411   0.00000  Uiso   1.00
C66    C     0.73568   0.05383   0.67507   0.00000  Uiso   1.00
C67    C     0.59030   0.04200   0.64430   0.00000  Uiso   1.00
C68    C     0.56197   0.95186   0.66947   0.00000  Uiso   1.00
C69    C     0.54287   0.90135   0.59543   0.00000  Uiso   1.00
H70    H     0.63815   0.20985   0.46287   0.00000  Uiso   1.00
H71    H     0.61049   0.41635   0.50638   0.00000  Uiso   1.00
H72    H     0.71938   0.16424   0.45503   0.00000  Uiso   1.00
H73    H     0.58709   0.05965   0.40040   0.00000  Uiso   1.00
H74    H     0.57591   0.62839   0.59684   0.00000  Uiso   1.00
H75    H     0.80550   0.09678   0.48857   0.00000  Uiso   1.00
H76    H     0.52654   0.87622   0.37337   0.00000  Uiso   1.00
H77    H     0.60779   0.07955   0.78817   0.00000  Uiso   1.00
H78    H     0.57847   0.27891   0.84953   0.00000  Uiso   1.00
H79    H     0.68736   0.02680   0.79819   0.00000  Uiso   1.00
H80    H     0.55507   0.92221   0.74356   0.00000  Uiso   1.00
H81    H     0.54992   0.51684   0.87536   0.00000  Uiso   1.00
H82    H     0.77951   0.98522   0.76708   0.00000  Uiso   1.00
H83    H     0.50056   0.76467   0.65188   0.00000  Uiso   1.00
O84    O     0.54419   0.70612   0.77060   0.00000  Uiso   1.00
O85    O     0.84540   0.00864   0.62854   0.00000  Uiso   1.00
O86    O     0.47942   0.71928   0.47740   0.00000  Uiso   1.00
N87    N     0.57381   0.57477   0.65397   0.00000  Uiso   1.00
N88    N     0.78846   0.07776   0.55274   0.00000  Uiso   1.00
N89    N     0.52767   0.87154   0.44503   0.00000  Uiso   1.00
N90    N     0.55983   0.51475   0.80383   0.00000  Uiso   1.00
N91    N     0.77448   0.01774   0.70261   0.00000  Uiso   1.00
N92    N     0.51369   0.81151   0.59490   0.00000  Uiso   1.00
C93    C     0.86881   0.68000   0.96261   0.00000  Uiso   1.00
C94    C     0.88805   0.77413   0.89386   0.00000  Uiso   1.00
C95    C     0.89643   0.88671   0.91953   0.00000  Uiso   1.00
C96    C     0.91408   0.95968   0.84600   0.00000  Uiso   1.00
C97    C     0.94257   0.11168   0.75381   0.00000  Uiso   1.00
C98    C     0.82889   0.63716   0.92175   0.00000  Uiso   1.00
C99    C     0.78752   0.63457   0.97089   0.00000  Uiso   1.00
C100   C     0.75537   0.59224   0.92083   0.00000  Uiso   1.00
C101   C     0.69202   0.53152   0.87197   0.00000  Uiso   1.00
C102   C     0.90076   0.58035   0.95143   0.00000  Uiso   1.00
C103   C     0.91983   0.52996   0.02553   0.00000  Uiso   1.00
C104   C     0.94819   0.43976   0.00047   0.00000  Uiso   1.00
C105   C     0.99643   0.29083   0.99769   0.00000  Uiso   1.00
C106   C     0.88525   0.60941   0.78636   0.00000  Uiso   1.00
C107   C     0.89698   0.73578   0.79813   0.00000  Uiso   1.00
C108   C     0.91462   0.80860   0.72454   0.00000  Uiso   1.00
C109   C     0.92303   0.92127   0.75010   0.00000  Uiso   1.00
C110   C     0.83782   0.59882   0.82602   0.00000  Uiso   1.00
C111   C     0.80572   0.55647   0.77589   0.00000  Uiso   1.00
C112   C     0.76432   0.55383   0.82493   0.00000  Uiso   1.00
C113   C     0.90970   0.54200   0.85570   0.00000  Uiso   1.00
C114   C     0.93803   0.45186   0.83053   0.00000  Uiso   1.00
C115   C     0.95713   0.40135   0.90457   0.00000  Uiso   1.00
H116   H     0.86185   0.70985   0.03713   0.00000  Uiso   1.00
H117   H     0.88951   0.91635   0.99362   0.00000  Uiso   1.00
H118   H     0.78062   0.66424   0.04497   0.00000  Uiso   1.00
H119   H     0.91291   0.55965   0.09960   0.00000  Uiso   1.00
H120   H     0.92409   0.12839   0.90316   0.00000  Uiso   1.00
H121   H     0.69450   0.59678   0.01143   0.00000  Uiso   1.00
H122   H     0.97346   0.37622   0.12663   0.00000  Uiso   1.00
H123   H     0.89221   0.57955   0.71183   0.00000  Uiso   1.00
H124   H     0.92153   0.77891   0.65047   0.00000  Uiso   1.00
H125   H     0.81264   0.52680   0.70181   0.00000  Uiso   1.00
H126   H     0.94493   0.42221   0.75644   0.00000  Uiso   1.00
H127   H     0.95008   0.01684   0.62464   0.00000  Uiso   1.00
H128   H     0.72049   0.48522   0.73292   0.00000  Uiso   1.00
H129   H     0.99944   0.26467   0.84812   0.00000  Uiso   1.00
O130   O     0.95581   0.20612   0.72940   0.00000  Uiso   1.00
O131   O     0.65460   0.50864   0.87146   0.00000  Uiso   1.00
O132   O     0.02058   0.21928   0.02260   0.00000  Uiso   1.00
N133   N     0.92619   0.07477   0.84603   0.00000  Uiso   1.00
N134   N     0.71154   0.57776   0.94726   0.00000  Uiso   1.00
N135   N     0.97233   0.37154   0.05497   0.00000  Uiso   1.00
N136   N     0.94017   0.01475   0.69617   0.00000  Uiso   1.00
N137   N     0.72552   0.51774   0.79739   0.00000  Uiso   1.00
N138   N     0.98631   0.31151   0.90510   0.00000  Uiso   1.00
C139   C     0.36881   0.18000   0.96261   0.00000  Uiso   1.00
C140   C     0.38805   0.27413   0.89386   0.00000  Uiso   1.00
C141   C     0.39643   0.38671   0.91953   0.00000  Uiso   1.00
C142   C     0.41408   0.45968   0.84600   0.00000  Uiso   1.00
C143   C     0.44257   0.61168   0.75381   0.00000  Uiso   1.00
C144   C     0.32889   0.13716   0.92175   0.00000  Uiso   1.00
C145   C     0.28752   0.13457   0.97089   0.00000  Uiso   1.00
C146   C     0.25537   0.09224   0.92083   0.00000  Uiso   1.00
C147   C     0.19202   0.03152   0.87197   0.00000  Uiso   1.00
C148   C     0.40076   0.08035   0.95143   0.00000  Uiso   1.00
C149   C     0.41983   0.02996   0.02553   0.00000  Uiso   1.00
C150   C     0.44819   0.93976   0.00047   0.00000  Uiso   1.00
C151   C     0.49643   0.79083   0.99769   0.00000  Uiso   1.00
C152   C     0.38525   0.10941   0.78636   0.00000  Uiso   1.00
C153   C     0.39698   0.23578   0.79813   0.00000  Uiso   1.00
C154   C     0.41462   0.30860   0.72454   0.00000  Uiso   1.00
C155   C     0.42303   0.42127   0.75010   0.00000  Uiso   1.00
C156   C     0.33782   0.09882   0.82602   0.00000  Uiso   1.00
C157   C     0.30572   0.05647   0.77589   0.00000  Uiso   1.00
C158   C     0.26432   0.05383   0.82493   0.00000  Uiso   1.00
C159   C     0.40970   0.04200   0.85570   0.00000  Uiso   1.00
C160   C     0.43803   0.95186   0.83053   0.00000  Uiso   1.00
C161   C     0.45713   0.90135   0.90457   0.00000  Uiso   1.00
H162   H     0.36185   0.20985   0.03713   0.00000  Uiso   1.00
H163   H     0.38951   0.41635   0.99362   0.00000  Uiso   1.00
H164   H     0.28062   0.16424   0.04497   0.00000  Uiso   1.00
H165   H     0.41291   0.05965   0.09960   0.00000  Uiso   1.00
H166   H     0.42409   0.62839   0.90316   0.00000  Uiso   1.00
H167   H     0.19450   0.09678   0.01143   0.00000  Uiso   1.00
H168   H     0.47346   0.87622   0.12663   0.00000  Uiso   1.00
H169   H     0.39221   0.07955   0.71183   0.00000  Uiso   1.00
H170   H     0.42153   0.27891   0.65047   0.00000  Uiso   1.00
H171   H     0.31264   0.02680   0.70181   0.00000  Uiso   1.00
H172   H     0.44493   0.92221   0.75644   0.00000  Uiso   1.00
H173   H     0.45008   0.51684   0.62464   0.00000  Uiso   1.00
H174   H     0.22049   0.98522   0.73292   0.00000  Uiso   1.00
H175   H     0.49944   0.76467   0.84812   0.00000  Uiso   1.00
O176   O     0.45581   0.70612   0.72940   0.00000  Uiso   1.00
O177   O     0.15460   0.00864   0.87146   0.00000  Uiso   1.00
O178   O     0.52058   0.71928   0.02260   0.00000  Uiso   1.00
N179   N     0.42619   0.57477   0.84603   0.00000  Uiso   1.00
N180   N     0.21154   0.07776   0.94726   0.00000  Uiso   1.00
N181   N     0.47233   0.87154   0.05497   0.00000  Uiso   1.00
N182   N     0.44017   0.51475   0.69617   0.00000  Uiso   1.00
N183   N     0.22552   0.01774   0.79739   0.00000  Uiso   1.00
N184   N     0.48631   0.81151   0.90510   0.00000  Uiso   1.00
C185   C     0.86881   0.32000   0.46261   0.00000  Uiso   1.00
C186   C     0.88805   0.22587   0.39386   0.00000  Uiso   1.00
C187   C     0.89643   0.11329   0.41953   0.00000  Uiso   1.00
C188   C     0.91408   0.04032   0.34600   0.00000  Uiso   1.00
C189   C     0.94257   0.88832   0.25381   0.00000  Uiso   1.00
C190   C     0.82889   0.36284   0.42175   0.00000  Uiso   1.00
C191   C     0.78752   0.36543   0.47089   0.00000  Uiso   1.00
C192   C     0.75537   0.40776   0.42083   0.00000  Uiso   1.00
C193   C     0.69202   0.46848   0.37197   0.00000  Uiso   1.00
C194   C     0.90076   0.41965   0.45143   0.00000  Uiso   1.00
C195   C     0.91983   0.47004   0.52553   0.00000  Uiso   1.00
C196   C     0.94819   0.56024   0.50047   0.00000  Uiso   1.00
C197   C     0.99643   0.70917   0.49769   0.00000  Uiso   1.00
C198   C     0.88525   0.39059   0.28636   0.00000  Uiso   1.00
C199   C     0.89698   0.26422   0.29813   0.00000  Uiso   1.00
C200   C     0.91462   0.19140   0.22454   0.00000  Uiso   1.00
C201   C     0.92303   0.07873   0.25010   0.00000  Uiso   1.00
C202   C     0.83782   0.40118   0.32602   0.00000  Uiso   1.00
C203   C     0.80572   0.44353   0.27589   0.00000  Uiso   1.00
C204   C     0.76432   0.44617   0.32493   0.00000  Uiso   1.00
C205   C     0.90970   0.45800   0.35570   0.00000  Uiso   1.00
C206   C     0.93803   0.54814   0.33053   0.00000  Uiso   1.00
C207   C     0.95713   0.59865   0.40457   0.00000  Uiso   1.00
H208   H     0.86185   0.29015   0.53713   0.00000  Uiso   1.00
H209   H     0.88951   0.08365   0.49362   0.00000  Uiso   1.00
H210   H     0.78062   0.33576   0.54497   0.00000  Uiso   1.00
H211   H     0.91291   0.44035   0.59960   0.00000  Uiso   1.00
H212   H     0.92409   0.87161   0.40316   0.00000  Uiso   1.00
H213   H     0.69450   0.40322   0.51143   0.00000  Uiso   1.00
H214   H     0.97346   0.62378   0.62663   0.00000  Uiso   1.00
H215   H     0.89221   0.42045   0.21183   0.00000  Uiso   1.00
H216   H     0.92153   0.22109   0.15047   0.00000  Uiso   1.00
H217   H     0.81264   0.47320   0.20181   0.00000  Uiso   1.00
H218   H     0.94493   0.57779   0.25644   0.00000  Uiso   1.00
H219   H     0.95008   0.98316   0.12464   0.00000  Uiso   1.00
H220   H     0.72049   0.51478   0.23292   0.00000  Uiso   1.00
H221   H     0.99944   0.73533   0.34812   0.00000  Uiso   1.00
O222   O     0.95581   0.79388   0.22940   0.00000  Uiso   1.00
O223   O     0.65460   0.49136   0.37146   0.00000  Uiso   1.00
O224   O     0.02058   0.78072   0.52260   0.00000  Uiso   1.00
N225   N     0.92619   0.92523   0.34603   0.00000  Uiso   1.00
N226   N     0.71154   0.42224   0.44726   0.00000  Uiso   1.00
N227   N     0.97233   0.62846   0.55497   0.00000  Uiso   1.00
N228   N     0.94017   0.98525   0.19617   0.00000  Uiso   1.00
N229   N     0.72552   0.48226   0.29739   0.00000  Uiso   1.00
N230   N     0.98631   0.68849   0.40510   0.00000  Uiso   1.00
C231   C     0.36881   0.82000   0.46261   0.00000  Uiso   1.00
C232   C     0.38805   0.72587   0.39386   0.00000  Uiso   1.00
C233   C     0.39643   0.61329   0.41953   0.00000  Uiso   1.00
C234   C     0.41408   0.54032   0.34600   0.00000  Uiso   1.00
C235   C     0.44257   0.38832   0.25381   0.00000  Uiso   1.00
C236   C     0.32889   0.86284   0.42175   0.00000  Uiso   1.00
C237   C     0.28752   0.86543   0.47089   0.00000  Uiso   1.00
C238   C     0.25537   0.90776   0.42083   0.00000  Uiso   1.00
C239   C     0.19202   0.96848   0.37197   0.00000  Uiso   1.00
C240   C     0.40076   0.91965   0.45143   0.00000  Uiso   1.00
C241   C     0.41983   0.97004   0.52553   0.00000  Uiso   1.00
C242   C     0.44819   0.06024   0.50047   0.00000  Uiso   1.00
C243   C     0.49643   0.20917   0.49769   0.00000  Uiso   1.00
C244   C     0.38525   0.89059   0.28636   0.00000  Uiso   1.00
C245   C     0.39698   0.76422   0.29813   0.00000  Uiso   1.00
C246   C     0.41462   0.69140   0.22454   0.00000  Uiso   1.00
C247   C     0.42303   0.57873   0.25010   0.00000  Uiso   1.00
C248   C     0.33782   0.90118   0.32602   0.00000  Uiso   1.00
C249   C     0.30572   0.94353   0.27589   0.00000  Uiso   1.00
C250   C     0.26432   0.94617   0.32493   0.00000  Uiso   1.00
C251   C     0.40970   0.95800   0.35570   0.00000  Uiso   1.00
C252   C     0.43803   0.04814   0.33053   0.00000  Uiso   1.00
C253   C     0.45713   0.09865   0.40457   0.00000  Uiso   1.00
H254   H     0.36185   0.79015   0.53713   0.00000  Uiso   1.00
H255   H     0.38951   0.58365   0.49362   0.00000  Uiso   1.00
H256   H     0.28062   0.83576   0.54497   0.00000  Uiso   1.00
H257   H     0.41291   0.94035   0.59960   0.00000  Uiso   1.00
H258   H     0.42409   0.37161   0.40316   0.00000  Uiso   1.00
H259   H     0.19450   0.90322   0.51143   0.00000  Uiso   1.00
H260   H     0.47346   0.12378   0.62663   0.00000  Uiso   1.00
H261   H     0.39221   0.92045   0.21183   0.00000  Uiso   1.00
H262   H     0.42153   0.72109   0.15047   0.00000  Uiso   1.00
H263   H     0.31264   0.97320   0.20181   0.00000  Uiso   1.00
H264   H     0.44493   0.07779   0.25644   0.00000  Uiso   1.00
H265   H     0.45008   0.48316   0.12464   0.00000  Uiso   1.00
H266   H     0.22049   0.01478   0.23292   0.00000  Uiso   1.00
H267   H     0.49944   0.23533   0.34812   0.00000  Uiso   1.00
O268   O     0.45581   0.29388   0.22940   0.00000  Uiso   1.00
O269   O     0.15460   0.99136   0.37146   0.00000  Uiso   1.00
O270   O     0.52058   0.28072   0.52260   0.00000  Uiso   1.00
N271   N     0.42619   0.42523   0.34603   0.00000  Uiso   1.00
N272   N     0.21154   0.92224   0.44726   0.00000  Uiso   1.00
N273   N     0.47233   0.12846   0.55497   0.00000  Uiso   1.00
N274   N     0.44017   0.48525   0.19617   0.00000  Uiso   1.00
N275   N     0.22552   0.98226   0.29739   0.00000  Uiso   1.00
N276   N     0.48631   0.18849   0.40510   0.00000  Uiso   1.00
C277   C     0.13119   0.32000   0.03739   0.00000  Uiso   1.00
C278   C     0.11195   0.22587   0.10614   0.00000  Uiso   1.00
C279   C     0.10357   0.11329   0.08047   0.00000  Uiso   1.00
C280   C     0.08592   0.04032   0.15400   0.00000  Uiso   1.00
C281   C     0.05743   0.88832   0.24619   0.00000  Uiso   1.00
C282   C     0.17111   0.36284   0.07825   0.00000  Uiso   1.00
C283   C     0.21248   0.36543   0.02911   0.00000  Uiso   1.00
C284   C     0.24463   0.40776   0.07917   0.00000  Uiso   1.00
C285   C     0.30798   0.46848   0.12803   0.00000  Uiso   1.00
C286   C     0.09924   0.41965   0.04857   0.00000  Uiso   1.00
C287   C     0.08017   0.47004   0.97447   0.00000  Uiso   1.00
C288   C     0.05181   0.56024   0.99953   0.00000  Uiso   1.00
C289   C     0.00357   0.70917   0.00231   0.00000  Uiso   1.00
C290   C     0.11475   0.39059   0.21364   0.00000  Uiso   1.00
C291   C     0.10302   0.26422   0.20187   0.00000  Uiso   1.00
C292   C     0.08538   0.19140   0.27546   0.00000  Uiso   1.00
C293   C     0.07697   0.07873   0.24990   0.00000  Uiso   1.00
C294   C     0.16218   0.40118   0.17398   0.00000  Uiso   1.00
C295   C     0.19428   0.44353   0.22411   0.00000  Uiso   1.00
C296   C     0.23568   0.44617   0.17507   0.00000  Uiso   1.00
C297   C     0.09030   0.45800   0.14430   0.00000  Uiso   1.00
C298   C     0.06197   0.54814   0.16947   0.00000  Uiso   1.00
C299   C     0.04287   0.59865   0.09543   0.00000  Uiso   1.00
H300   H     0.13815   0.29015   0.96287   0.00000  Uiso   1.00
H301   H     0.11049   0.08365   0.00638   0.00000  Uiso   1.00
H302   H     0.21938   0.33576   0.95503   0.00000  Uiso   1.00
H303   H     0.08709   0.44035   0.90040   0.00000  Uiso   1.00
H304   H     0.07591   0.87161   0.09684   0.00000  Uiso   1.00
H305   H     0.30550   0.40322   0.98857   0.00000  Uiso   1.00
H306   H     0.02654   0.62378   0.87337   0.00000  Uiso   1.00
H307   H     0.10779   0.42045   0.28817   0.00000  Uiso   1.00
H308   H     0.07847   0.22109   0.34953   0.00000  Uiso   1.00
H309   H     0.18736   0.47320   0.29819   0.00000  Uiso   1.00
H310   H     0.05507   0.57779   0.24356   0.00000  Uiso   1.00
H311   H     0.04992   0.98316   0.37536   0.00000  Uiso   1.00
H312   H     0.27951   0.51478   0.26708   0.00000  Uiso   1.00
H313   H     0.00056   0.73533   0.15188   0.00000  Uiso   1.00
O314   O     0.04419   0.79388   0.27060   0.00000  Uiso   1.00
O315   O     0.34540   0.49136   0.12854   0.00000  Uiso   1.00
O316   O     0.97942   0.78072   0.97740   0.00000  Uiso   1.00
N317   N     0.07381   0.92523   0.15397   0.00000  Uiso   1.00
N318   N     0.28846   0.42224   0.05274   0.00000  Uiso   1.00
N319   N     0.02767   0.62846   0.94503   0.00000  Uiso   1.00
N320   N     0.05983   0.98525   0.30383   0.00000  Uiso   1.00
N321   N     0.27448   0.48226   0.20261   0.00000  Uiso   1.00
N322   N     0.01369   0.68849   0.09490   0.00000  Uiso   1.00
C323   C     0.63119   0.82000   0.03739   0.00000  Uiso   1.00
C324   C     0.61195   0.72587   0.10614   0.00000  Uiso   1.00
C325   C     0.60357   0.61329   0.08047   0.00000  Uiso   1.00
C326   C     0.58592   0.54032   0.15400   0.00000  Uiso   1.00
C327   C     0.55743   0.38832   0.24619   0.00000  Uiso   1.00
C328   C     0.67111   0.86284   0.07825   0.00000  Uiso   1.00
C329   C     0.71248   0.86543   0.02911   0.00000  Uiso   1.00
C330   C     0.74463   0.90776   0.07917   0.00000  Uiso   1.00
C331   C     0.80798   0.96848   0.12803   0.00000  Uiso   1.00
C332   C     0.59924   0.91965   0.04857   0.00000  Uiso   1.00
C333   C     0.58017   0.97004   0.97447   0.00000  Uiso   1.00
C334   C     0.55181   0.06024   0.99953   0.00000  Uiso   1.00
C335   C     0.50357   0.20917   0.00231   0.00000  Uiso   1.00
C336   C     0.61475   0.89059   0.21364   0.00000  Uiso   1.00
C337   C     0.60302   0.76422   0.20187   0.00000  Uiso   1.00
C338   C     0.58538   0.69140   0.27546   0.00000  Uiso   1.00
C339   C     0.57697   0.57873   0.24990   0.00000  Uiso   1.00
C340   C     0.66218   0.90118   0.17398   0.00000  Uiso   1.00
C341   C     0.69428   0.94353   0.22411   0.00000  Uiso   1.00
C342   C     0.73568   0.94617   0.17507   0.00000  Uiso   1.00
C343   C     0.59030   0.95800   0.14430   0.00000  Uiso   1.00
C344   C     0.56197   0.04814   0.16947   0.00000  Uiso   1.00
C345   C     0.54287   0.09865   0.09543   0.00000  Uiso   1.00
H346   H     0.63815   0.79015   0.96287   0.00000  Uiso   1.00
H347   H     0.61049   0.58365   0.00638   0.00000  Uiso   1.00
H348   H     0.71938   0.83576   0.95503   0.00000  Uiso   1.00
H349   H     0.58709   0.94035   0.90040   0.00000  Uiso   1.00
H350   H     0.57591   0.37161   0.09684   0.00000  Uiso   1.00
H351   H     0.80550   0.90322   0.98857   0.00000  Uiso   1.00
H352   H     0.52654   0.12378   0.87337   0.00000  Uiso   1.00
H353   H     0.60779   0.92045   0.28817   0.00000  Uiso   1.00
H354   H     0.57847   0.72109   0.34953   0.00000  Uiso   1.00
H355   H     0.68736   0.97320   0.29819   0.00000  Uiso   1.00
H356   H     0.55507   0.07779   0.24356   0.00000  Uiso   1.00
H357   H     0.54992   0.48316   0.37536   0.00000  Uiso   1.00
H358   H     0.77951   0.01478   0.26708   0.00000  Uiso   1.00
H359   H     0.50056   0.23533   0.15188   0.00000  Uiso   1.00
O360   O     0.54419   0.29388   0.27060   0.00000  Uiso   1.00
O361   O     0.84540   0.99136   0.12854   0.00000  Uiso   1.00
O362   O     0.47942   0.28072   0.97740   0.00000  Uiso   1.00
N363   N     0.57381   0.42523   0.15397   0.00000  Uiso   1.00
N364   N     0.78846   0.92224   0.05274   0.00000  Uiso   1.00
N365   N     0.52767   0.12846   0.94503   0.00000  Uiso   1.00
N366   N     0.55983   0.48525   0.30383   0.00000  Uiso   1.00
N367   N     0.77448   0.98226   0.20261   0.00000  Uiso   1.00
N368   N     0.51369   0.18849   0.09490   0.00000  Uiso   1.00
