data_job_06599
_audit_creation_date              2018-12-19
_audit_creation_method            'Materials Studio'
_symmetry_space_group_name_H-M    'P1'
_symmetry_Int_Tables_number       1
_symmetry_cell_setting            triclinic
loop_
_symmetry_equiv_pos_as_xyz
  x,y,z
_cell_length_a                    21.8069
_cell_length_b                    23.3438
_cell_length_c                    23.1247
_cell_angle_alpha                 62.0579
_cell_angle_beta                  64.1958
_cell_angle_gamma                 64.7047
loop_
_atom_site_label
_atom_site_type_symbol
_atom_site_fract_x
_atom_site_fract_y
_atom_site_fract_z
_atom_site_U_iso_or_equiv
_atom_site_adp_type
_atom_site_occupancy
C1     C     0.22411   0.99980   0.75246   0.00000  Uiso   1.00
C2     C     0.30404   0.96684   0.73494   0.00000  Uiso   1.00
C3     C     0.34271   0.92700   0.78168   0.00000  Uiso   1.00
C4     C     0.41535   0.90154   0.75541   0.00000  Uiso   1.00
C5     C     0.53449   0.84827   0.73892   0.00000  Uiso   1.00
C6     C     0.21405   0.07517   0.71200   0.00000  Uiso   1.00
C7     C     0.17706   0.12641   0.73946   0.00000  Uiso   1.00
C8     C     0.17395   0.19215   0.69387   0.00000  Uiso   1.00
C9     C     0.15334   0.30707   0.64178   0.00000  Uiso   1.00
C10    C     0.19551   0.97495   0.72150   0.00000  Uiso   1.00
C11    C     0.14291   0.94194   0.75693   0.00000  Uiso   1.00
C12    C     0.12417   0.92331   0.71933   0.00000  Uiso   1.00
C13    C     0.07477   0.88262   0.68197   0.00000  Uiso   1.00
C14    C     0.28434   0.02542   0.62267   0.00000  Uiso   1.00
C15    C     0.33675   0.98076   0.66444   0.00000  Uiso   1.00
C16    C     0.40935   0.95535   0.63809   0.00000  Uiso   1.00
C17    C     0.44812   0.91547   0.68479   0.00000  Uiso   1.00
C18    C     0.24677   0.08909   0.64151   0.00000  Uiso   1.00
C19    C     0.24370   0.15476   0.59587   0.00000  Uiso   1.00
C20    C     0.20672   0.20609   0.62325   0.00000  Uiso   1.00
C21    C     0.22822   0.98887   0.65100   0.00000  Uiso   1.00
C22    C     0.20956   0.97029   0.61334   0.00000  Uiso   1.00
C23    C     0.15695   0.93725   0.64871   0.00000  Uiso   1.00
H24    H     0.19864   0.98897   0.80734   0.00000  Uiso   1.00
H25    H     0.31737   0.91625   0.83623   0.00000  Uiso   1.00
H26    H     0.15175   0.11563   0.79402   0.00000  Uiso   1.00
H27    H     0.11761   0.93118   0.81148   0.00000  Uiso   1.00
H28    H     0.46345   0.84178   0.83718   0.00000  Uiso   1.00
H29    H     0.11419   0.26219   0.74816   0.00000  Uiso   1.00
H30    H     0.04220   0.87325   0.78499   0.00000  Uiso   1.00
H31    H     0.30981   0.03626   0.56779   0.00000  Uiso   1.00
H32    H     0.43465   0.96613   0.58353   0.00000  Uiso   1.00
H33    H     0.26902   0.16551   0.54132   0.00000  Uiso   1.00
H34    H     0.23488   0.98106   0.55879   0.00000  Uiso   1.00
H35    H     0.55863   0.88227   0.63208   0.00000  Uiso   1.00
H36    H     0.20938   0.30268   0.54306   0.00000  Uiso   1.00
H37    H     0.13739   0.91373   0.57989   0.00000  Uiso   1.00
O38    O     0.59116   0.81505   0.74931   0.00000  Uiso   1.00
O39    O     0.13294   0.36662   0.63252   0.00000  Uiso   1.00
O40    O     0.03850   0.85633   0.68084   0.00000  Uiso   1.00
N41    N     0.46872   0.86092   0.78675   0.00000  Uiso   1.00
N42    N     0.14219   0.25398   0.70352   0.00000  Uiso   1.00
N43    N     0.07487   0.89037   0.73795   0.00000  Uiso   1.00
N44    N     0.51993   0.88270   0.67638   0.00000  Uiso   1.00
N45    N     0.19341   0.27576   0.59316   0.00000  Uiso   1.00
N46    N     0.12609   0.91215   0.62759   0.00000  Uiso   1.00
C47    C     0.87666   0.94708   0.21147   0.00000  Uiso   1.00
C48    C     0.85857   0.02057   0.16456   0.00000  Uiso   1.00
C49    C     0.89887   0.06483   0.13778   0.00000  Uiso   1.00
C50    C     0.87323   0.12999   0.09593   0.00000  Uiso   1.00
C51    C     0.85481   0.24105   0.02534   0.00000  Uiso   1.00
C52    C     0.81304   0.94063   0.27562   0.00000  Uiso   1.00
C53    C     0.81507   0.91767   0.34221   0.00000  Uiso   1.00
C54    C     0.75110   0.91553   0.39385   0.00000  Uiso   1.00
C55    C     0.66201   0.90244   0.49567   0.00000  Uiso   1.00
C56    C     0.87804   0.90541   0.17593   0.00000  Uiso   1.00
C57    C     0.93471   0.85282   0.15872   0.00000  Uiso   1.00
C58    C     0.92545   0.82101   0.12644   0.00000  Uiso   1.00
C59    C     0.93727   0.75323   0.07348   0.00000  Uiso   1.00
C60    C     0.75945   0.98410   0.18477   0.00000  Uiso   1.00
C61    C     0.79490   0.04068   0.15007   0.00000  Uiso   1.00
C62    C     0.76919   0.10578   0.10824   0.00000  Uiso   1.00
C63    C     0.80945   0.15013   0.08140   0.00000  Uiso   1.00
C64    C     0.74938   0.96074   0.26112   0.00000  Uiso   1.00
C65    C     0.68539   0.95863   0.31267   0.00000  Uiso   1.00
C66    C     0.68732   0.93567   0.37932   0.00000  Uiso   1.00
C67    C     0.81437   0.92552   0.16143   0.00000  Uiso   1.00
C68    C     0.80503   0.89378   0.12917   0.00000  Uiso   1.00
C69    C     0.86167   0.84115   0.11191   0.00000  Uiso   1.00
H70    H     0.92622   0.93143   0.22276   0.00000  Uiso   1.00
H71    H     0.94814   0.04925   0.14902   0.00000  Uiso   1.00
H72    H     0.86435   0.90211   0.35342   0.00000  Uiso   1.00
H73    H     0.98397   0.83728   0.16995   0.00000  Uiso   1.00
H74    H     0.94435   0.18875   0.06089   0.00000  Uiso   1.00
H75    H     0.76768   0.87848   0.49187   0.00000  Uiso   1.00
H76    H     0.01991   0.74176   0.10500   0.00000  Uiso   1.00
H77    H     0.70988   0.99975   0.17348   0.00000  Uiso   1.00
H78    H     0.71992   0.12133   0.09703   0.00000  Uiso   1.00
H79    H     0.63614   0.97419   0.30143   0.00000  Uiso   1.00
H80    H     0.75575   0.90935   0.11796   0.00000  Uiso   1.00
H81    H     0.75912   0.24726   0.01870   0.00000  Uiso   1.00
H82    H     0.58245   0.93698   0.44968   0.00000  Uiso   1.00
H83    H     0.83468   0.80026   0.06280   0.00000  Uiso   1.00
O84    O     0.86223   0.29675   0.99041   0.00000  Uiso   1.00
O85    O     0.63045   0.88967   0.55584   0.00000  Uiso   1.00
O86    O     0.96138   0.71030   0.04827   0.00000  Uiso   1.00
N87    N     0.89938   0.18583   0.06144   0.00000  Uiso   1.00
N88    N     0.73421   0.89575   0.46438   0.00000  Uiso   1.00
N89    N     0.97002   0.76792   0.10270   0.00000  Uiso   1.00
N90    N     0.79971   0.21731   0.03874   0.00000  Uiso   1.00
N91    N     0.63454   0.92723   0.44168   0.00000  Uiso   1.00
N92    N     0.87035   0.79940   0.07999   0.00000  Uiso   1.00
C93    C     0.28392   0.64314   0.14559   0.00000  Uiso   1.00
C94    C     0.24438   0.59936   0.21353   0.00000  Uiso   1.00
C95    C     0.22915   0.60129   0.27755   0.00000  Uiso   1.00
C96    C     0.19249   0.55716   0.33346   0.00000  Uiso   1.00
C97    C     0.13427   0.49591   0.44016   0.00000  Uiso   1.00
C98    C     0.34672   0.59432   0.11268   0.00000  Uiso   1.00
C99    C     0.41754   0.59202   0.09189   0.00000  Uiso   1.00
C100   C     0.46703   0.54365   0.06289   0.00000  Uiso   1.00
C101   C     0.56769   0.47461   0.01296   0.00000  Uiso   1.00
C102   C     0.23461   0.67967   0.10059   0.00000  Uiso   1.00
C103   C     0.21119   0.74914   0.06962   0.00000  Uiso   1.00
C104   C     0.16630   0.77264   0.03043   0.00000  Uiso   1.00
C105   C     0.09290   0.83612   0.96174   0.00000  Uiso   1.00
C106   C     0.24590   0.56132   0.13103   0.00000  Uiso   1.00
C107   C     0.22373   0.55492   0.20562   0.00000  Uiso   1.00
C108   C     0.18708   0.51077   0.26145   0.00000  Uiso   1.00
C109   C     0.17180   0.51264   0.32554   0.00000  Uiso   1.00
C110   C     0.32607   0.54988   0.10477   0.00000  Uiso   1.00
C111   C     0.37547   0.50150   0.07578   0.00000  Uiso   1.00
C112   C     0.44635   0.49913   0.05496   0.00000  Uiso   1.00
C113   C     0.21396   0.63523   0.09268   0.00000  Uiso   1.00
C114   C     0.16911   0.65862   0.05352   0.00000  Uiso   1.00
C115   C     0.14561   0.72812   0.02251   0.00000  Uiso   1.00
H116   H     0.30001   0.67773   0.15174   0.00000  Uiso   1.00
H117   H     0.24515   0.63569   0.28365   0.00000  Uiso   1.00
H118   H     0.43351   0.62642   0.09801   0.00000  Uiso   1.00
H119   H     0.22718   0.78352   0.07575   0.00000  Uiso   1.00
H120   H     0.17525   0.56945   0.42641   0.00000  Uiso   1.00
H121   H     0.57241   0.54994   0.03495   0.00000  Uiso   1.00
H122   H     0.13733   0.88120   0.98802   0.00000  Uiso   1.00
H123   H     0.22982   0.52672   0.12488   0.00000  Uiso   1.00
H124   H     0.17110   0.47639   0.25531   0.00000  Uiso   1.00
H125   H     0.35947   0.46712   0.06967   0.00000  Uiso   1.00
H126   H     0.15314   0.62422   0.04742   0.00000  Uiso   1.00
H127   H     0.11515   0.44015   0.40341   0.00000  Uiso   1.00
H128   H     0.51232   0.42064   0.01195   0.00000  Uiso   1.00
H129   H     0.07723   0.75191   0.96502   0.00000  Uiso   1.00
O130   O     0.10786   0.47440   0.50120   0.00000  Uiso   1.00
O131   O     0.62892   0.44881   0.98761   0.00000  Uiso   1.00
O132   O     0.05810   0.88342   0.92604   0.00000  Uiso   1.00
N133   N     0.16915   0.54594   0.40309   0.00000  Uiso   1.00
N134   N     0.54047   0.52769   0.03712   0.00000  Uiso   1.00
N135   N     0.13372   0.83739   0.99322   0.00000  Uiso   1.00
N136   N     0.13681   0.47637   0.39072   0.00000  Uiso   1.00
N137   N     0.50813   0.45811   0.02474   0.00000  Uiso   1.00
N138   N     0.10138   0.76782   0.98084   0.00000  Uiso   1.00
C139   C     0.69927   0.10045   0.71536   0.00000  Uiso   1.00
C140   C     0.76853   0.11572   0.66370   0.00000  Uiso   1.00
C141   C     0.78387   0.17667   0.63744   0.00000  Uiso   1.00
C142   C     0.85023   0.18050   0.59074   0.00000  Uiso   1.00
C143   C     0.95030   0.21258   0.51355   0.00000  Uiso   1.00
C144   C     0.71974   0.03869   0.77555   0.00000  Uiso   1.00
C145   C     0.69405   0.03489   0.84333   0.00000  Uiso   1.00
C146   C     0.71933   0.97386   0.89078   0.00000  Uiso   1.00
C147   C     0.74361   0.88635   0.98724   0.00000  Uiso   1.00
C148   C     0.67159   0.07732   0.68200   0.00000  Uiso   1.00
C149   C     0.60542   0.10598   0.67114   0.00000  Uiso   1.00
C150   C     0.59016   0.07747   0.63984   0.00000  Uiso   1.00
C151   C     0.53969   0.04993   0.59105   0.00000  Uiso   1.00
C152   C     0.78982   0.99884   0.67911   0.00000  Uiso   1.00
C153   C     0.81771   0.06052   0.64401   0.00000  Uiso   1.00
C154   C     0.88406   0.06426   0.59734   0.00000  Uiso   1.00
C155   C     0.89950   0.12521   0.57101   0.00000  Uiso   1.00
C156   C     0.76892   0.98350   0.75586   0.00000  Uiso   1.00
C157   C     0.79424   0.92247   0.80322   0.00000  Uiso   1.00
C158   C     0.76860   0.91857   0.87106   0.00000  Uiso   1.00
C159   C     0.72078   0.02213   0.66231   0.00000  Uiso   1.00
C160   C     0.70561   0.99356   0.63103   0.00000  Uiso   1.00
C161   C     0.63943   0.02218   0.62012   0.00000  Uiso   1.00
H162   H     0.66097   0.14342   0.73069   0.00000  Uiso   1.00
H163   H     0.74580   0.21937   0.65270   0.00000  Uiso   1.00
H164   H     0.65598   0.07760   0.85855   0.00000  Uiso   1.00
H165   H     0.56737   0.14869   0.68638   0.00000  Uiso   1.00
H166   H     0.86154   0.27923   0.55756   0.00000  Uiso   1.00
H167   H     0.67214   0.98030   0.99161   0.00000  Uiso   1.00
H168   H     0.48528   0.13019   0.62857   0.00000  Uiso   1.00
H169   H     0.82811   0.95587   0.66378   0.00000  Uiso   1.00
H170   H     0.92211   0.02154   0.58211   0.00000  Uiso   1.00
H171   H     0.83230   0.87977   0.78797   0.00000  Uiso   1.00
H172   H     0.74369   0.95086   0.61580   0.00000  Uiso   1.00
H173   H     0.00464   0.11867   0.50028   0.00000  Uiso   1.00
H174   H     0.81524   0.81973   0.93433   0.00000  Uiso   1.00
H175   H     0.62839   0.96963   0.57128   0.00000  Uiso   1.00
O176   O     0.99192   0.24552   0.47642   0.00000  Uiso   1.00
O177   O     0.74343   0.85333   0.04588   0.00000  Uiso   1.00
O178   O     0.49828   0.04999   0.56957   0.00000  Uiso   1.00
N179   N     0.88231   0.23244   0.55528   0.00000  Uiso   1.00
N180   N     0.70525   0.95295   0.96109   0.00000  Uiso   1.00
N181   N     0.53054   0.09308   0.62169   0.00000  Uiso   1.00
N182   N     0.95932   0.14604   0.52445   0.00000  Uiso   1.00
N183   N     0.78225   0.86655   0.93026   0.00000  Uiso   1.00
N184   N     0.60755   0.00668   0.59086   0.00000  Uiso   1.00
C185   C     0.29653   0.50083   0.71088   0.00000  Uiso   1.00
C186   C     0.24237   0.47678   0.77942   0.00000  Uiso   1.00
C187   C     0.25048   0.45453   0.84351   0.00000  Uiso   1.00
C188   C     0.19481   0.43467   0.90001   0.00000  Uiso   1.00
C189   C     0.12005   0.39700   0.00756   0.00000  Uiso   1.00
C190   C     0.25805   0.57190   0.67238   0.00000  Uiso   1.00
C191   C     0.27936   0.62961   0.64647   0.00000  Uiso   1.00
C192   C     0.23691   0.68983   0.61284   0.00000  Uiso   1.00
C193   C     0.18653   0.79982   0.55417   0.00000  Uiso   1.00
C194   C     0.31155   0.45678   0.67149   0.00000  Uiso   1.00
C195   C     0.37783   0.41771   0.64480   0.00000  Uiso   1.00
C196   C     0.38041   0.38101   0.61041   0.00000  Uiso   1.00
C197   C     0.41309   0.31227   0.55035   0.00000  Uiso   1.00
C198   C     0.18326   0.50514   0.69723   0.00000  Uiso   1.00
C199   C     0.18084   0.47912   0.77201   0.00000  Uiso   1.00
C200   C     0.12516   0.45929   0.82841   0.00000  Uiso   1.00
C201   C     0.13318   0.43701   0.89258   0.00000  Uiso   1.00
C202   C     0.19653   0.57424   0.66497   0.00000  Uiso   1.00
C203   C     0.15404   0.63438   0.63137   0.00000  Uiso   1.00
C204   C     0.17527   0.69217   0.60542   0.00000  Uiso   1.00
C205   C     0.25002   0.45912   0.66407   0.00000  Uiso   1.00
C206   C     0.25251   0.42248   0.62971   0.00000  Uiso   1.00
C207   C     0.31878   0.38336   0.60298   0.00000  Uiso   1.00
H208   H     0.34443   0.49902   0.71665   0.00000  Uiso   1.00
H209   H     0.29809   0.45273   0.84923   0.00000  Uiso   1.00
H210   H     0.32698   0.62779   0.65221   0.00000  Uiso   1.00
H211   H     0.42543   0.41592   0.65055   0.00000  Uiso   1.00
H212   H     0.21958   0.40247   0.99295   0.00000  Uiso   1.00
H213   H     0.28049   0.77158   0.57750   0.00000  Uiso   1.00
H214   H     0.48810   0.32481   0.57400   0.00000  Uiso   1.00
H215   H     0.13536   0.50696   0.69146   0.00000  Uiso   1.00
H216   H     0.07755   0.46111   0.82266   0.00000  Uiso   1.00
H217   H     0.10644   0.63617   0.62564   0.00000  Uiso   1.00
H218   H     0.20489   0.42430   0.62398   0.00000  Uiso   1.00
H219   H     0.04058   0.40927   0.97139   0.00000  Uiso   1.00
H220   H     0.10150   0.77839   0.55593   0.00000  Uiso   1.00
H221   H     0.30910   0.33162   0.55244   0.00000  Uiso   1.00
O222   O     0.09581   0.37558   0.06893   0.00000  Uiso   1.00
O223   O     0.17574   0.85984   0.52387   0.00000  Uiso   1.00
O224   O     0.44811   0.27369   0.51928   0.00000  Uiso   1.00
N225   N     0.18539   0.41035   0.96987   0.00000  Uiso   1.00
N226   N     0.24234   0.75545   0.58146   0.00000  Uiso   1.00
N227   N     0.43643   0.33777   0.57817   0.00000  Uiso   1.00
N228   N     0.08907   0.41401   0.95827   0.00000  Uiso   1.00
N229   N     0.14602   0.75911   0.56985   0.00000  Uiso   1.00
N230   N     0.34011   0.34143   0.56657   0.00000  Uiso   1.00
C231   C     0.78152   0.48787   0.22265   0.00000  Uiso   1.00
C232   C     0.72751   0.55604   0.22337   0.00000  Uiso   1.00
C233   C     0.68641   0.57414   0.28107   0.00000  Uiso   1.00
C234   C     0.64015   0.63888   0.27098   0.00000  Uiso   1.00
C235   C     0.55707   0.73789   0.28206   0.00000  Uiso   1.00
C236   C     0.85165   0.50311   0.17383   0.00000  Uiso   1.00
C237   C     0.91493   0.47671   0.18988   0.00000  Uiso   1.00
C238   C     0.97317   0.49689   0.13808   0.00000  Uiso   1.00
C239   C     0.08283   0.51369   0.07224   0.00000  Uiso   1.00
C240   C     0.75918   0.46120   0.18813   0.00000  Uiso   1.00
C241   C     0.74472   0.39956   0.21619   0.00000  Uiso   1.00
C242   C     0.72512   0.38445   0.17643   0.00000  Uiso   1.00
C243   C     0.69120   0.33618   0.13279   0.00000  Uiso   1.00
C244   C     0.77245   0.57065   0.10211   0.00000  Uiso   1.00
C245   C     0.72259   0.60100   0.15790   0.00000  Uiso   1.00
C246   C     0.67637   0.66572   0.14772   0.00000  Uiso   1.00
C247   C     0.63521   0.68392   0.20540   0.00000  Uiso   1.00
C248   C     0.84673   0.54807   0.10837   0.00000  Uiso   1.00
C249   C     0.90489   0.56829   0.05653   0.00000  Uiso   1.00
C250   C     0.96823   0.54193   0.07250   0.00000  Uiso   1.00
C251   C     0.75425   0.50617   0.12266   0.00000  Uiso   1.00
C252   C     0.73468   0.49114   0.08284   0.00000  Uiso   1.00
C253   C     0.72018   0.42949   0.11084   0.00000  Uiso   1.00
H254   H     0.78536   0.45287   0.27361   0.00000  Uiso   1.00
H255   H     0.69025   0.53933   0.33173   0.00000  Uiso   1.00
H256   H     0.91872   0.44191   0.24055   0.00000  Uiso   1.00
H257   H     0.74854   0.36478   0.26686   0.00000  Uiso   1.00
H258   H     0.58264   0.65503   0.36728   0.00000  Uiso   1.00
H259   H     0.06441   0.44959   0.17502   0.00000  Uiso   1.00
H260   H     0.70553   0.28694   0.23050   0.00000  Uiso   1.00
H261   H     0.76861   0.60566   0.05114   0.00000  Uiso   1.00
H262   H     0.67257   0.70050   0.09705   0.00000  Uiso   1.00
H263   H     0.90106   0.60308   0.00587   0.00000  Uiso   1.00
H264   H     0.73087   0.52595   0.03218   0.00000  Uiso   1.00
H265   H     0.56830   0.78584   0.17681   0.00000  Uiso   1.00
H266   H     0.05007   0.58041   0.98455   0.00000  Uiso   1.00
H267   H     0.69119   0.41775   0.04003   0.00000  Uiso   1.00
O268   O     0.51261   0.78008   0.30626   0.00000  Uiso   1.00
O269   O     0.14467   0.51055   0.05402   0.00000  Uiso   1.00
O270   O     0.67384   0.29715   0.12681   0.00000  Uiso   1.00
N271   N     0.59243   0.67279   0.31616   0.00000  Uiso   1.00
N272   N     0.04286   0.48073   0.13641   0.00000  Uiso   1.00
N273   N     0.70736   0.32865   0.18827   0.00000  Uiso   1.00
N274   N     0.58472   0.74318   0.21367   0.00000  Uiso   1.00
N275   N     0.03514   0.55112   0.03392   0.00000  Uiso   1.00
N276   N     0.69964   0.39904   0.08578   0.00000  Uiso   1.00
C277   C     0.82763   0.65162   0.30917   0.00000  Uiso   1.00
C278   C     0.76454   0.71412   0.29841   0.00000  Uiso   1.00
C279   C     0.74323   0.74888   0.23946   0.00000  Uiso   1.00
C280   C     0.68416   0.80481   0.23976   0.00000  Uiso   1.00
C281   C     0.59172   0.89873   0.21436   0.00000  Uiso   1.00
C282   C     0.79793   0.59728   0.37311   0.00000  Uiso   1.00
C283   C     0.80471   0.53381   0.37696   0.00000  Uiso   1.00
C284   C     0.77375   0.49139   0.44015   0.00000  Uiso   1.00
C285   C     0.73320   0.40390   0.53073   0.00000  Uiso   1.00
C286   C     0.87449   0.66919   0.32821   0.00000  Uiso   1.00
C287   C     0.94564   0.66615   0.29432   0.00000  Uiso   1.00
C288   C     0.97915   0.68426   0.31972   0.00000  Uiso   1.00
C289   C     0.05746   0.70841   0.34059   0.00000  Uiso   1.00
C290   C     0.76063   0.68915   0.41455   0.00000  Uiso   1.00
C291   C     0.72815   0.73450   0.35565   0.00000  Uiso   1.00
C292   C     0.66910   0.79040   0.35605   0.00000  Uiso   1.00
C293   C     0.64770   0.82524   0.29710   0.00000  Uiso   1.00
C294   C     0.76154   0.61766   0.43035   0.00000  Uiso   1.00
C295   C     0.73058   0.57533   0.49355   0.00000  Uiso   1.00
C296   C     0.73730   0.51181   0.49749   0.00000  Uiso   1.00
C297   C     0.83810   0.68957   0.38545   0.00000  Uiso   1.00
C298   C     0.87151   0.70768   0.41091   0.00000  Uiso   1.00
C299   C     0.94269   0.70468   0.37706   0.00000  Uiso   1.00
H300   H     0.85596   0.63575   0.26462   0.00000  Uiso   1.00
H301   H     0.77140   0.73308   0.19517   0.00000  Uiso   1.00
H302   H     0.83287   0.51805   0.33266   0.00000  Uiso   1.00
H303   H     0.97378   0.65038   0.25003   0.00000  Uiso   1.00
H304   H     0.66159   0.84997   0.14343   0.00000  Uiso   1.00
H305   H     0.79123   0.39654   0.43334   0.00000  Uiso   1.00
H306   H     0.08837   0.67559   0.25910   0.00000  Uiso   1.00
H307   H     0.73230   0.70502   0.45912   0.00000  Uiso   1.00
H308   H     0.64095   0.80616   0.40035   0.00000  Uiso   1.00
H309   H     0.70243   0.59112   0.53784   0.00000  Uiso   1.00
H310   H     0.84333   0.72345   0.45520   0.00000  Uiso   1.00
H311   H     0.55571   0.90928   0.30996   0.00000  Uiso   1.00
H312   H     0.68535   0.45585   0.59987   0.00000  Uiso   1.00
H313   H     0.98249   0.73490   0.42563   0.00000  Uiso   1.00
O314   O     0.55077   0.94489   0.18454   0.00000  Uiso   1.00
O315   O     0.72088   0.35001   0.56488   0.00000  Uiso   1.00
O316   O     0.11071   0.71611   0.33628   0.00000  Uiso   1.00
N317   N     0.64921   0.85005   0.19069   0.00000  Uiso   1.00
N318   N     0.77041   0.42613   0.46173   0.00000  Uiso   1.00
N319   N     0.04822   0.68700   0.29884   0.00000  Uiso   1.00
N320   N     0.59224   0.88197   0.28029   0.00000  Uiso   1.00
N321   N     0.71344   0.45805   0.55134   0.00000  Uiso   1.00
N322   N     0.99124   0.71891   0.38845   0.00000  Uiso   1.00
C323   C     0.35762   0.71826   0.85487   0.00000  Uiso   1.00
C324   C     0.36390   0.64330   0.88062   0.00000  Uiso   1.00
C325   C     0.30763   0.61520   0.91262   0.00000  Uiso   1.00
C326   C     0.32446   0.54554   0.93235   0.00000  Uiso   1.00
C327   C     0.32347   0.43523   0.97411   0.00000  Uiso   1.00
C328   C     0.39924   0.73684   0.77903   0.00000  Uiso   1.00
C329   C     0.37269   0.78739   0.72562   0.00000  Uiso   1.00
C330   C     0.41927   0.79648   0.65983   0.00000  Uiso   1.00
C331   C     0.47316   0.83143   0.54387   0.00000  Uiso   1.00
C332   C     0.39877   0.72412   0.88997   0.00000  Uiso   1.00
C333   C     0.37183   0.76400   0.92982   0.00000  Uiso   1.00
C334   C     0.41802   0.76239   0.95741   0.00000  Uiso   1.00
C335   C     0.47118   0.77760   0.01369   0.00000  Uiso   1.00
C336   C     0.48756   0.64453   0.83300   0.00000  Uiso   1.00
C337   C     0.43448   0.60325   0.86874   0.00000  Uiso   1.00
C338   C     0.45139   0.53361   0.88842   0.00000  Uiso   1.00
C339   C     0.39516   0.50541   0.92045   0.00000  Uiso   1.00
C340   C     0.46982   0.69679   0.76715   0.00000  Uiso   1.00
C341   C     0.51645   0.70581   0.70142   0.00000  Uiso   1.00
C342   C     0.48997   0.75636   0.64792   0.00000  Uiso   1.00
C343   C     0.46935   0.68407   0.87809   0.00000  Uiso   1.00
C344   C     0.51559   0.68241   0.90562   0.00000  Uiso   1.00
C345   C     0.48872   0.72227   0.94550   0.00000  Uiso   1.00
H346   H     0.30268   0.74945   0.86412   0.00000  Uiso   1.00
H347   H     0.25302   0.64621   0.92180   0.00000  Uiso   1.00
H348   H     0.31807   0.81838   0.73483   0.00000  Uiso   1.00
H349   H     0.31721   0.79498   0.93900   0.00000  Uiso   1.00
H350   H     0.22910   0.51409   0.98050   0.00000  Uiso   1.00
H351   H     0.36626   0.87714   0.58626   0.00000  Uiso   1.00
H352   H     0.36445   0.82781   0.01678   0.00000  Uiso   1.00
H353   H     0.54251   0.61334   0.82374   0.00000  Uiso   1.00
H354   H     0.50601   0.50263   0.87922   0.00000  Uiso   1.00
H355   H     0.57106   0.67481   0.69224   0.00000  Uiso   1.00
H356   H     0.57020   0.65141   0.89641   0.00000  Uiso   1.00
H357   H     0.43443   0.39756   0.94593   0.00000  Uiso   1.00
H358   H     0.57159   0.76061   0.55169   0.00000  Uiso   1.00
H359   H     0.56978   0.71127   0.98222   0.00000  Uiso   1.00
O360   O     0.30343   0.38546   0.00041   0.00000  Uiso   1.00
O361   O     0.48338   0.86177   0.48319   0.00000  Uiso   1.00
O362   O     0.48100   0.79704   0.04803   0.00000  Uiso   1.00
N363   N     0.28243   0.50186   0.96476   0.00000  Uiso   1.00
N364   N     0.41066   0.84128   0.59617   0.00000  Uiso   1.00
N365   N     0.40898   0.79517   0.99866   0.00000  Uiso   1.00
N366   N     0.39292   0.43915   0.94616   0.00000  Uiso   1.00
N367   N     0.52115   0.77858   0.57757   0.00000  Uiso   1.00
N368   N     0.51946   0.73246   0.98006   0.00000  Uiso   1.00
C369   C     0.89089   0.19813   0.78701   0.00000  Uiso   1.00
C370   C     0.92789   0.24721   0.72264   0.00000  Uiso   1.00
C371   C     0.94531   0.25068   0.65599   0.00000  Uiso   1.00
C372   C     0.97901   0.29910   0.60415   0.00000  Uiso   1.00
C373   C     0.03403   0.36874   0.50201   0.00000  Uiso   1.00
C374   C     0.82483   0.24159   0.82393   0.00000  Uiso   1.00
C375   C     0.75562   0.24031   0.84246   0.00000  Uiso   1.00
C376   C     0.70257   0.28398   0.87590   0.00000  Uiso   1.00
C377   C     0.59761   0.34485   0.93107   0.00000  Uiso   1.00
C378   C     0.93972   0.16030   0.83257   0.00000  Uiso   1.00
C379   C     0.96709   0.09068   0.85838   0.00000  Uiso   1.00
C380   C     0.01076   0.06591   0.89911   0.00000  Uiso   1.00
C381   C     0.08418   0.00057   0.96769   0.00000  Uiso   1.00
C382   C     0.91975   0.27795   0.81346   0.00000  Uiso   1.00
C383   C     0.94356   0.29057   0.73701   0.00000  Uiso   1.00
C384   C     0.97724   0.33900   0.68525   0.00000  Uiso   1.00
C385   C     0.99471   0.34253   0.61854   0.00000  Uiso   1.00
C386   C     0.84050   0.28494   0.83830   0.00000  Uiso   1.00
C387   C     0.78754   0.32862   0.87172   0.00000  Uiso   1.00
C388   C     0.71827   0.32742   0.89029   0.00000  Uiso   1.00
C389   C     0.95540   0.20366   0.84694   0.00000  Uiso   1.00
C390   C     0.99902   0.17900   0.88764   0.00000  Uiso   1.00
C391   C     0.02646   0.10935   0.91350   0.00000  Uiso   1.00
H392   H     0.87868   0.16438   0.77582   0.00000  Uiso   1.00
H393   H     0.93317   0.21712   0.64489   0.00000  Uiso   1.00
H394   H     0.74351   0.20675   0.83134   0.00000  Uiso   1.00
H395   H     0.95495   0.05714   0.84725   0.00000  Uiso   1.00
H396   H     0.00046   0.29473   0.50606   0.00000  Uiso   1.00
H397   H     0.60055   0.27284   0.89922   0.00000  Uiso   1.00
H398   H     0.04642   0.95737   0.93278   0.00000  Uiso   1.00
H399   H     0.93195   0.31171   0.82464   0.00000  Uiso   1.00
H400   H     0.98936   0.37254   0.69639   0.00000  Uiso   1.00
H401   H     0.79969   0.36217   0.88284   0.00000  Uiso   1.00
H402   H     0.01114   0.21256   0.89875   0.00000  Uiso   1.00
H403   H     0.04607   0.42088   0.54786   0.00000  Uiso   1.00
H404   H     0.64615   0.39899   0.94102   0.00000  Uiso   1.00
H405   H     0.09203   0.08352   0.97457   0.00000  Uiso   1.00
O406   O     0.06005   0.39518   0.44171   0.00000  Uiso   1.00
O407   O     0.53538   0.36645   0.95753   0.00000  Uiso   1.00
O408   O     0.12036   0.95256   0.00154   0.00000  Uiso   1.00
N409   N     0.00333   0.31606   0.53350   0.00000  Uiso   1.00
N410   N     0.62943   0.29561   0.90107   0.00000  Uiso   1.00
N411   N     0.04627   0.00066   0.93246   0.00000  Uiso   1.00
N412   N     0.02787   0.38394   0.55599   0.00000  Uiso   1.00
N413   N     0.65398   0.36348   0.92356   0.00000  Uiso   1.00
N414   N     0.07081   0.06854   0.95495   0.00000  Uiso   1.00
C415   C     0.40825   0.55546   0.43058   0.00000  Uiso   1.00
C416   C     0.32903   0.59162   0.44427   0.00000  Uiso   1.00
C417   C     0.27484   0.56059   0.47910   0.00000  Uiso   1.00
C418   C     0.20582   0.60255   0.48624   0.00000  Uiso   1.00
C419   C     0.08497   0.64798   0.51153   0.00000  Uiso   1.00
C420   C     0.44084   0.58238   0.35315   0.00000  Uiso   1.00
C421   C     0.48068   0.54356   0.31137   0.00000  Uiso   1.00
C422   C     0.50578   0.57774   0.24181   0.00000  Uiso   1.00
C423   C     0.55858   0.60881   0.12564   0.00000  Uiso   1.00
C424   C     0.43691   0.58128   0.46057   0.00000  Uiso   1.00
C425   C     0.47345   0.54154   0.50910   0.00000  Uiso   1.00
C426   C     0.49526   0.57479   0.52996   0.00000  Uiso   1.00
C427   C     0.54195   0.60415   0.58058   0.00000  Uiso   1.00
C428   C     0.38202   0.68517   0.38134   0.00000  Uiso   1.00
C429   C     0.31478   0.66207   0.41752   0.00000  Uiso   1.00
C430   C     0.24582   0.70409   0.42461   0.00000  Uiso   1.00
C431   C     0.19154   0.67313   0.45945   0.00000  Uiso   1.00
C432   C     0.42659   0.65282   0.32640   0.00000  Uiso   1.00
C433   C     0.45165   0.68707   0.25688   0.00000  Uiso   1.00
C434   C     0.49151   0.64832   0.21501   0.00000  Uiso   1.00
C435   C     0.42266   0.65173   0.43382   0.00000  Uiso   1.00
C436   C     0.44442   0.68505   0.45461   0.00000  Uiso   1.00
C437   C     0.48099   0.64537   0.50316   0.00000  Uiso   1.00
H438   H     0.41934   0.50061   0.45140   0.00000  Uiso   1.00
H439   H     0.28589   0.50606   0.49978   0.00000  Uiso   1.00
H440   H     0.49170   0.48904   0.33208   0.00000  Uiso   1.00
H441   H     0.48447   0.48702   0.52978   0.00000  Uiso   1.00
H442   H     0.13165   0.54318   0.54161   0.00000  Uiso   1.00
H443   H     0.56562   0.50729   0.18800   0.00000  Uiso   1.00
H444   H     0.55038   0.50302   0.60489   0.00000  Uiso   1.00
H445   H     0.37093   0.74002   0.36051   0.00000  Uiso   1.00
H446   H     0.23481   0.75861   0.40391   0.00000  Uiso   1.00
H447   H     0.44062   0.74159   0.23620   0.00000  Uiso   1.00
H448   H     0.43339   0.73957   0.43390   0.00000  Uiso   1.00
H449   H     0.09019   0.74815   0.46379   0.00000  Uiso   1.00
H450   H     0.52417   0.71226   0.11018   0.00000  Uiso   1.00
H451   H     0.50893   0.70800   0.52707   0.00000  Uiso   1.00
O452   O     0.02225   0.65358   0.53286   0.00000  Uiso   1.00
O453   O     0.59162   0.60648   0.06896   0.00000  Uiso   1.00
O454   O     0.57162   0.60089   0.61590   0.00000  Uiso   1.00
N455   N     0.14057   0.58887   0.51735   0.00000  Uiso   1.00
N456   N     0.54630   0.55531   0.18675   0.00000  Uiso   1.00
N457   N     0.53207   0.55132   0.57649   0.00000  Uiso   1.00
N458   N     0.11826   0.69916   0.47548   0.00000  Uiso   1.00
N459   N     0.52400   0.66561   0.14488   0.00000  Uiso   1.00
N460   N     0.50976   0.66162   0.53461   0.00000  Uiso   1.00
C461   C     0.82883   0.15984   0.32570   0.00000  Uiso   1.00
C462   C     0.86701   0.20965   0.26376   0.00000  Uiso   1.00
C463   C     0.86214   0.23545   0.19781   0.00000  Uiso   1.00
C464   C     0.90123   0.28039   0.14826   0.00000  Uiso   1.00
C465   C     0.95410   0.35491   0.04966   0.00000  Uiso   1.00
C466   C     0.88657   0.09962   0.35372   0.00000  Uiso   1.00
C467   C     0.89814   0.03290   0.36340   0.00000  Uiso   1.00
C468   C     0.95369   0.98522   0.38959   0.00000  Uiso   1.00
C469   C     0.03689   0.88891   0.43068   0.00000  Uiso   1.00
C470   C     0.78642   0.19350   0.37970   0.00000  Uiso   1.00
C471   C     0.71377   0.20570   0.41125   0.00000  Uiso   1.00
C472   C     0.68500   0.23704   0.45933   0.00000  Uiso   1.00
C473   C     0.61269   0.28649   0.54077   0.00000  Uiso   1.00
C474   C     0.90691   0.19379   0.35500   0.00000  Uiso   1.00
C475   C     0.90943   0.22809   0.27968   0.00000  Uiso   1.00
C476   C     0.94853   0.27301   0.23022   0.00000  Uiso   1.00
C477   C     0.94372   0.29887   0.16420   0.00000  Uiso   1.00
C478   C     0.92899   0.11806   0.36963   0.00000  Uiso   1.00
C479   C     0.98453   0.07047   0.39581   0.00000  Uiso   1.00
C480   C     0.99618   0.00370   0.40553   0.00000  Uiso   1.00
C481   C     0.82883   0.21194   0.39562   0.00000  Uiso   1.00
C482   C     0.80016   0.24327   0.44366   0.00000  Uiso   1.00
C483   C     0.72748   0.25551   0.47527   0.00000  Uiso   1.00
H484   H     0.79581   0.14547   0.31332   0.00000  Uiso   1.00
H485   H     0.82932   0.22116   0.18551   0.00000  Uiso   1.00
H486   H     0.86530   0.01864   0.35109   0.00000  Uiso   1.00
H487   H     0.68097   0.19142   0.39892   0.00000  Uiso   1.00
H488   H     0.88519   0.31318   0.05083   0.00000  Uiso   1.00
H489   H     0.96105   0.88617   0.39997   0.00000  Uiso   1.00
H490   H     0.57234   0.25049   0.50085   0.00000  Uiso   1.00
H491   H     0.93994   0.20815   0.36739   0.00000  Uiso   1.00
H492   H     0.98135   0.28727   0.24255   0.00000  Uiso   1.00
H493   H     0.01734   0.08476   0.40813   0.00000  Uiso   1.00
H494   H     0.83300   0.25753   0.45596   0.00000  Uiso   1.00
H495   H     0.00859   0.36684   0.09713   0.00000  Uiso   1.00
H496   H     0.08445   0.93983   0.44627   0.00000  Uiso   1.00
H497   H     0.69573   0.30415   0.54715   0.00000  Uiso   1.00
O498   O     0.97155   0.39091   0.99088   0.00000  Uiso   1.00
O499   O     0.07107   0.83069   0.44895   0.00000  Uiso   1.00
O500   O     0.56109   0.30867   0.58129   0.00000  Uiso   1.00
N501   N     0.90853   0.31496   0.07886   0.00000  Uiso   1.00
N502   N     0.97947   0.91573   0.40528   0.00000  Uiso   1.00
N503   N     0.61606   0.25632   0.49961   0.00000  Uiso   1.00
N504   N     0.97493   0.34384   0.10377   0.00000  Uiso   1.00
N505   N     0.04587   0.94461   0.43019   0.00000  Uiso   1.00
N506   N     0.68246   0.28520   0.52452   0.00000  Uiso   1.00
C507   C     0.41367   0.14925   0.86258   0.00000  Uiso   1.00
C508   C     0.44735   0.09402   0.91842   0.00000  Uiso   1.00
C509   C     0.48661   0.02862   0.91981   0.00000  Uiso   1.00
C510   C     0.51290   0.98567   0.97537   0.00000  Uiso   1.00
C511   C     0.56708   0.89660   0.05415   0.00000  Uiso   1.00
C512   C     0.33486   0.17262   0.89872   0.00000  Uiso   1.00
C513   C     0.27954   0.17332   0.88352   0.00000  Uiso   1.00
C514   C     0.21113   0.19656   0.92249   0.00000  Uiso   1.00
C515   C     0.09066   0.22958   0.97064   0.00000  Uiso   1.00
C516   C     0.44296   0.20853   0.83654   0.00000  Uiso   1.00
C517   C     0.47851   0.23943   0.76906   0.00000  Uiso   1.00
C518   C     0.50111   0.29291   0.75568   0.00000  Uiso   1.00
C519   C     0.54848   0.38167   0.70729   0.00000  Uiso   1.00
C520   C     0.39056   0.18928   0.95879   0.00000  Uiso   1.00
C521   C     0.43480   0.11576   0.97068   0.00000  Uiso   1.00
C522   C     0.46104   0.07291   0.02626   0.00000  Uiso   1.00
C523   C     0.50033   0.00746   0.02772   0.00000  Uiso   1.00
C524   C     0.32231   0.19437   0.95097   0.00000  Uiso   1.00
C525   C     0.25397   0.21762   0.98997   0.00000  Uiso   1.00
C526   C     0.19856   0.21835   0.97484   0.00000  Uiso   1.00
C527   C     0.43041   0.23027   0.88880   0.00000  Uiso   1.00
C528   C     0.45295   0.28372   0.87552   0.00000  Uiso   1.00
C529   C     0.48853   0.31469   0.80803   0.00000  Uiso   1.00
H530   H     0.42344   0.13232   0.82190   0.00000  Uiso   1.00
H531   H     0.49630   0.01180   0.87936   0.00000  Uiso   1.00
H532   H     0.28927   0.15650   0.84307   0.00000  Uiso   1.00
H533   H     0.48822   0.22259   0.72864   0.00000  Uiso   1.00
H534   H     0.57153   0.88778   0.96612   0.00000  Uiso   1.00
H535   H     0.13498   0.19289   0.88960   0.00000  Uiso   1.00
H536   H     0.55450   0.33226   0.64829   0.00000  Uiso   1.00
H537   H     0.38079   0.20621   0.99948   0.00000  Uiso   1.00
H538   H     0.45132   0.08975   0.06669   0.00000  Uiso   1.00
H539   H     0.24428   0.23445   0.03041   0.00000  Uiso   1.00
H540   H     0.44323   0.30053   0.91597   0.00000  Uiso   1.00
H541   H     0.53501   0.95104   0.11817   0.00000  Uiso   1.00
H542   H     0.09846   0.25616   0.04165   0.00000  Uiso   1.00
H543   H     0.51799   0.39552   0.80033   0.00000  Uiso   1.00
O544   O     0.60042   0.84146   0.08317   0.00000  Uiso   1.00
O545   O     0.02768   0.24177   0.98276   0.00000  Uiso   1.00
O546   O     0.57809   0.42461   0.66616   0.00000  Uiso   1.00
N547   N     0.55327   0.91865   0.99268   0.00000  Uiso   1.00
N548   N     0.14512   0.20391   0.92114   0.00000  Uiso   1.00
N549   N     0.53732   0.33421   0.69553   0.00000  Uiso   1.00
N550   N     0.53362   0.95269   0.07449   0.00000  Uiso   1.00
N551   N     0.12547   0.23795   0.00296   0.00000  Uiso   1.00
N552   N     0.51768   0.36826   0.77734   0.00000  Uiso   1.00
