data_job_01847
_audit_creation_date              2018-12-19
_audit_creation_method            'Materials Studio'
_symmetry_space_group_name_H-M    'P1'
_symmetry_Int_Tables_number       1
_symmetry_cell_setting            triclinic
loop_
_symmetry_equiv_pos_as_xyz
  x,y,z
_cell_length_a                    7.6535
_cell_length_b                    16.6424
_cell_length_c                    22.4062
_cell_angle_alpha                 90.0000
_cell_angle_beta                  100.5190
_cell_angle_gamma                 90.0000
loop_
_atom_site_label
_atom_site_type_symbol
_atom_site_fract_x
_atom_site_fract_y
_atom_site_fract_z
_atom_site_U_iso_or_equiv
_atom_site_adp_type
_atom_site_occupancy
C1     C     0.79398   0.08264   0.77406   0.00000  Uiso   1.00
C2     C     0.75025   0.99803   0.79293   0.00000  Uiso   1.00
C3     C     0.86628   0.94658   0.82945   0.00000  Uiso   1.00
C4     C     0.80084   0.87164   0.84145   0.00000  Uiso   1.00
C5     C     0.75961   0.74368   0.87434   0.00000  Uiso   1.00
C6     C     0.75334   0.08349   0.70485   0.00000  Uiso   1.00
C7     C     0.87198   0.10391   0.66731   0.00000  Uiso   1.00
C8     C     0.80912   0.10093   0.60517   0.00000  Uiso   1.00
C9     C     0.77266   0.10570   0.50131   0.00000  Uiso   1.00
C10    C     0.65730   0.13791   0.79451   0.00000  Uiso   1.00
C11    C     0.69516   0.20409   0.83234   0.00000  Uiso   1.00
C12    C     0.55143   0.24694   0.84567   0.00000  Uiso   1.00
C13    C     0.36584   0.33621   0.88101   0.00000  Uiso   1.00
C14    C     0.47140   0.04106   0.73045   0.00000  Uiso   1.00
C15    C     0.57504   0.97544   0.76924   0.00000  Uiso   1.00
C16    C     0.50939   0.90057   0.78120   0.00000  Uiso   1.00
C17    C     0.62531   0.84902   0.81773   0.00000  Uiso   1.00
C18    C     0.57814   0.06091   0.68117   0.00000  Uiso   1.00
C19    C     0.51509   0.05790   0.61907   0.00000  Uiso   1.00
C20    C     0.63359   0.07830   0.58145   0.00000  Uiso   1.00
C21    C     0.48208   0.11532   0.77082   0.00000  Uiso   1.00
C22    C     0.33827   0.15808   0.78410   0.00000  Uiso   1.00
C23    C     0.37590   0.22432   0.82194   0.00000  Uiso   1.00
H24    H     0.93039   0.10022   0.79249   0.00000  Uiso   1.00
H25    H     0.00187   0.96407   0.84776   0.00000  Uiso   1.00
H26    H     0.00755   0.12139   0.68565   0.00000  Uiso   1.00
H27    H     0.83076   0.22155   0.85065   0.00000  Uiso   1.00
H28    H     0.00388   0.80315   0.89857   0.00000  Uiso   1.00
H29    H     0.01584   0.13488   0.55676   0.00000  Uiso   1.00
H30    H     0.64304   0.34611   0.90470   0.00000  Uiso   1.00
H31    H     0.33499   0.02348   0.71201   0.00000  Uiso   1.00
H32    H     0.37380   0.88311   0.76287   0.00000  Uiso   1.00
H33    H     0.37949   0.04043   0.60076   0.00000  Uiso   1.00
H34    H     0.20270   0.14059   0.76576   0.00000  Uiso   1.00
H35    H     0.49411   0.73744   0.82967   0.00000  Uiso   1.00
H36    H     0.50607   0.06918   0.48785   0.00000  Uiso   1.00
H37    H     0.13328   0.28039   0.83579   0.00000  Uiso   1.00
O38    O     0.78528   0.67934   0.89901   0.00000  Uiso   1.00
O39    O     0.80097   0.11457   0.45056   0.00000  Uiso   1.00
O40    O     0.31187   0.39168   0.90705   0.00000  Uiso   1.00
N41    N     0.87857   0.80696   0.87539   0.00000  Uiso   1.00
N42    N     0.88976   0.11709   0.55581   0.00000  Uiso   1.00
N43    N     0.54123   0.31458   0.88109   0.00000  Uiso   1.00
N44    N     0.60426   0.77160   0.83831   0.00000  Uiso   1.00
N45    N     0.61546   0.08173   0.51873   0.00000  Uiso   1.00
N46    N     0.26693   0.27922   0.84401   0.00000  Uiso   1.00
C47    C     0.20602   0.58264   0.72594   0.00000  Uiso   1.00
C48    C     0.24975   0.49803   0.70707   0.00000  Uiso   1.00
C49    C     0.13372   0.44658   0.67055   0.00000  Uiso   1.00
C50    C     0.19916   0.37164   0.65855   0.00000  Uiso   1.00
C51    C     0.24039   0.24368   0.62566   0.00000  Uiso   1.00
C52    C     0.24666   0.58349   0.79515   0.00000  Uiso   1.00
C53    C     0.12802   0.60391   0.83269   0.00000  Uiso   1.00
C54    C     0.19088   0.60093   0.89483   0.00000  Uiso   1.00
C55    C     0.22734   0.60570   0.99869   0.00000  Uiso   1.00
C56    C     0.34270   0.63791   0.70549   0.00000  Uiso   1.00
C57    C     0.30484   0.70409   0.66766   0.00000  Uiso   1.00
C58    C     0.44857   0.74694   0.65433   0.00000  Uiso   1.00
C59    C     0.63416   0.83621   0.61899   0.00000  Uiso   1.00
C60    C     0.52860   0.54106   0.76955   0.00000  Uiso   1.00
C61    C     0.42496   0.47544   0.73076   0.00000  Uiso   1.00
C62    C     0.49061   0.40057   0.71880   0.00000  Uiso   1.00
C63    C     0.37469   0.34902   0.68227   0.00000  Uiso   1.00
C64    C     0.42186   0.56091   0.81883   0.00000  Uiso   1.00
C65    C     0.48491   0.55790   0.88093   0.00000  Uiso   1.00
C66    C     0.36641   0.57830   0.91855   0.00000  Uiso   1.00
C67    C     0.51792   0.61532   0.72918   0.00000  Uiso   1.00
C68    C     0.66173   0.65808   0.71590   0.00000  Uiso   1.00
C69    C     0.62410   0.72432   0.67806   0.00000  Uiso   1.00
H70    H     0.06961   0.60022   0.70751   0.00000  Uiso   1.00
H71    H     0.99813   0.46407   0.65224   0.00000  Uiso   1.00
H72    H     0.99245   0.62139   0.81435   0.00000  Uiso   1.00
H73    H     0.16924   0.72155   0.64935   0.00000  Uiso   1.00
H74    H     0.99612   0.30315   0.60143   0.00000  Uiso   1.00
H75    H     0.98416   0.63488   0.94324   0.00000  Uiso   1.00
H76    H     0.35696   0.84611   0.59530   0.00000  Uiso   1.00
H77    H     0.66501   0.52348   0.78799   0.00000  Uiso   1.00
H78    H     0.62620   0.38311   0.73713   0.00000  Uiso   1.00
H79    H     0.62051   0.54043   0.89924   0.00000  Uiso   1.00
H80    H     0.79730   0.64059   0.73424   0.00000  Uiso   1.00
H81    H     0.50589   0.23744   0.67033   0.00000  Uiso   1.00
H82    H     0.49393   0.56918   0.01215   0.00000  Uiso   1.00
H83    H     0.86672   0.78039   0.66421   0.00000  Uiso   1.00
O84    O     0.21472   0.17934   0.60099   0.00000  Uiso   1.00
O85    O     0.19903   0.61457   0.04944   0.00000  Uiso   1.00
O86    O     0.68813   0.89168   0.59295   0.00000  Uiso   1.00
N87    N     0.12143   0.30696   0.62461   0.00000  Uiso   1.00
N88    N     0.11024   0.61709   0.94419   0.00000  Uiso   1.00
N89    N     0.45877   0.81458   0.61891   0.00000  Uiso   1.00
N90    N     0.39574   0.27160   0.66169   0.00000  Uiso   1.00
N91    N     0.38454   0.58173   0.98127   0.00000  Uiso   1.00
N92    N     0.73307   0.77922   0.65599   0.00000  Uiso   1.00
C93    C     0.20602   0.91736   0.22594   0.00000  Uiso   1.00
C94    C     0.24975   0.00197   0.20707   0.00000  Uiso   1.00
C95    C     0.13372   0.05342   0.17055   0.00000  Uiso   1.00
C96    C     0.19916   0.12836   0.15855   0.00000  Uiso   1.00
C97    C     0.24039   0.25632   0.12566   0.00000  Uiso   1.00
C98    C     0.24666   0.91651   0.29515   0.00000  Uiso   1.00
C99    C     0.12802   0.89609   0.33269   0.00000  Uiso   1.00
C100   C     0.19088   0.89907   0.39483   0.00000  Uiso   1.00
C101   C     0.22734   0.89430   0.49869   0.00000  Uiso   1.00
C102   C     0.34270   0.86209   0.20549   0.00000  Uiso   1.00
C103   C     0.30484   0.79591   0.16766   0.00000  Uiso   1.00
C104   C     0.44857   0.75306   0.15433   0.00000  Uiso   1.00
C105   C     0.63416   0.66379   0.11899   0.00000  Uiso   1.00
C106   C     0.52860   0.95894   0.26955   0.00000  Uiso   1.00
C107   C     0.42496   0.02456   0.23076   0.00000  Uiso   1.00
C108   C     0.49061   0.09943   0.21880   0.00000  Uiso   1.00
C109   C     0.37469   0.15098   0.18227   0.00000  Uiso   1.00
C110   C     0.42186   0.93909   0.31883   0.00000  Uiso   1.00
C111   C     0.48491   0.94210   0.38093   0.00000  Uiso   1.00
C112   C     0.36641   0.92170   0.41855   0.00000  Uiso   1.00
C113   C     0.51792   0.88468   0.22918   0.00000  Uiso   1.00
C114   C     0.66173   0.84192   0.21590   0.00000  Uiso   1.00
C115   C     0.62410   0.77568   0.17806   0.00000  Uiso   1.00
H116   H     0.06961   0.89978   0.20751   0.00000  Uiso   1.00
H117   H     0.99813   0.03593   0.15224   0.00000  Uiso   1.00
H118   H     0.99245   0.87861   0.31435   0.00000  Uiso   1.00
H119   H     0.16924   0.77845   0.14935   0.00000  Uiso   1.00
H120   H     0.99612   0.19685   0.10143   0.00000  Uiso   1.00
H121   H     0.98416   0.86512   0.44324   0.00000  Uiso   1.00
H122   H     0.35696   0.65389   0.09530   0.00000  Uiso   1.00
H123   H     0.66501   0.97652   0.28799   0.00000  Uiso   1.00
H124   H     0.62620   0.11689   0.23713   0.00000  Uiso   1.00
H125   H     0.62051   0.95957   0.39924   0.00000  Uiso   1.00
H126   H     0.79730   0.85941   0.23424   0.00000  Uiso   1.00
H127   H     0.50589   0.26256   0.17033   0.00000  Uiso   1.00
H128   H     0.49393   0.93082   0.51215   0.00000  Uiso   1.00
H129   H     0.86672   0.71961   0.16421   0.00000  Uiso   1.00
O130   O     0.21472   0.32066   0.10099   0.00000  Uiso   1.00
O131   O     0.19903   0.88543   0.54944   0.00000  Uiso   1.00
O132   O     0.68813   0.60832   0.09295   0.00000  Uiso   1.00
N133   N     0.12143   0.19304   0.12461   0.00000  Uiso   1.00
N134   N     0.11024   0.88291   0.44419   0.00000  Uiso   1.00
N135   N     0.45877   0.68542   0.11891   0.00000  Uiso   1.00
N136   N     0.39574   0.22840   0.16169   0.00000  Uiso   1.00
N137   N     0.38454   0.91827   0.48127   0.00000  Uiso   1.00
N138   N     0.73307   0.72078   0.15599   0.00000  Uiso   1.00
C139   C     0.79398   0.41736   0.27406   0.00000  Uiso   1.00
C140   C     0.75025   0.50197   0.29293   0.00000  Uiso   1.00
C141   C     0.86628   0.55342   0.32945   0.00000  Uiso   1.00
C142   C     0.80084   0.62836   0.34145   0.00000  Uiso   1.00
C143   C     0.75961   0.75632   0.37434   0.00000  Uiso   1.00
C144   C     0.75334   0.41651   0.20485   0.00000  Uiso   1.00
C145   C     0.87198   0.39609   0.16731   0.00000  Uiso   1.00
C146   C     0.80912   0.39907   0.10517   0.00000  Uiso   1.00
C147   C     0.77266   0.39430   0.00131   0.00000  Uiso   1.00
C148   C     0.65730   0.36209   0.29451   0.00000  Uiso   1.00
C149   C     0.69516   0.29591   0.33234   0.00000  Uiso   1.00
C150   C     0.55143   0.25306   0.34567   0.00000  Uiso   1.00
C151   C     0.36584   0.16379   0.38101   0.00000  Uiso   1.00
C152   C     0.47140   0.45894   0.23045   0.00000  Uiso   1.00
C153   C     0.57504   0.52456   0.26924   0.00000  Uiso   1.00
C154   C     0.50939   0.59943   0.28120   0.00000  Uiso   1.00
C155   C     0.62531   0.65098   0.31773   0.00000  Uiso   1.00
C156   C     0.57814   0.43909   0.18117   0.00000  Uiso   1.00
C157   C     0.51509   0.44210   0.11907   0.00000  Uiso   1.00
C158   C     0.63359   0.42170   0.08145   0.00000  Uiso   1.00
C159   C     0.48208   0.38468   0.27082   0.00000  Uiso   1.00
C160   C     0.33827   0.34192   0.28410   0.00000  Uiso   1.00
C161   C     0.37590   0.27568   0.32194   0.00000  Uiso   1.00
H162   H     0.93039   0.39978   0.29249   0.00000  Uiso   1.00
H163   H     0.00187   0.53593   0.34776   0.00000  Uiso   1.00
H164   H     0.00755   0.37861   0.18565   0.00000  Uiso   1.00
H165   H     0.83076   0.27845   0.35065   0.00000  Uiso   1.00
H166   H     0.00388   0.69685   0.39857   0.00000  Uiso   1.00
H167   H     0.01584   0.36512   0.05676   0.00000  Uiso   1.00
H168   H     0.64304   0.15389   0.40470   0.00000  Uiso   1.00
H169   H     0.33499   0.47652   0.21201   0.00000  Uiso   1.00
H170   H     0.37380   0.61689   0.26287   0.00000  Uiso   1.00
H171   H     0.37949   0.45957   0.10076   0.00000  Uiso   1.00
H172   H     0.20270   0.35941   0.26576   0.00000  Uiso   1.00
H173   H     0.49411   0.76256   0.32967   0.00000  Uiso   1.00
H174   H     0.50607   0.43082   0.98785   0.00000  Uiso   1.00
H175   H     0.13328   0.21961   0.33579   0.00000  Uiso   1.00
O176   O     0.78528   0.82066   0.39901   0.00000  Uiso   1.00
O177   O     0.80097   0.38543   0.95056   0.00000  Uiso   1.00
O178   O     0.31187   0.10832   0.40705   0.00000  Uiso   1.00
N179   N     0.87857   0.69304   0.37539   0.00000  Uiso   1.00
N180   N     0.88976   0.38291   0.05581   0.00000  Uiso   1.00
N181   N     0.54123   0.18542   0.38109   0.00000  Uiso   1.00
N182   N     0.60426   0.72840   0.33831   0.00000  Uiso   1.00
N183   N     0.61546   0.41827   0.01873   0.00000  Uiso   1.00
N184   N     0.26693   0.22078   0.34401   0.00000  Uiso   1.00
