data_job_00361
_audit_creation_date              2018-12-19
_audit_creation_method            'Materials Studio'
_symmetry_space_group_name_H-M    'P1'
_symmetry_Int_Tables_number       1
_symmetry_cell_setting            triclinic
loop_
_symmetry_equiv_pos_as_xyz
  x,y,z
_cell_length_a                    14.8926
_cell_length_b                    27.6080
_cell_length_c                    10.1980
_cell_angle_alpha                 90.0000
_cell_angle_beta                  142.5864
_cell_angle_gamma                 90.0000
loop_
_atom_site_label
_atom_site_type_symbol
_atom_site_fract_x
_atom_site_fract_y
_atom_site_fract_z
_atom_site_U_iso_or_equiv
_atom_site_adp_type
_atom_site_occupancy
C1     C     0.68744   0.89112   0.34216   0.00000  Uiso   1.00
C2     C     0.73385   0.85173   0.49241   0.00000  Uiso   1.00
C3     C     0.87819   0.83889   0.68997   0.00000  Uiso   1.00
C4     C     0.89752   0.80193   0.80309   0.00000  Uiso   1.00
C5     C     0.98796   0.74429   0.04876   0.00000  Uiso   1.00
C6     C     0.58694   0.86646   0.12582   0.00000  Uiso   1.00
C7     C     0.60777   0.86602   0.01515   0.00000  Uiso   1.00
C8     C     0.50342   0.84146   0.81966   0.00000  Uiso   1.00
C9     C     0.36573   0.80674   0.49612   0.00000  Uiso   1.00
C10    C     0.58913   0.92580   0.30515   0.00000  Uiso   1.00
C11    C     0.61177   0.97526   0.34522   0.00000  Uiso   1.00
C12    C     0.50924   0.00066   0.30066   0.00000  Uiso   1.00
C13    C     0.37494   0.05807   0.25557   0.00000  Uiso   1.00
C14    C     0.46507   0.84829   0.19173   0.00000  Uiso   1.00
C15    C     0.61306   0.82847   0.41069   0.00000  Uiso   1.00
C16    C     0.63217   0.79152   0.52354   0.00000  Uiso   1.00
C17    C     0.77653   0.77863   0.72124   0.00000  Uiso   1.00
C18    C     0.46617   0.84320   0.04411   0.00000  Uiso   1.00
C19    C     0.36175   0.81864   0.84872   0.00000  Uiso   1.00
C20    C     0.38242   0.81816   0.73779   0.00000  Uiso   1.00
C21    C     0.46835   0.90254   0.22345   0.00000  Uiso   1.00
C22    C     0.36575   0.92788   0.17880   0.00000  Uiso   1.00
C23    C     0.38824   0.97736   0.21880   0.00000  Uiso   1.00
H24    H     0.78146   0.90922   0.40576   0.00000  Uiso   1.00
H25    H     0.97164   0.85690   0.75314   0.00000  Uiso   1.00
H26    H     0.70124   0.88403   0.07841   0.00000  Uiso   1.00
H27    H     0.70525   0.99325   0.40845   0.00000  Uiso   1.00
H28    H     0.12921   0.78862   0.10220   0.00000  Uiso   1.00
H29    H     0.55905   0.84584   0.67948   0.00000  Uiso   1.00
H30    H     0.56749   0.07614   0.37541   0.00000  Uiso   1.00
H31    H     0.37103   0.83018   0.12810   0.00000  Uiso   1.00
H32    H     0.53868   0.77352   0.46026   0.00000  Uiso   1.00
H33    H     0.26830   0.80065   0.78553   0.00000  Uiso   1.00
H34    H     0.27230   0.90987   0.11557   0.00000  Uiso   1.00
H35    H     0.77781   0.72095   0.86449   0.00000  Uiso   1.00
H36    H     0.20765   0.77817   0.44175   0.00000  Uiso   1.00
H37    H     0.21609   0.00847   0.13769   0.00000  Uiso   1.00
O38    O     0.07121   0.71892   0.20682   0.00000  Uiso   1.00
O39    O     0.32317   0.79400   0.34025   0.00000  Uiso   1.00
O40    O     0.33424   0.09616   0.25330   0.00000  Uiso   1.00
N41    N     0.02350   0.78048   0.00069   0.00000  Uiso   1.00
N42    N     0.49045   0.83396   0.67054   0.00000  Uiso   1.00
N43    N     0.49832   0.04928   0.32113   0.00000  Uiso   1.00
N44    N     0.83442   0.74406   0.87278   0.00000  Uiso   1.00
N45    N     0.30136   0.79755   0.54263   0.00000  Uiso   1.00
N46    N     0.30923   0.01287   0.19322   0.00000  Uiso   1.00
C47    C     0.31256   0.39112   0.15784   0.00000  Uiso   1.00
C48    C     0.26615   0.35173   0.00759   0.00000  Uiso   1.00
C49    C     0.12181   0.33889   0.81003   0.00000  Uiso   1.00
C50    C     0.10248   0.30193   0.69691   0.00000  Uiso   1.00
C51    C     0.01204   0.24429   0.45124   0.00000  Uiso   1.00
C52    C     0.41306   0.36646   0.37418   0.00000  Uiso   1.00
C53    C     0.39223   0.36602   0.48485   0.00000  Uiso   1.00
C54    C     0.49658   0.34146   0.68034   0.00000  Uiso   1.00
C55    C     0.63427   0.30674   0.00388   0.00000  Uiso   1.00
C56    C     0.41087   0.42580   0.19485   0.00000  Uiso   1.00
C57    C     0.38823   0.47526   0.15478   0.00000  Uiso   1.00
C58    C     0.49076   0.50066   0.19934   0.00000  Uiso   1.00
C59    C     0.62506   0.55807   0.24443   0.00000  Uiso   1.00
C60    C     0.53493   0.34829   0.30827   0.00000  Uiso   1.00
C61    C     0.38694   0.32847   0.08931   0.00000  Uiso   1.00
C62    C     0.36783   0.29152   0.97646   0.00000  Uiso   1.00
C63    C     0.22347   0.27863   0.77876   0.00000  Uiso   1.00
C64    C     0.53383   0.34320   0.45589   0.00000  Uiso   1.00
C65    C     0.63825   0.31864   0.65128   0.00000  Uiso   1.00
C66    C     0.61758   0.31816   0.76221   0.00000  Uiso   1.00
C67    C     0.53165   0.40254   0.27655   0.00000  Uiso   1.00
C68    C     0.63425   0.42788   0.32120   0.00000  Uiso   1.00
C69    C     0.61176   0.47736   0.28120   0.00000  Uiso   1.00
H70    H     0.21854   0.40922   0.09424   0.00000  Uiso   1.00
H71    H     0.02836   0.35690   0.74686   0.00000  Uiso   1.00
H72    H     0.29876   0.38403   0.42159   0.00000  Uiso   1.00
H73    H     0.29475   0.49325   0.09155   0.00000  Uiso   1.00
H74    H     0.87079   0.28862   0.39780   0.00000  Uiso   1.00
H75    H     0.44095   0.34584   0.82052   0.00000  Uiso   1.00
H76    H     0.43251   0.57614   0.12459   0.00000  Uiso   1.00
H77    H     0.62897   0.33018   0.37190   0.00000  Uiso   1.00
H78    H     0.46132   0.27352   0.03974   0.00000  Uiso   1.00
H79    H     0.73170   0.30065   0.71447   0.00000  Uiso   1.00
H80    H     0.72770   0.40987   0.38443   0.00000  Uiso   1.00
H81    H     0.22219   0.22095   0.63551   0.00000  Uiso   1.00
H82    H     0.79235   0.27817   0.05825   0.00000  Uiso   1.00
H83    H     0.78391   0.50847   0.36231   0.00000  Uiso   1.00
O84    O     0.92879   0.21892   0.29318   0.00000  Uiso   1.00
O85    O     0.67683   0.29400   0.15975   0.00000  Uiso   1.00
O86    O     0.66576   0.59616   0.24670   0.00000  Uiso   1.00
N87    N     0.97650   0.28048   0.49931   0.00000  Uiso   1.00
N88    N     0.50955   0.33396   0.82946   0.00000  Uiso   1.00
N89    N     0.50168   0.54928   0.17887   0.00000  Uiso   1.00
N90    N     0.16558   0.24406   0.62722   0.00000  Uiso   1.00
N91    N     0.69864   0.29755   0.95737   0.00000  Uiso   1.00
N92    N     0.69077   0.51287   0.30678   0.00000  Uiso   1.00
C93    C     0.31256   0.10888   0.65784   0.00000  Uiso   1.00
C94    C     0.26615   0.14827   0.50759   0.00000  Uiso   1.00
C95    C     0.12181   0.16111   0.31003   0.00000  Uiso   1.00
C96    C     0.10248   0.19807   0.19691   0.00000  Uiso   1.00
C97    C     0.01204   0.25571   0.95124   0.00000  Uiso   1.00
C98    C     0.41306   0.13354   0.87418   0.00000  Uiso   1.00
C99    C     0.39223   0.13398   0.98485   0.00000  Uiso   1.00
C100   C     0.49658   0.15854   0.18034   0.00000  Uiso   1.00
C101   C     0.63427   0.19326   0.50388   0.00000  Uiso   1.00
C102   C     0.41087   0.07420   0.69485   0.00000  Uiso   1.00
C103   C     0.38823   0.02474   0.65478   0.00000  Uiso   1.00
C104   C     0.49076   0.99934   0.69934   0.00000  Uiso   1.00
C105   C     0.62506   0.94193   0.74443   0.00000  Uiso   1.00
C106   C     0.53493   0.15171   0.80827   0.00000  Uiso   1.00
C107   C     0.38694   0.17153   0.58931   0.00000  Uiso   1.00
C108   C     0.36783   0.20848   0.47646   0.00000  Uiso   1.00
C109   C     0.22347   0.22137   0.27876   0.00000  Uiso   1.00
C110   C     0.53383   0.15680   0.95589   0.00000  Uiso   1.00
C111   C     0.63825   0.18136   0.15128   0.00000  Uiso   1.00
C112   C     0.61758   0.18184   0.26221   0.00000  Uiso   1.00
C113   C     0.53165   0.09746   0.77655   0.00000  Uiso   1.00
C114   C     0.63425   0.07212   0.82120   0.00000  Uiso   1.00
C115   C     0.61176   0.02264   0.78120   0.00000  Uiso   1.00
H116   H     0.21854   0.09078   0.59424   0.00000  Uiso   1.00
H117   H     0.02836   0.14310   0.24686   0.00000  Uiso   1.00
H118   H     0.29876   0.11597   0.92159   0.00000  Uiso   1.00
H119   H     0.29475   0.00675   0.59155   0.00000  Uiso   1.00
H120   H     0.87079   0.21138   0.89780   0.00000  Uiso   1.00
H121   H     0.44095   0.15416   0.32052   0.00000  Uiso   1.00
H122   H     0.43251   0.92386   0.62459   0.00000  Uiso   1.00
H123   H     0.62897   0.16982   0.87190   0.00000  Uiso   1.00
H124   H     0.46132   0.22648   0.53974   0.00000  Uiso   1.00
H125   H     0.73170   0.19935   0.21447   0.00000  Uiso   1.00
H126   H     0.72770   0.09013   0.88443   0.00000  Uiso   1.00
H127   H     0.22219   0.27905   0.13551   0.00000  Uiso   1.00
H128   H     0.79235   0.22183   0.55825   0.00000  Uiso   1.00
H129   H     0.78391   0.99153   0.86231   0.00000  Uiso   1.00
O130   O     0.92879   0.28108   0.79318   0.00000  Uiso   1.00
O131   O     0.67683   0.20600   0.65975   0.00000  Uiso   1.00
O132   O     0.66576   0.90384   0.74670   0.00000  Uiso   1.00
N133   N     0.97650   0.21952   0.99931   0.00000  Uiso   1.00
N134   N     0.50955   0.16604   0.32946   0.00000  Uiso   1.00
N135   N     0.50168   0.95072   0.67887   0.00000  Uiso   1.00
N136   N     0.16558   0.25594   0.12722   0.00000  Uiso   1.00
N137   N     0.69864   0.20245   0.45737   0.00000  Uiso   1.00
N138   N     0.69077   0.98713   0.80678   0.00000  Uiso   1.00
C139   C     0.68744   0.60888   0.84216   0.00000  Uiso   1.00
C140   C     0.73385   0.64827   0.99241   0.00000  Uiso   1.00
C141   C     0.87819   0.66111   0.18997   0.00000  Uiso   1.00
C142   C     0.89752   0.69807   0.30309   0.00000  Uiso   1.00
C143   C     0.98796   0.75571   0.54876   0.00000  Uiso   1.00
C144   C     0.58694   0.63354   0.62582   0.00000  Uiso   1.00
C145   C     0.60777   0.63398   0.51515   0.00000  Uiso   1.00
C146   C     0.50342   0.65854   0.31966   0.00000  Uiso   1.00
C147   C     0.36573   0.69326   0.99612   0.00000  Uiso   1.00
C148   C     0.58913   0.57420   0.80515   0.00000  Uiso   1.00
C149   C     0.61177   0.52474   0.84522   0.00000  Uiso   1.00
C150   C     0.50924   0.49934   0.80066   0.00000  Uiso   1.00
C151   C     0.37494   0.44193   0.75557   0.00000  Uiso   1.00
C152   C     0.46507   0.65171   0.69173   0.00000  Uiso   1.00
C153   C     0.61306   0.67153   0.91069   0.00000  Uiso   1.00
C154   C     0.63217   0.70848   0.02354   0.00000  Uiso   1.00
C155   C     0.77653   0.72137   0.22124   0.00000  Uiso   1.00
C156   C     0.46617   0.65680   0.54411   0.00000  Uiso   1.00
C157   C     0.36175   0.68136   0.34872   0.00000  Uiso   1.00
C158   C     0.38242   0.68184   0.23779   0.00000  Uiso   1.00
C159   C     0.46835   0.59746   0.72345   0.00000  Uiso   1.00
C160   C     0.36575   0.57212   0.67880   0.00000  Uiso   1.00
C161   C     0.38824   0.52264   0.71880   0.00000  Uiso   1.00
H162   H     0.78146   0.59078   0.90576   0.00000  Uiso   1.00
H163   H     0.97164   0.64310   0.25314   0.00000  Uiso   1.00
H164   H     0.70124   0.61597   0.57841   0.00000  Uiso   1.00
H165   H     0.70525   0.50675   0.90845   0.00000  Uiso   1.00
H166   H     0.12921   0.71138   0.60220   0.00000  Uiso   1.00
H167   H     0.55905   0.65416   0.17948   0.00000  Uiso   1.00
H168   H     0.56749   0.42386   0.87541   0.00000  Uiso   1.00
H169   H     0.37103   0.66982   0.62810   0.00000  Uiso   1.00
H170   H     0.53868   0.72648   0.96026   0.00000  Uiso   1.00
H171   H     0.26830   0.69935   0.28553   0.00000  Uiso   1.00
H172   H     0.27230   0.59013   0.61557   0.00000  Uiso   1.00
H173   H     0.77781   0.77905   0.36449   0.00000  Uiso   1.00
H174   H     0.20765   0.72183   0.94175   0.00000  Uiso   1.00
H175   H     0.21609   0.49153   0.63769   0.00000  Uiso   1.00
O176   O     0.07121   0.78108   0.70682   0.00000  Uiso   1.00
O177   O     0.32317   0.70600   0.84025   0.00000  Uiso   1.00
O178   O     0.33424   0.40384   0.75330   0.00000  Uiso   1.00
N179   N     0.02350   0.71952   0.50069   0.00000  Uiso   1.00
N180   N     0.49045   0.66604   0.17054   0.00000  Uiso   1.00
N181   N     0.49832   0.45072   0.82113   0.00000  Uiso   1.00
N182   N     0.83442   0.75594   0.37278   0.00000  Uiso   1.00
N183   N     0.30136   0.70245   0.04263   0.00000  Uiso   1.00
N184   N     0.30923   0.48713   0.69322   0.00000  Uiso   1.00
