data_job_01700
_audit_creation_date              2018-12-19
_audit_creation_method            'Materials Studio'
_symmetry_space_group_name_H-M    'P1'
_symmetry_Int_Tables_number       1
_symmetry_cell_setting            triclinic
loop_
_symmetry_equiv_pos_as_xyz
  x,y,z
_cell_length_a                    16.2355
_cell_length_b                    16.2355
_cell_length_c                    20.8294
_cell_angle_alpha                 90.0000
_cell_angle_beta                  90.0000
_cell_angle_gamma                 90.0000
loop_
_atom_site_label
_atom_site_type_symbol
_atom_site_fract_x
_atom_site_fract_y
_atom_site_fract_z
_atom_site_U_iso_or_equiv
_atom_site_adp_type
_atom_site_occupancy
C1     C     0.32541   0.73285   0.20653   0.00000  Uiso   1.00
C2     C     0.25835   0.68749   0.16942   0.00000  Uiso   1.00
C3     C     0.18323   0.72043   0.15067   0.00000  Uiso   1.00
C4     C     0.13027   0.66891   0.11710   0.00000  Uiso   1.00
C5     C     0.02286   0.61086   0.06167   0.00000  Uiso   1.00
C6     C     0.34186   0.68151   0.26648   0.00000  Uiso   1.00
C7     C     0.33697   0.70943   0.32934   0.00000  Uiso   1.00
C8     C     0.35433   0.65287   0.37748   0.00000  Uiso   1.00
C9     C     0.37663   0.58556   0.47274   0.00000  Uiso   1.00
C10    C     0.40311   0.72672   0.16569   0.00000  Uiso   1.00
C11    C     0.44974   0.79264   0.14382   0.00000  Uiso   1.00
C12    C     0.51868   0.77415   0.10711   0.00000  Uiso   1.00
C13    C     0.63609   0.77702   0.04588   0.00000  Uiso   1.00
C14    C     0.36496   0.58279   0.18025   0.00000  Uiso   1.00
C15    C     0.27983   0.60599   0.15514   0.00000  Uiso   1.00
C16    C     0.22698   0.55441   0.12159   0.00000  Uiso   1.00
C17    C     0.15179   0.58726   0.10279   0.00000  Uiso   1.00
C18    C     0.36334   0.60001   0.25221   0.00000  Uiso   1.00
C19    C     0.38072   0.54340   0.30026   0.00000  Uiso   1.00
C20    C     0.37585   0.57122   0.36318   0.00000  Uiso   1.00
C21    C     0.42459   0.64521   0.15141   0.00000  Uiso   1.00
C22    C     0.49349   0.62662   0.11473   0.00000  Uiso   1.00
C23    C     0.54020   0.69250   0.09281   0.00000  Uiso   1.00
H24    H     0.30868   0.79631   0.21765   0.00000  Uiso   1.00
H25    H     0.16662   0.78351   0.16174   0.00000  Uiso   1.00
H26    H     0.32035   0.77250   0.34038   0.00000  Uiso   1.00
H27    H     0.43310   0.85571   0.15488   0.00000  Uiso   1.00
H28    H     0.01858   0.73336   0.09346   0.00000  Uiso   1.00
H29    H     0.34275   0.71017   0.47014   0.00000  Uiso   1.00
H30    H     0.58050   0.88562   0.07898   0.00000  Uiso   1.00
H31    H     0.38168   0.51933   0.16913   0.00000  Uiso   1.00
H32    H     0.24362   0.49133   0.11055   0.00000  Uiso   1.00
H33    H     0.39735   0.48033   0.28919   0.00000  Uiso   1.00
H34    H     0.51009   0.56353   0.10369   0.00000  Uiso   1.00
H35    H     0.08107   0.49622   0.05192   0.00000  Uiso   1.00
H36    H     0.40524   0.47303   0.42860   0.00000  Uiso   1.00
H37    H     0.64299   0.64848   0.03744   0.00000  Uiso   1.00
O38    O     0.95768   0.60136   0.03505   0.00000  Uiso   1.00
O39    O     0.38299   0.57094   0.52923   0.00000  Uiso   1.00
O40    O     0.69491   0.80113   0.01604   0.00000  Uiso   1.00
N41    N     0.05224   0.68140   0.09172   0.00000  Uiso   1.00
N42    N     0.35531   0.65971   0.44389   0.00000  Uiso   1.00
N43    N     0.57760   0.82374   0.07820   0.00000  Uiso   1.00
N44    N     0.08587   0.55379   0.06936   0.00000  Uiso   1.00
N45    N     0.38893   0.53211   0.42153   0.00000  Uiso   1.00
N46    N     0.61122   0.69614   0.05585   0.00000  Uiso   1.00
C47    C     0.82541   0.23285   0.70653   0.00000  Uiso   1.00
C48    C     0.75835   0.18749   0.66942   0.00000  Uiso   1.00
C49    C     0.68323   0.22043   0.65067   0.00000  Uiso   1.00
C50    C     0.63027   0.16891   0.61710   0.00000  Uiso   1.00
C51    C     0.52286   0.11086   0.56167   0.00000  Uiso   1.00
C52    C     0.84186   0.18151   0.76648   0.00000  Uiso   1.00
C53    C     0.83697   0.20943   0.82934   0.00000  Uiso   1.00
C54    C     0.85433   0.15287   0.87748   0.00000  Uiso   1.00
C55    C     0.87663   0.08556   0.97274   0.00000  Uiso   1.00
C56    C     0.90311   0.22672   0.66569   0.00000  Uiso   1.00
C57    C     0.94974   0.29264   0.64382   0.00000  Uiso   1.00
C58    C     0.01868   0.27415   0.60711   0.00000  Uiso   1.00
C59    C     0.13609   0.27702   0.54588   0.00000  Uiso   1.00
C60    C     0.86496   0.08279   0.68025   0.00000  Uiso   1.00
C61    C     0.77983   0.10599   0.65514   0.00000  Uiso   1.00
C62    C     0.72698   0.05441   0.62159   0.00000  Uiso   1.00
C63    C     0.65179   0.08726   0.60279   0.00000  Uiso   1.00
C64    C     0.86334   0.10001   0.75221   0.00000  Uiso   1.00
C65    C     0.88072   0.04340   0.80026   0.00000  Uiso   1.00
C66    C     0.87585   0.07122   0.86318   0.00000  Uiso   1.00
C67    C     0.92459   0.14521   0.65141   0.00000  Uiso   1.00
C68    C     0.99349   0.12662   0.61473   0.00000  Uiso   1.00
C69    C     0.04020   0.19250   0.59281   0.00000  Uiso   1.00
H70    H     0.80868   0.29631   0.71765   0.00000  Uiso   1.00
H71    H     0.66662   0.28351   0.66174   0.00000  Uiso   1.00
H72    H     0.82035   0.27250   0.84038   0.00000  Uiso   1.00
H73    H     0.93310   0.35571   0.65488   0.00000  Uiso   1.00
H74    H     0.51858   0.23336   0.59346   0.00000  Uiso   1.00
H75    H     0.84275   0.21017   0.97014   0.00000  Uiso   1.00
H76    H     0.08050   0.38562   0.57898   0.00000  Uiso   1.00
H77    H     0.88168   0.01933   0.66913   0.00000  Uiso   1.00
H78    H     0.74362   0.99133   0.61055   0.00000  Uiso   1.00
H79    H     0.89735   0.98033   0.78919   0.00000  Uiso   1.00
H80    H     0.01009   0.06353   0.60369   0.00000  Uiso   1.00
H81    H     0.58107   0.99622   0.55192   0.00000  Uiso   1.00
H82    H     0.90524   0.97303   0.92860   0.00000  Uiso   1.00
H83    H     0.14299   0.14848   0.53744   0.00000  Uiso   1.00
O84    O     0.45768   0.10136   0.53505   0.00000  Uiso   1.00
O85    O     0.88299   0.07094   0.02923   0.00000  Uiso   1.00
O86    O     0.19491   0.30113   0.51604   0.00000  Uiso   1.00
N87    N     0.55224   0.18140   0.59172   0.00000  Uiso   1.00
N88    N     0.85531   0.15971   0.94389   0.00000  Uiso   1.00
N89    N     0.07760   0.32374   0.57820   0.00000  Uiso   1.00
N90    N     0.58587   0.05379   0.56936   0.00000  Uiso   1.00
N91    N     0.88893   0.03211   0.92153   0.00000  Uiso   1.00
N92    N     0.11122   0.19614   0.55585   0.00000  Uiso   1.00
C93    C     0.67459   0.26715   0.20653   0.00000  Uiso   1.00
C94    C     0.74165   0.31251   0.16942   0.00000  Uiso   1.00
C95    C     0.81677   0.27957   0.15067   0.00000  Uiso   1.00
C96    C     0.86973   0.33109   0.11710   0.00000  Uiso   1.00
C97    C     0.97714   0.38914   0.06167   0.00000  Uiso   1.00
C98    C     0.65814   0.31849   0.26648   0.00000  Uiso   1.00
C99    C     0.66303   0.29057   0.32934   0.00000  Uiso   1.00
C100   C     0.64567   0.34713   0.37748   0.00000  Uiso   1.00
C101   C     0.62337   0.41444   0.47274   0.00000  Uiso   1.00
C102   C     0.59689   0.27328   0.16569   0.00000  Uiso   1.00
C103   C     0.55026   0.20736   0.14382   0.00000  Uiso   1.00
C104   C     0.48132   0.22585   0.10711   0.00000  Uiso   1.00
C105   C     0.36391   0.22298   0.04588   0.00000  Uiso   1.00
C106   C     0.63504   0.41721   0.18025   0.00000  Uiso   1.00
C107   C     0.72017   0.39401   0.15514   0.00000  Uiso   1.00
C108   C     0.77302   0.44559   0.12159   0.00000  Uiso   1.00
C109   C     0.84821   0.41274   0.10279   0.00000  Uiso   1.00
C110   C     0.63666   0.39999   0.25221   0.00000  Uiso   1.00
C111   C     0.61928   0.45660   0.30026   0.00000  Uiso   1.00
C112   C     0.62415   0.42878   0.36318   0.00000  Uiso   1.00
C113   C     0.57541   0.35479   0.15141   0.00000  Uiso   1.00
C114   C     0.50651   0.37338   0.11473   0.00000  Uiso   1.00
C115   C     0.45980   0.30750   0.09281   0.00000  Uiso   1.00
H116   H     0.69132   0.20369   0.21765   0.00000  Uiso   1.00
H117   H     0.83338   0.21649   0.16174   0.00000  Uiso   1.00
H118   H     0.67965   0.22750   0.34038   0.00000  Uiso   1.00
H119   H     0.56690   0.14429   0.15488   0.00000  Uiso   1.00
H120   H     0.98142   0.26664   0.09346   0.00000  Uiso   1.00
H121   H     0.65725   0.28983   0.47014   0.00000  Uiso   1.00
H122   H     0.41950   0.11438   0.07898   0.00000  Uiso   1.00
H123   H     0.61832   0.48067   0.16913   0.00000  Uiso   1.00
H124   H     0.75638   0.50867   0.11055   0.00000  Uiso   1.00
H125   H     0.60265   0.51967   0.28919   0.00000  Uiso   1.00
H126   H     0.48991   0.43647   0.10369   0.00000  Uiso   1.00
H127   H     0.91893   0.50378   0.05192   0.00000  Uiso   1.00
H128   H     0.59476   0.52697   0.42860   0.00000  Uiso   1.00
H129   H     0.35701   0.35152   0.03744   0.00000  Uiso   1.00
O130   O     0.04232   0.39864   0.03505   0.00000  Uiso   1.00
O131   O     0.61701   0.42906   0.52923   0.00000  Uiso   1.00
O132   O     0.30509   0.19887   0.01604   0.00000  Uiso   1.00
N133   N     0.94776   0.31860   0.09172   0.00000  Uiso   1.00
N134   N     0.64469   0.34029   0.44389   0.00000  Uiso   1.00
N135   N     0.42240   0.17626   0.07820   0.00000  Uiso   1.00
N136   N     0.91413   0.44621   0.06936   0.00000  Uiso   1.00
N137   N     0.61107   0.46789   0.42153   0.00000  Uiso   1.00
N138   N     0.38878   0.30386   0.05585   0.00000  Uiso   1.00
C139   C     0.17459   0.76715   0.70653   0.00000  Uiso   1.00
C140   C     0.24165   0.81251   0.66942   0.00000  Uiso   1.00
C141   C     0.31677   0.77957   0.65067   0.00000  Uiso   1.00
C142   C     0.36973   0.83109   0.61710   0.00000  Uiso   1.00
C143   C     0.47714   0.88914   0.56167   0.00000  Uiso   1.00
C144   C     0.15814   0.81849   0.76648   0.00000  Uiso   1.00
C145   C     0.16303   0.79057   0.82934   0.00000  Uiso   1.00
C146   C     0.14567   0.84713   0.87748   0.00000  Uiso   1.00
C147   C     0.12337   0.91444   0.97274   0.00000  Uiso   1.00
C148   C     0.09689   0.77328   0.66569   0.00000  Uiso   1.00
C149   C     0.05026   0.70736   0.64382   0.00000  Uiso   1.00
C150   C     0.98132   0.72585   0.60711   0.00000  Uiso   1.00
C151   C     0.86391   0.72298   0.54588   0.00000  Uiso   1.00
C152   C     0.13504   0.91721   0.68025   0.00000  Uiso   1.00
C153   C     0.22017   0.89401   0.65514   0.00000  Uiso   1.00
C154   C     0.27302   0.94559   0.62159   0.00000  Uiso   1.00
C155   C     0.34821   0.91274   0.60279   0.00000  Uiso   1.00
C156   C     0.13666   0.89999   0.75221   0.00000  Uiso   1.00
C157   C     0.11928   0.95660   0.80026   0.00000  Uiso   1.00
C158   C     0.12415   0.92878   0.86318   0.00000  Uiso   1.00
C159   C     0.07541   0.85479   0.65141   0.00000  Uiso   1.00
C160   C     0.00651   0.87338   0.61473   0.00000  Uiso   1.00
C161   C     0.95980   0.80750   0.59281   0.00000  Uiso   1.00
H162   H     0.19132   0.70369   0.71765   0.00000  Uiso   1.00
H163   H     0.33338   0.71649   0.66174   0.00000  Uiso   1.00
H164   H     0.17965   0.72750   0.84038   0.00000  Uiso   1.00
H165   H     0.06690   0.64429   0.65488   0.00000  Uiso   1.00
H166   H     0.48142   0.76664   0.59346   0.00000  Uiso   1.00
H167   H     0.15725   0.78983   0.97014   0.00000  Uiso   1.00
H168   H     0.91950   0.61438   0.57898   0.00000  Uiso   1.00
H169   H     0.11832   0.98067   0.66913   0.00000  Uiso   1.00
H170   H     0.25638   0.00867   0.61055   0.00000  Uiso   1.00
H171   H     0.10265   0.01967   0.78919   0.00000  Uiso   1.00
H172   H     0.98991   0.93647   0.60369   0.00000  Uiso   1.00
H173   H     0.41893   0.00378   0.55192   0.00000  Uiso   1.00
H174   H     0.09476   0.02697   0.92860   0.00000  Uiso   1.00
H175   H     0.85701   0.85152   0.53744   0.00000  Uiso   1.00
O176   O     0.54232   0.89864   0.53505   0.00000  Uiso   1.00
O177   O     0.11701   0.92906   0.02923   0.00000  Uiso   1.00
O178   O     0.80509   0.69887   0.51604   0.00000  Uiso   1.00
N179   N     0.44776   0.81860   0.59172   0.00000  Uiso   1.00
N180   N     0.14469   0.84029   0.94389   0.00000  Uiso   1.00
N181   N     0.92240   0.67626   0.57820   0.00000  Uiso   1.00
N182   N     0.41413   0.94621   0.56936   0.00000  Uiso   1.00
N183   N     0.11107   0.96789   0.92153   0.00000  Uiso   1.00
N184   N     0.88878   0.80386   0.55585   0.00000  Uiso   1.00
C185   C     0.73285   0.67459   0.79347   0.00000  Uiso   1.00
C186   C     0.68749   0.74165   0.83058   0.00000  Uiso   1.00
C187   C     0.72043   0.81677   0.84933   0.00000  Uiso   1.00
C188   C     0.66891   0.86973   0.88290   0.00000  Uiso   1.00
C189   C     0.61086   0.97714   0.93833   0.00000  Uiso   1.00
C190   C     0.68151   0.65814   0.73352   0.00000  Uiso   1.00
C191   C     0.70943   0.66303   0.67066   0.00000  Uiso   1.00
C192   C     0.65287   0.64567   0.62252   0.00000  Uiso   1.00
C193   C     0.58556   0.62337   0.52726   0.00000  Uiso   1.00
C194   C     0.72672   0.59689   0.83431   0.00000  Uiso   1.00
C195   C     0.79264   0.55026   0.85618   0.00000  Uiso   1.00
C196   C     0.77415   0.48132   0.89289   0.00000  Uiso   1.00
C197   C     0.77702   0.36391   0.95412   0.00000  Uiso   1.00
C198   C     0.58279   0.63504   0.81975   0.00000  Uiso   1.00
C199   C     0.60599   0.72017   0.84486   0.00000  Uiso   1.00
C200   C     0.55441   0.77302   0.87841   0.00000  Uiso   1.00
C201   C     0.58726   0.84821   0.89721   0.00000  Uiso   1.00
C202   C     0.60001   0.63666   0.74779   0.00000  Uiso   1.00
C203   C     0.54340   0.61928   0.69974   0.00000  Uiso   1.00
C204   C     0.57122   0.62415   0.63682   0.00000  Uiso   1.00
C205   C     0.64521   0.57541   0.84859   0.00000  Uiso   1.00
C206   C     0.62662   0.50651   0.88527   0.00000  Uiso   1.00
C207   C     0.69250   0.45980   0.90719   0.00000  Uiso   1.00
H208   H     0.79631   0.69132   0.78235   0.00000  Uiso   1.00
H209   H     0.78351   0.83338   0.83826   0.00000  Uiso   1.00
H210   H     0.77250   0.67965   0.65962   0.00000  Uiso   1.00
H211   H     0.85571   0.56690   0.84512   0.00000  Uiso   1.00
H212   H     0.73336   0.98142   0.90654   0.00000  Uiso   1.00
H213   H     0.71017   0.65725   0.52986   0.00000  Uiso   1.00
H214   H     0.88562   0.41950   0.92102   0.00000  Uiso   1.00
H215   H     0.51933   0.61832   0.83087   0.00000  Uiso   1.00
H216   H     0.49133   0.75638   0.88945   0.00000  Uiso   1.00
H217   H     0.48033   0.60265   0.71081   0.00000  Uiso   1.00
H218   H     0.56353   0.48991   0.89631   0.00000  Uiso   1.00
H219   H     0.49622   0.91893   0.94808   0.00000  Uiso   1.00
H220   H     0.47303   0.59476   0.57140   0.00000  Uiso   1.00
H221   H     0.64848   0.35701   0.96256   0.00000  Uiso   1.00
O222   O     0.60136   0.04232   0.96495   0.00000  Uiso   1.00
O223   O     0.57094   0.61701   0.47077   0.00000  Uiso   1.00
O224   O     0.80113   0.30509   0.98396   0.00000  Uiso   1.00
N225   N     0.68140   0.94776   0.90828   0.00000  Uiso   1.00
N226   N     0.65971   0.64469   0.55611   0.00000  Uiso   1.00
N227   N     0.82374   0.42240   0.92180   0.00000  Uiso   1.00
N228   N     0.55379   0.91413   0.93064   0.00000  Uiso   1.00
N229   N     0.53211   0.61107   0.57847   0.00000  Uiso   1.00
N230   N     0.69614   0.38878   0.94415   0.00000  Uiso   1.00
C231   C     0.23285   0.17459   0.29347   0.00000  Uiso   1.00
C232   C     0.18749   0.24165   0.33058   0.00000  Uiso   1.00
C233   C     0.22043   0.31677   0.34933   0.00000  Uiso   1.00
C234   C     0.16891   0.36973   0.38290   0.00000  Uiso   1.00
C235   C     0.11086   0.47714   0.43833   0.00000  Uiso   1.00
C236   C     0.18151   0.15814   0.23352   0.00000  Uiso   1.00
C237   C     0.20943   0.16303   0.17066   0.00000  Uiso   1.00
C238   C     0.15287   0.14567   0.12252   0.00000  Uiso   1.00
C239   C     0.08556   0.12337   0.02726   0.00000  Uiso   1.00
C240   C     0.22672   0.09689   0.33431   0.00000  Uiso   1.00
C241   C     0.29264   0.05026   0.35618   0.00000  Uiso   1.00
C242   C     0.27415   0.98132   0.39289   0.00000  Uiso   1.00
C243   C     0.27702   0.86391   0.45412   0.00000  Uiso   1.00
C244   C     0.08279   0.13504   0.31975   0.00000  Uiso   1.00
C245   C     0.10599   0.22017   0.34486   0.00000  Uiso   1.00
C246   C     0.05441   0.27302   0.37841   0.00000  Uiso   1.00
C247   C     0.08726   0.34821   0.39721   0.00000  Uiso   1.00
C248   C     0.10001   0.13666   0.24779   0.00000  Uiso   1.00
C249   C     0.04340   0.11928   0.19974   0.00000  Uiso   1.00
C250   C     0.07122   0.12415   0.13682   0.00000  Uiso   1.00
C251   C     0.14521   0.07541   0.34859   0.00000  Uiso   1.00
C252   C     0.12662   0.00651   0.38527   0.00000  Uiso   1.00
C253   C     0.19250   0.95980   0.40719   0.00000  Uiso   1.00
H254   H     0.29631   0.19132   0.28235   0.00000  Uiso   1.00
H255   H     0.28351   0.33338   0.33826   0.00000  Uiso   1.00
H256   H     0.27250   0.17965   0.15962   0.00000  Uiso   1.00
H257   H     0.35571   0.06690   0.34512   0.00000  Uiso   1.00
H258   H     0.23336   0.48142   0.40654   0.00000  Uiso   1.00
H259   H     0.21017   0.15725   0.02986   0.00000  Uiso   1.00
H260   H     0.38562   0.91950   0.42102   0.00000  Uiso   1.00
H261   H     0.01933   0.11832   0.33087   0.00000  Uiso   1.00
H262   H     0.99133   0.25638   0.38945   0.00000  Uiso   1.00
H263   H     0.98033   0.10265   0.21081   0.00000  Uiso   1.00
H264   H     0.06353   0.98991   0.39631   0.00000  Uiso   1.00
H265   H     0.99622   0.41893   0.44808   0.00000  Uiso   1.00
H266   H     0.97303   0.09476   0.07140   0.00000  Uiso   1.00
H267   H     0.14848   0.85701   0.46256   0.00000  Uiso   1.00
O268   O     0.10136   0.54232   0.46495   0.00000  Uiso   1.00
O269   O     0.07094   0.11701   0.97077   0.00000  Uiso   1.00
O270   O     0.30113   0.80509   0.48396   0.00000  Uiso   1.00
N271   N     0.18140   0.44776   0.40828   0.00000  Uiso   1.00
N272   N     0.15971   0.14469   0.05611   0.00000  Uiso   1.00
N273   N     0.32374   0.92240   0.42180   0.00000  Uiso   1.00
N274   N     0.05379   0.41413   0.43064   0.00000  Uiso   1.00
N275   N     0.03211   0.11107   0.07847   0.00000  Uiso   1.00
N276   N     0.19614   0.88878   0.44415   0.00000  Uiso   1.00
C277   C     0.26715   0.32541   0.79347   0.00000  Uiso   1.00
C278   C     0.31251   0.25835   0.83058   0.00000  Uiso   1.00
C279   C     0.27957   0.18323   0.84933   0.00000  Uiso   1.00
C280   C     0.33109   0.13027   0.88290   0.00000  Uiso   1.00
C281   C     0.38914   0.02286   0.93833   0.00000  Uiso   1.00
C282   C     0.31849   0.34186   0.73352   0.00000  Uiso   1.00
C283   C     0.29057   0.33697   0.67066   0.00000  Uiso   1.00
C284   C     0.34713   0.35433   0.62252   0.00000  Uiso   1.00
C285   C     0.41444   0.37663   0.52726   0.00000  Uiso   1.00
C286   C     0.27328   0.40311   0.83431   0.00000  Uiso   1.00
C287   C     0.20736   0.44974   0.85618   0.00000  Uiso   1.00
C288   C     0.22585   0.51868   0.89289   0.00000  Uiso   1.00
C289   C     0.22298   0.63609   0.95412   0.00000  Uiso   1.00
C290   C     0.41721   0.36496   0.81975   0.00000  Uiso   1.00
C291   C     0.39401   0.27983   0.84486   0.00000  Uiso   1.00
C292   C     0.44559   0.22698   0.87841   0.00000  Uiso   1.00
C293   C     0.41274   0.15179   0.89721   0.00000  Uiso   1.00
C294   C     0.39999   0.36334   0.74779   0.00000  Uiso   1.00
C295   C     0.45660   0.38072   0.69974   0.00000  Uiso   1.00
C296   C     0.42878   0.37585   0.63682   0.00000  Uiso   1.00
C297   C     0.35479   0.42459   0.84859   0.00000  Uiso   1.00
C298   C     0.37338   0.49349   0.88527   0.00000  Uiso   1.00
C299   C     0.30750   0.54020   0.90719   0.00000  Uiso   1.00
H300   H     0.20369   0.30868   0.78235   0.00000  Uiso   1.00
H301   H     0.21649   0.16662   0.83826   0.00000  Uiso   1.00
H302   H     0.22750   0.32035   0.65962   0.00000  Uiso   1.00
H303   H     0.14429   0.43310   0.84512   0.00000  Uiso   1.00
H304   H     0.26664   0.01858   0.90654   0.00000  Uiso   1.00
H305   H     0.28983   0.34275   0.52986   0.00000  Uiso   1.00
H306   H     0.11438   0.58050   0.92102   0.00000  Uiso   1.00
H307   H     0.48067   0.38168   0.83087   0.00000  Uiso   1.00
H308   H     0.50867   0.24362   0.88945   0.00000  Uiso   1.00
H309   H     0.51967   0.39735   0.71081   0.00000  Uiso   1.00
H310   H     0.43647   0.51009   0.89631   0.00000  Uiso   1.00
H311   H     0.50378   0.08107   0.94808   0.00000  Uiso   1.00
H312   H     0.52697   0.40524   0.57140   0.00000  Uiso   1.00
H313   H     0.35152   0.64299   0.96256   0.00000  Uiso   1.00
O314   O     0.39864   0.95768   0.96495   0.00000  Uiso   1.00
O315   O     0.42906   0.38299   0.47077   0.00000  Uiso   1.00
O316   O     0.19887   0.69491   0.98396   0.00000  Uiso   1.00
N317   N     0.31860   0.05224   0.90828   0.00000  Uiso   1.00
N318   N     0.34029   0.35531   0.55611   0.00000  Uiso   1.00
N319   N     0.17626   0.57760   0.92180   0.00000  Uiso   1.00
N320   N     0.44621   0.08587   0.93064   0.00000  Uiso   1.00
N321   N     0.46789   0.38893   0.57847   0.00000  Uiso   1.00
N322   N     0.30386   0.61122   0.94415   0.00000  Uiso   1.00
C323   C     0.76715   0.82541   0.29347   0.00000  Uiso   1.00
C324   C     0.81251   0.75835   0.33058   0.00000  Uiso   1.00
C325   C     0.77957   0.68323   0.34933   0.00000  Uiso   1.00
C326   C     0.83109   0.63027   0.38290   0.00000  Uiso   1.00
C327   C     0.88914   0.52286   0.43833   0.00000  Uiso   1.00
C328   C     0.81849   0.84186   0.23352   0.00000  Uiso   1.00
C329   C     0.79057   0.83697   0.17066   0.00000  Uiso   1.00
C330   C     0.84713   0.85433   0.12252   0.00000  Uiso   1.00
C331   C     0.91444   0.87663   0.02726   0.00000  Uiso   1.00
C332   C     0.77328   0.90311   0.33431   0.00000  Uiso   1.00
C333   C     0.70736   0.94974   0.35618   0.00000  Uiso   1.00
C334   C     0.72585   0.01868   0.39289   0.00000  Uiso   1.00
C335   C     0.72298   0.13609   0.45412   0.00000  Uiso   1.00
C336   C     0.91721   0.86496   0.31975   0.00000  Uiso   1.00
C337   C     0.89401   0.77983   0.34486   0.00000  Uiso   1.00
C338   C     0.94559   0.72698   0.37841   0.00000  Uiso   1.00
C339   C     0.91274   0.65179   0.39721   0.00000  Uiso   1.00
C340   C     0.89999   0.86334   0.24779   0.00000  Uiso   1.00
C341   C     0.95660   0.88072   0.19974   0.00000  Uiso   1.00
C342   C     0.92878   0.87585   0.13682   0.00000  Uiso   1.00
C343   C     0.85479   0.92459   0.34859   0.00000  Uiso   1.00
C344   C     0.87338   0.99349   0.38527   0.00000  Uiso   1.00
C345   C     0.80750   0.04020   0.40719   0.00000  Uiso   1.00
H346   H     0.70369   0.80868   0.28235   0.00000  Uiso   1.00
H347   H     0.71649   0.66662   0.33826   0.00000  Uiso   1.00
H348   H     0.72750   0.82035   0.15962   0.00000  Uiso   1.00
H349   H     0.64429   0.93310   0.34512   0.00000  Uiso   1.00
H350   H     0.76664   0.51858   0.40654   0.00000  Uiso   1.00
H351   H     0.78983   0.84275   0.02986   0.00000  Uiso   1.00
H352   H     0.61438   0.08050   0.42102   0.00000  Uiso   1.00
H353   H     0.98067   0.88168   0.33087   0.00000  Uiso   1.00
H354   H     0.00867   0.74362   0.38945   0.00000  Uiso   1.00
H355   H     0.01967   0.89735   0.21081   0.00000  Uiso   1.00
H356   H     0.93647   0.01009   0.39631   0.00000  Uiso   1.00
H357   H     0.00378   0.58107   0.44808   0.00000  Uiso   1.00
H358   H     0.02697   0.90524   0.07140   0.00000  Uiso   1.00
H359   H     0.85152   0.14299   0.46256   0.00000  Uiso   1.00
O360   O     0.89864   0.45768   0.46495   0.00000  Uiso   1.00
O361   O     0.92906   0.88299   0.97077   0.00000  Uiso   1.00
O362   O     0.69887   0.19491   0.48396   0.00000  Uiso   1.00
N363   N     0.81860   0.55224   0.40828   0.00000  Uiso   1.00
N364   N     0.84029   0.85531   0.05611   0.00000  Uiso   1.00
N365   N     0.67626   0.07760   0.42180   0.00000  Uiso   1.00
N366   N     0.94621   0.58587   0.43064   0.00000  Uiso   1.00
N367   N     0.96789   0.88893   0.07847   0.00000  Uiso   1.00
N368   N     0.80386   0.11122   0.44415   0.00000  Uiso   1.00
