data_job_01207
_audit_creation_date              2018-12-19
_audit_creation_method            'Materials Studio'
_symmetry_space_group_name_H-M    'P1'
_symmetry_Int_Tables_number       1
_symmetry_cell_setting            triclinic
loop_
_symmetry_equiv_pos_as_xyz
  x,y,z
_cell_length_a                    33.9130
_cell_length_b                    33.9130
_cell_length_c                    7.2337
_cell_angle_alpha                 90.0000
_cell_angle_beta                  90.0000
_cell_angle_gamma                 120.0000
loop_
_atom_site_label
_atom_site_type_symbol
_atom_site_fract_x
_atom_site_fract_y
_atom_site_fract_z
_atom_site_U_iso_or_equiv
_atom_site_adp_type
_atom_site_occupancy
C1     C     0.05853   0.63544   0.57176   0.00000  Uiso   1.00
C2     C     0.01417   0.62886   0.65330   0.00000  Uiso   1.00
C3     C     0.97685   0.62332   0.55304   0.00000  Uiso   1.00
C4     C     0.93951   0.61779   0.65334   0.00000  Uiso   1.00
C5     C     0.87063   0.60760   0.75051   0.00000  Uiso   1.00
C6     C     0.09634   0.67982   0.65307   0.00000  Uiso   1.00
C7     C     0.12810   0.71712   0.55260   0.00000  Uiso   1.00
C8     C     0.15993   0.75449   0.65271   0.00000  Uiso   1.00
C9     C     0.21863   0.82341   0.74951   0.00000  Uiso   1.00
C10    C     0.06514   0.59766   0.65316   0.00000  Uiso   1.00
C11    C     0.07068   0.56589   0.55278   0.00000  Uiso   1.00
C12    C     0.07625   0.53409   0.65297   0.00000  Uiso   1.00
C13    C     0.08652   0.47543   0.74992   0.00000  Uiso   1.00
C14    C     0.05860   0.63547   0.92819   0.00000  Uiso   1.00
C15    C     0.01421   0.62888   0.84691   0.00000  Uiso   1.00
C16    C     0.97692   0.62336   0.94739   0.00000  Uiso   1.00
C17    C     0.93954   0.61781   0.84729   0.00000  Uiso   1.00
C18    C     0.09637   0.67984   0.84666   0.00000  Uiso   1.00
C19    C     0.12817   0.71716   0.94694   0.00000  Uiso   1.00
C20    C     0.15996   0.75451   0.84665   0.00000  Uiso   1.00
C21    C     0.06517   0.59768   0.84677   0.00000  Uiso   1.00
C22    C     0.07075   0.56592   0.94713   0.00000  Uiso   1.00
C23    C     0.07629   0.53411   0.84692   0.00000  Uiso   1.00
H24    H     0.05851   0.63542   0.42104   0.00000  Uiso   1.00
H25    H     0.97683   0.62331   0.40321   0.00000  Uiso   1.00
H26    H     0.12806   0.71710   0.40278   0.00000  Uiso   1.00
H27    H     0.07065   0.56588   0.40296   0.00000  Uiso   1.00
H28    H     0.88630   0.60991   0.46883   0.00000  Uiso   1.00
H29    H     0.20519   0.80765   0.46791   0.00000  Uiso   1.00
H30    H     0.08412   0.48879   0.46830   0.00000  Uiso   1.00
H31    H     0.05863   0.63549   0.07892   0.00000  Uiso   1.00
H32    H     0.97695   0.62337   0.09721   0.00000  Uiso   1.00
H33    H     0.12818   0.71716   0.09676   0.00000  Uiso   1.00
H34    H     0.07077   0.56595   0.09695   0.00000  Uiso   1.00
H35    H     0.88640   0.60996   0.03210   0.00000  Uiso   1.00
H36    H     0.20529   0.80771   0.03118   0.00000  Uiso   1.00
H37    H     0.08422   0.48884   0.03156   0.00000  Uiso   1.00
O38    O     0.83263   0.60198   0.75062   0.00000  Uiso   1.00
O39    O     0.25100   0.86141   0.74941   0.00000  Uiso   1.00
O40    O     0.09216   0.44307   0.74991   0.00000  Uiso   1.00
N41    N     0.89753   0.61157   0.59889   0.00000  Uiso   1.00
N42    N     0.19566   0.79646   0.59803   0.00000  Uiso   1.00
N43    N     0.08249   0.49835   0.59839   0.00000  Uiso   1.00
N44    N     0.89758   0.61160   0.90198   0.00000  Uiso   1.00
N45    N     0.19572   0.79649   0.90112   0.00000  Uiso   1.00
N46    N     0.08254   0.49838   0.90147   0.00000  Uiso   1.00
C47    C     0.36456   0.42310   0.57176   0.00000  Uiso   1.00
C48    C     0.37114   0.38531   0.65330   0.00000  Uiso   1.00
C49    C     0.37668   0.35353   0.55304   0.00000  Uiso   1.00
C50    C     0.38221   0.32172   0.65334   0.00000  Uiso   1.00
C51    C     0.39240   0.26303   0.75051   0.00000  Uiso   1.00
C52    C     0.32018   0.41652   0.65307   0.00000  Uiso   1.00
C53    C     0.28288   0.41097   0.55260   0.00000  Uiso   1.00
C54    C     0.24551   0.40543   0.65271   0.00000  Uiso   1.00
C55    C     0.17659   0.39523   0.74951   0.00000  Uiso   1.00
C56    C     0.40234   0.46748   0.65316   0.00000  Uiso   1.00
C57    C     0.43411   0.50479   0.55278   0.00000  Uiso   1.00
C58    C     0.46591   0.54217   0.65297   0.00000  Uiso   1.00
C59    C     0.52457   0.61109   0.74992   0.00000  Uiso   1.00
C60    C     0.36453   0.42313   0.92819   0.00000  Uiso   1.00
C61    C     0.37112   0.38533   0.84691   0.00000  Uiso   1.00
C62    C     0.37664   0.35356   0.94739   0.00000  Uiso   1.00
C63    C     0.38219   0.32173   0.84729   0.00000  Uiso   1.00
C64    C     0.32016   0.41653   0.84666   0.00000  Uiso   1.00
C65    C     0.28284   0.41100   0.94694   0.00000  Uiso   1.00
C66    C     0.24549   0.40545   0.84665   0.00000  Uiso   1.00
C67    C     0.40232   0.46750   0.84677   0.00000  Uiso   1.00
C68    C     0.43408   0.50482   0.94713   0.00000  Uiso   1.00
C69    C     0.46589   0.54218   0.84692   0.00000  Uiso   1.00
H70    H     0.36458   0.42308   0.42104   0.00000  Uiso   1.00
H71    H     0.37669   0.35352   0.40321   0.00000  Uiso   1.00
H72    H     0.28290   0.41097   0.40278   0.00000  Uiso   1.00
H73    H     0.43412   0.50477   0.40296   0.00000  Uiso   1.00
H74    H     0.39009   0.27640   0.46883   0.00000  Uiso   1.00
H75    H     0.19235   0.39753   0.46791   0.00000  Uiso   1.00
H76    H     0.51121   0.59533   0.46830   0.00000  Uiso   1.00
H77    H     0.36451   0.42314   0.07892   0.00000  Uiso   1.00
H78    H     0.37663   0.35358   0.09721   0.00000  Uiso   1.00
H79    H     0.28284   0.41102   0.09676   0.00000  Uiso   1.00
H80    H     0.43405   0.50482   0.09695   0.00000  Uiso   1.00
H81    H     0.39004   0.27644   0.03210   0.00000  Uiso   1.00
H82    H     0.19229   0.39758   0.03118   0.00000  Uiso   1.00
H83    H     0.51116   0.59538   0.03156   0.00000  Uiso   1.00
O84    O     0.39802   0.23065   0.75062   0.00000  Uiso   1.00
O85    O     0.13859   0.38958   0.74941   0.00000  Uiso   1.00
O86    O     0.55693   0.64909   0.74991   0.00000  Uiso   1.00
N87    N     0.38843   0.28596   0.59889   0.00000  Uiso   1.00
N88    N     0.20354   0.39921   0.59803   0.00000  Uiso   1.00
N89    N     0.50165   0.58414   0.59839   0.00000  Uiso   1.00
N90    N     0.38840   0.28598   0.90198   0.00000  Uiso   1.00
N91    N     0.20351   0.39923   0.90112   0.00000  Uiso   1.00
N92    N     0.50162   0.58416   0.90147   0.00000  Uiso   1.00
C93    C     0.57690   0.94147   0.57176   0.00000  Uiso   1.00
C94    C     0.61469   0.98583   0.65330   0.00000  Uiso   1.00
C95    C     0.64647   0.02315   0.55304   0.00000  Uiso   1.00
C96    C     0.67828   0.06049   0.65334   0.00000  Uiso   1.00
C97    C     0.73697   0.12937   0.75051   0.00000  Uiso   1.00
C98    C     0.58348   0.90366   0.65307   0.00000  Uiso   1.00
C99    C     0.58903   0.87190   0.55260   0.00000  Uiso   1.00
C100   C     0.59457   0.84007   0.65271   0.00000  Uiso   1.00
C101   C     0.60477   0.78137   0.74951   0.00000  Uiso   1.00
C102   C     0.53252   0.93486   0.65316   0.00000  Uiso   1.00
C103   C     0.49521   0.92932   0.55278   0.00000  Uiso   1.00
C104   C     0.45783   0.92375   0.65297   0.00000  Uiso   1.00
C105   C     0.38891   0.91348   0.74992   0.00000  Uiso   1.00
C106   C     0.57687   0.94140   0.92819   0.00000  Uiso   1.00
C107   C     0.61467   0.98579   0.84691   0.00000  Uiso   1.00
C108   C     0.64644   0.02308   0.94739   0.00000  Uiso   1.00
C109   C     0.67827   0.06046   0.84729   0.00000  Uiso   1.00
C110   C     0.58347   0.90363   0.84666   0.00000  Uiso   1.00
C111   C     0.58900   0.87183   0.94694   0.00000  Uiso   1.00
C112   C     0.59455   0.84004   0.84665   0.00000  Uiso   1.00
C113   C     0.53250   0.93483   0.84677   0.00000  Uiso   1.00
C114   C     0.49518   0.92925   0.94713   0.00000  Uiso   1.00
C115   C     0.45782   0.92371   0.84692   0.00000  Uiso   1.00
H116   H     0.57692   0.94149   0.42104   0.00000  Uiso   1.00
H117   H     0.64648   0.02317   0.40321   0.00000  Uiso   1.00
H118   H     0.58903   0.87194   0.40278   0.00000  Uiso   1.00
H119   H     0.49523   0.92935   0.40296   0.00000  Uiso   1.00
H120   H     0.72360   0.11370   0.46883   0.00000  Uiso   1.00
H121   H     0.60247   0.79481   0.46791   0.00000  Uiso   1.00
H122   H     0.40467   0.91588   0.46830   0.00000  Uiso   1.00
H123   H     0.57686   0.94137   0.07892   0.00000  Uiso   1.00
H124   H     0.64642   0.02305   0.09721   0.00000  Uiso   1.00
H125   H     0.58898   0.87182   0.09676   0.00000  Uiso   1.00
H126   H     0.49518   0.92923   0.09695   0.00000  Uiso   1.00
H127   H     0.72356   0.11360   0.03210   0.00000  Uiso   1.00
H128   H     0.60242   0.79471   0.03118   0.00000  Uiso   1.00
H129   H     0.40462   0.91578   0.03156   0.00000  Uiso   1.00
O130   O     0.76935   0.16737   0.75062   0.00000  Uiso   1.00
O131   O     0.61042   0.74900   0.74941   0.00000  Uiso   1.00
O132   O     0.35091   0.90784   0.74991   0.00000  Uiso   1.00
N133   N     0.71404   0.10247   0.59889   0.00000  Uiso   1.00
N134   N     0.60079   0.80434   0.59803   0.00000  Uiso   1.00
N135   N     0.41586   0.91751   0.59839   0.00000  Uiso   1.00
N136   N     0.71402   0.10242   0.90198   0.00000  Uiso   1.00
N137   N     0.60077   0.80428   0.90112   0.00000  Uiso   1.00
N138   N     0.41584   0.91746   0.90147   0.00000  Uiso   1.00
C139   C     0.94147   0.36456   0.42824   0.00000  Uiso   1.00
C140   C     0.98583   0.37114   0.34670   0.00000  Uiso   1.00
C141   C     0.02315   0.37668   0.44696   0.00000  Uiso   1.00
C142   C     0.06049   0.38221   0.34666   0.00000  Uiso   1.00
C143   C     0.12937   0.39240   0.24949   0.00000  Uiso   1.00
C144   C     0.90366   0.32018   0.34693   0.00000  Uiso   1.00
C145   C     0.87190   0.28288   0.44740   0.00000  Uiso   1.00
C146   C     0.84007   0.24551   0.34729   0.00000  Uiso   1.00
C147   C     0.78137   0.17659   0.25049   0.00000  Uiso   1.00
C148   C     0.93486   0.40234   0.34684   0.00000  Uiso   1.00
C149   C     0.92932   0.43411   0.44722   0.00000  Uiso   1.00
C150   C     0.92375   0.46591   0.34703   0.00000  Uiso   1.00
C151   C     0.91348   0.52457   0.25008   0.00000  Uiso   1.00
C152   C     0.94140   0.36453   0.07181   0.00000  Uiso   1.00
C153   C     0.98579   0.37112   0.15309   0.00000  Uiso   1.00
C154   C     0.02308   0.37664   0.05261   0.00000  Uiso   1.00
C155   C     0.06046   0.38219   0.15271   0.00000  Uiso   1.00
C156   C     0.90363   0.32016   0.15334   0.00000  Uiso   1.00
C157   C     0.87183   0.28284   0.05306   0.00000  Uiso   1.00
C158   C     0.84004   0.24549   0.15335   0.00000  Uiso   1.00
C159   C     0.93483   0.40232   0.15323   0.00000  Uiso   1.00
C160   C     0.92925   0.43408   0.05287   0.00000  Uiso   1.00
C161   C     0.92371   0.46589   0.15308   0.00000  Uiso   1.00
H162   H     0.94149   0.36458   0.57896   0.00000  Uiso   1.00
H163   H     0.02317   0.37669   0.59679   0.00000  Uiso   1.00
H164   H     0.87194   0.28290   0.59722   0.00000  Uiso   1.00
H165   H     0.92935   0.43412   0.59704   0.00000  Uiso   1.00
H166   H     0.11370   0.39009   0.53117   0.00000  Uiso   1.00
H167   H     0.79481   0.19235   0.53209   0.00000  Uiso   1.00
H168   H     0.91588   0.51121   0.53170   0.00000  Uiso   1.00
H169   H     0.94137   0.36451   0.92108   0.00000  Uiso   1.00
H170   H     0.02305   0.37663   0.90279   0.00000  Uiso   1.00
H171   H     0.87182   0.28284   0.90324   0.00000  Uiso   1.00
H172   H     0.92923   0.43405   0.90305   0.00000  Uiso   1.00
H173   H     0.11360   0.39004   0.96790   0.00000  Uiso   1.00
H174   H     0.79471   0.19229   0.96882   0.00000  Uiso   1.00
H175   H     0.91578   0.51116   0.96844   0.00000  Uiso   1.00
O176   O     0.16737   0.39802   0.24938   0.00000  Uiso   1.00
O177   O     0.74900   0.13859   0.25059   0.00000  Uiso   1.00
O178   O     0.90784   0.55693   0.25009   0.00000  Uiso   1.00
N179   N     0.10247   0.38843   0.40111   0.00000  Uiso   1.00
N180   N     0.80434   0.20354   0.40197   0.00000  Uiso   1.00
N181   N     0.91751   0.50165   0.40161   0.00000  Uiso   1.00
N182   N     0.10242   0.38840   0.09802   0.00000  Uiso   1.00
N183   N     0.80428   0.20351   0.09888   0.00000  Uiso   1.00
N184   N     0.91746   0.50162   0.09853   0.00000  Uiso   1.00
C185   C     0.63544   0.57690   0.42824   0.00000  Uiso   1.00
C186   C     0.62886   0.61469   0.34670   0.00000  Uiso   1.00
C187   C     0.62332   0.64647   0.44696   0.00000  Uiso   1.00
C188   C     0.61779   0.67828   0.34666   0.00000  Uiso   1.00
C189   C     0.60760   0.73697   0.24949   0.00000  Uiso   1.00
C190   C     0.67982   0.58348   0.34693   0.00000  Uiso   1.00
C191   C     0.71712   0.58903   0.44740   0.00000  Uiso   1.00
C192   C     0.75449   0.59457   0.34729   0.00000  Uiso   1.00
C193   C     0.82341   0.60477   0.25049   0.00000  Uiso   1.00
C194   C     0.59766   0.53252   0.34684   0.00000  Uiso   1.00
C195   C     0.56589   0.49521   0.44722   0.00000  Uiso   1.00
C196   C     0.53409   0.45783   0.34703   0.00000  Uiso   1.00
C197   C     0.47543   0.38891   0.25008   0.00000  Uiso   1.00
C198   C     0.63547   0.57687   0.07181   0.00000  Uiso   1.00
C199   C     0.62888   0.61467   0.15309   0.00000  Uiso   1.00
C200   C     0.62336   0.64644   0.05261   0.00000  Uiso   1.00
C201   C     0.61781   0.67827   0.15271   0.00000  Uiso   1.00
C202   C     0.67984   0.58347   0.15334   0.00000  Uiso   1.00
C203   C     0.71716   0.58900   0.05306   0.00000  Uiso   1.00
C204   C     0.75451   0.59455   0.15335   0.00000  Uiso   1.00
C205   C     0.59768   0.53250   0.15323   0.00000  Uiso   1.00
C206   C     0.56592   0.49518   0.05287   0.00000  Uiso   1.00
C207   C     0.53411   0.45782   0.15308   0.00000  Uiso   1.00
H208   H     0.63542   0.57692   0.57896   0.00000  Uiso   1.00
H209   H     0.62331   0.64648   0.59679   0.00000  Uiso   1.00
H210   H     0.71710   0.58903   0.59722   0.00000  Uiso   1.00
H211   H     0.56588   0.49523   0.59704   0.00000  Uiso   1.00
H212   H     0.60991   0.72360   0.53117   0.00000  Uiso   1.00
H213   H     0.80765   0.60247   0.53209   0.00000  Uiso   1.00
H214   H     0.48879   0.40467   0.53170   0.00000  Uiso   1.00
H215   H     0.63549   0.57686   0.92108   0.00000  Uiso   1.00
H216   H     0.62337   0.64642   0.90279   0.00000  Uiso   1.00
H217   H     0.71716   0.58898   0.90324   0.00000  Uiso   1.00
H218   H     0.56595   0.49518   0.90305   0.00000  Uiso   1.00
H219   H     0.60996   0.72356   0.96790   0.00000  Uiso   1.00
H220   H     0.80771   0.60242   0.96882   0.00000  Uiso   1.00
H221   H     0.48884   0.40462   0.96844   0.00000  Uiso   1.00
O222   O     0.60198   0.76935   0.24938   0.00000  Uiso   1.00
O223   O     0.86141   0.61042   0.25059   0.00000  Uiso   1.00
O224   O     0.44307   0.35091   0.25009   0.00000  Uiso   1.00
N225   N     0.61157   0.71404   0.40111   0.00000  Uiso   1.00
N226   N     0.79646   0.60079   0.40197   0.00000  Uiso   1.00
N227   N     0.49835   0.41586   0.40161   0.00000  Uiso   1.00
N228   N     0.61160   0.71402   0.09802   0.00000  Uiso   1.00
N229   N     0.79649   0.60077   0.09888   0.00000  Uiso   1.00
N230   N     0.49838   0.41584   0.09853   0.00000  Uiso   1.00
C231   C     0.42310   0.05853   0.42824   0.00000  Uiso   1.00
C232   C     0.38531   0.01417   0.34670   0.00000  Uiso   1.00
C233   C     0.35353   0.97685   0.44696   0.00000  Uiso   1.00
C234   C     0.32172   0.93951   0.34666   0.00000  Uiso   1.00
C235   C     0.26303   0.87063   0.24949   0.00000  Uiso   1.00
C236   C     0.41652   0.09634   0.34693   0.00000  Uiso   1.00
C237   C     0.41097   0.12810   0.44740   0.00000  Uiso   1.00
C238   C     0.40543   0.15993   0.34729   0.00000  Uiso   1.00
C239   C     0.39523   0.21863   0.25049   0.00000  Uiso   1.00
C240   C     0.46748   0.06514   0.34684   0.00000  Uiso   1.00
C241   C     0.50479   0.07068   0.44722   0.00000  Uiso   1.00
C242   C     0.54217   0.07625   0.34703   0.00000  Uiso   1.00
C243   C     0.61109   0.08652   0.25008   0.00000  Uiso   1.00
C244   C     0.42313   0.05860   0.07181   0.00000  Uiso   1.00
C245   C     0.38533   0.01421   0.15309   0.00000  Uiso   1.00
C246   C     0.35356   0.97692   0.05261   0.00000  Uiso   1.00
C247   C     0.32173   0.93954   0.15271   0.00000  Uiso   1.00
C248   C     0.41653   0.09637   0.15334   0.00000  Uiso   1.00
C249   C     0.41100   0.12817   0.05306   0.00000  Uiso   1.00
C250   C     0.40545   0.15996   0.15335   0.00000  Uiso   1.00
C251   C     0.46750   0.06517   0.15323   0.00000  Uiso   1.00
C252   C     0.50482   0.07075   0.05287   0.00000  Uiso   1.00
C253   C     0.54218   0.07629   0.15308   0.00000  Uiso   1.00
H254   H     0.42308   0.05851   0.57896   0.00000  Uiso   1.00
H255   H     0.35352   0.97683   0.59679   0.00000  Uiso   1.00
H256   H     0.41097   0.12806   0.59722   0.00000  Uiso   1.00
H257   H     0.50477   0.07065   0.59704   0.00000  Uiso   1.00
H258   H     0.27640   0.88630   0.53117   0.00000  Uiso   1.00
H259   H     0.39753   0.20519   0.53209   0.00000  Uiso   1.00
H260   H     0.59533   0.08412   0.53170   0.00000  Uiso   1.00
H261   H     0.42314   0.05863   0.92108   0.00000  Uiso   1.00
H262   H     0.35358   0.97695   0.90279   0.00000  Uiso   1.00
H263   H     0.41102   0.12818   0.90324   0.00000  Uiso   1.00
H264   H     0.50482   0.07077   0.90305   0.00000  Uiso   1.00
H265   H     0.27644   0.88640   0.96790   0.00000  Uiso   1.00
H266   H     0.39758   0.20529   0.96882   0.00000  Uiso   1.00
H267   H     0.59538   0.08422   0.96844   0.00000  Uiso   1.00
O268   O     0.23065   0.83263   0.24938   0.00000  Uiso   1.00
O269   O     0.38958   0.25100   0.25059   0.00000  Uiso   1.00
O270   O     0.64909   0.09216   0.25009   0.00000  Uiso   1.00
N271   N     0.28596   0.89753   0.40111   0.00000  Uiso   1.00
N272   N     0.39921   0.19566   0.40197   0.00000  Uiso   1.00
N273   N     0.58414   0.08249   0.40161   0.00000  Uiso   1.00
N274   N     0.28598   0.89758   0.09802   0.00000  Uiso   1.00
N275   N     0.39923   0.19572   0.09888   0.00000  Uiso   1.00
N276   N     0.58416   0.08254   0.09853   0.00000  Uiso   1.00
