data_job_00586
_audit_creation_date              2018-12-19
_audit_creation_method            'Materials Studio'
_symmetry_space_group_name_H-M    'P1'
_symmetry_Int_Tables_number       1
_symmetry_cell_setting            triclinic
loop_
_symmetry_equiv_pos_as_xyz
  x,y,z
_cell_length_a                    11.8347
_cell_length_b                    20.9994
_cell_length_c                    12.1153
_cell_angle_alpha                 90.0000
_cell_angle_beta                  68.4620
_cell_angle_gamma                 90.0000
loop_
_atom_site_label
_atom_site_type_symbol
_atom_site_fract_x
_atom_site_fract_y
_atom_site_fract_z
_atom_site_U_iso_or_equiv
_atom_site_adp_type
_atom_site_occupancy
C1     C     0.16603   0.55449   0.18082   0.00000  Uiso   1.00
C2     C     0.25984   0.58719   0.07394   0.00000  Uiso   1.00
C3     C     0.31593   0.56045   0.96231   0.00000  Uiso   1.00
C4     C     0.39920   0.59814   0.87641   0.00000  Uiso   1.00
C5     C     0.54093   0.63944   0.70666   0.00000  Uiso   1.00
C6     C     0.21676   0.55720   0.27966   0.00000  Uiso   1.00
C7     C     0.23661   0.50525   0.34100   0.00000  Uiso   1.00
C8     C     0.28361   0.51770   0.42829   0.00000  Uiso   1.00
C9     C     0.35838   0.51244   0.57798   0.00000  Uiso   1.00
C10    C     0.05447   0.59754   0.22037   0.00000  Uiso   1.00
C11    C     0.93786   0.57950   0.23191   0.00000  Uiso   1.00
C12    C     0.84821   0.62592   0.26931   0.00000  Uiso   1.00
C13    C     0.67101   0.68330   0.32696   0.00000  Uiso   1.00
C14    C     0.21416   0.66898   0.22678   0.00000  Uiso   1.00
C15    C     0.28599   0.64938   0.09890   0.00000  Uiso   1.00
C16    C     0.36919   0.68712   0.01314   0.00000  Uiso   1.00
C17    C     0.42539   0.66044   0.90140   0.00000  Uiso   1.00
C18    C     0.24291   0.61939   0.30462   0.00000  Uiso   1.00
C19    C     0.28987   0.63192   0.39184   0.00000  Uiso   1.00
C20    C     0.30980   0.58000   0.45330   0.00000  Uiso   1.00
C21    C     0.08062   0.65973   0.24533   0.00000  Uiso   1.00
C22    C     0.99113   0.70618   0.28274   0.00000  Uiso   1.00
C23    C     0.87440   0.68821   0.29431   0.00000  Uiso   1.00
H24    H     0.14567   0.50608   0.16140   0.00000  Uiso   1.00
H25    H     0.29568   0.51232   0.94303   0.00000  Uiso   1.00
H26    H     0.21636   0.45713   0.32168   0.00000  Uiso   1.00
H27    H     0.91766   0.53138   0.21259   0.00000  Uiso   1.00
H28    H     0.47355   0.54666   0.71195   0.00000  Uiso   1.00
H29    H     0.30627   0.43029   0.51037   0.00000  Uiso   1.00
H30    H     0.67640   0.58685   0.28034   0.00000  Uiso   1.00
H31    H     0.23452   0.71740   0.24621   0.00000  Uiso   1.00
H32    H     0.38940   0.73524   0.03248   0.00000  Uiso   1.00
H33    H     0.31009   0.68005   0.41113   0.00000  Uiso   1.00
H34    H     0.01139   0.75429   0.30204   0.00000  Uiso   1.00
H35    H     0.54963   0.72758   0.78455   0.00000  Uiso   1.00
H36    H     0.38234   0.61121   0.58298   0.00000  Uiso   1.00
H37    H     0.75248   0.76778   0.35294   0.00000  Uiso   1.00
O38    O     0.61190   0.64504   0.60614   0.00000  Uiso   1.00
O39    O     0.39241   0.49236   0.65365   0.00000  Uiso   1.00
O40    O     0.56605   0.69777   0.35184   0.00000  Uiso   1.00
N41    N     0.47018   0.58679   0.75836   0.00000  Uiso   1.00
N42    N     0.31380   0.47799   0.50482   0.00000  Uiso   1.00
N43    N     0.72492   0.62436   0.28979   0.00000  Uiso   1.00
N44    N     0.51112   0.68415   0.79742   0.00000  Uiso   1.00
N45    N     0.35474   0.57535   0.54389   0.00000  Uiso   1.00
N46    N     0.76586   0.72172   0.32886   0.00000  Uiso   1.00
C47    C     0.83397   0.05449   0.31918   0.00000  Uiso   1.00
C48    C     0.74016   0.08719   0.42606   0.00000  Uiso   1.00
C49    C     0.68407   0.06045   0.53769   0.00000  Uiso   1.00
C50    C     0.60080   0.09814   0.62359   0.00000  Uiso   1.00
C51    C     0.45907   0.13944   0.79334   0.00000  Uiso   1.00
C52    C     0.78324   0.05720   0.22034   0.00000  Uiso   1.00
C53    C     0.76339   0.00525   0.15900   0.00000  Uiso   1.00
C54    C     0.71639   0.01770   0.07171   0.00000  Uiso   1.00
C55    C     0.64162   0.01244   0.92202   0.00000  Uiso   1.00
C56    C     0.94553   0.09754   0.27963   0.00000  Uiso   1.00
C57    C     0.06214   0.07950   0.26809   0.00000  Uiso   1.00
C58    C     0.15179   0.12592   0.23069   0.00000  Uiso   1.00
C59    C     0.32899   0.18330   0.17304   0.00000  Uiso   1.00
C60    C     0.78584   0.16898   0.27322   0.00000  Uiso   1.00
C61    C     0.71401   0.14938   0.40110   0.00000  Uiso   1.00
C62    C     0.63081   0.18712   0.48686   0.00000  Uiso   1.00
C63    C     0.57461   0.16044   0.59860   0.00000  Uiso   1.00
C64    C     0.75709   0.11939   0.19538   0.00000  Uiso   1.00
C65    C     0.71013   0.13192   0.10816   0.00000  Uiso   1.00
C66    C     0.69020   0.08000   0.04670   0.00000  Uiso   1.00
C67    C     0.91938   0.15973   0.25467   0.00000  Uiso   1.00
C68    C     0.00887   0.20618   0.21726   0.00000  Uiso   1.00
C69    C     0.12560   0.18821   0.20569   0.00000  Uiso   1.00
H70    H     0.85433   0.00608   0.33860   0.00000  Uiso   1.00
H71    H     0.70432   0.01232   0.55697   0.00000  Uiso   1.00
H72    H     0.78364   0.95713   0.17832   0.00000  Uiso   1.00
H73    H     0.08234   0.03138   0.28741   0.00000  Uiso   1.00
H74    H     0.52645   0.04666   0.78805   0.00000  Uiso   1.00
H75    H     0.69373   0.93029   0.98963   0.00000  Uiso   1.00
H76    H     0.32360   0.08685   0.21966   0.00000  Uiso   1.00
H77    H     0.76548   0.21740   0.25379   0.00000  Uiso   1.00
H78    H     0.61060   0.23524   0.46752   0.00000  Uiso   1.00
H79    H     0.68991   0.18005   0.08887   0.00000  Uiso   1.00
H80    H     0.98861   0.25429   0.19796   0.00000  Uiso   1.00
H81    H     0.45037   0.22758   0.71545   0.00000  Uiso   1.00
H82    H     0.61766   0.11121   0.91702   0.00000  Uiso   1.00
H83    H     0.24752   0.26778   0.14706   0.00000  Uiso   1.00
O84    O     0.38810   0.14504   0.89386   0.00000  Uiso   1.00
O85    O     0.60759   0.99236   0.84635   0.00000  Uiso   1.00
O86    O     0.43395   0.19777   0.14816   0.00000  Uiso   1.00
N87    N     0.52982   0.08679   0.74164   0.00000  Uiso   1.00
N88    N     0.68620   0.97799   0.99518   0.00000  Uiso   1.00
N89    N     0.27508   0.12436   0.21021   0.00000  Uiso   1.00
N90    N     0.48888   0.18415   0.70258   0.00000  Uiso   1.00
N91    N     0.64526   0.07535   0.95611   0.00000  Uiso   1.00
N92    N     0.23414   0.22172   0.17114   0.00000  Uiso   1.00
C93    C     0.83397   0.44551   0.81918   0.00000  Uiso   1.00
C94    C     0.74016   0.41281   0.92606   0.00000  Uiso   1.00
C95    C     0.68407   0.43955   0.03769   0.00000  Uiso   1.00
C96    C     0.60080   0.40186   0.12359   0.00000  Uiso   1.00
C97    C     0.45907   0.36056   0.29334   0.00000  Uiso   1.00
C98    C     0.78324   0.44280   0.72034   0.00000  Uiso   1.00
C99    C     0.76339   0.49475   0.65900   0.00000  Uiso   1.00
C100   C     0.71639   0.48230   0.57171   0.00000  Uiso   1.00
C101   C     0.64162   0.48756   0.42202   0.00000  Uiso   1.00
C102   C     0.94553   0.40246   0.77963   0.00000  Uiso   1.00
C103   C     0.06214   0.42050   0.76809   0.00000  Uiso   1.00
C104   C     0.15179   0.37408   0.73069   0.00000  Uiso   1.00
C105   C     0.32899   0.31670   0.67304   0.00000  Uiso   1.00
C106   C     0.78584   0.33102   0.77322   0.00000  Uiso   1.00
C107   C     0.71401   0.35062   0.90110   0.00000  Uiso   1.00
C108   C     0.63081   0.31288   0.98686   0.00000  Uiso   1.00
C109   C     0.57461   0.33956   0.09860   0.00000  Uiso   1.00
C110   C     0.75709   0.38061   0.69538   0.00000  Uiso   1.00
C111   C     0.71013   0.36808   0.60816   0.00000  Uiso   1.00
C112   C     0.69020   0.42000   0.54670   0.00000  Uiso   1.00
C113   C     0.91938   0.34027   0.75467   0.00000  Uiso   1.00
C114   C     0.00887   0.29382   0.71726   0.00000  Uiso   1.00
C115   C     0.12560   0.31179   0.70569   0.00000  Uiso   1.00
H116   H     0.85433   0.49392   0.83860   0.00000  Uiso   1.00
H117   H     0.70432   0.48768   0.05697   0.00000  Uiso   1.00
H118   H     0.78364   0.54287   0.67832   0.00000  Uiso   1.00
H119   H     0.08234   0.46862   0.78741   0.00000  Uiso   1.00
H120   H     0.52645   0.45334   0.28805   0.00000  Uiso   1.00
H121   H     0.69373   0.56971   0.48963   0.00000  Uiso   1.00
H122   H     0.32360   0.41315   0.71966   0.00000  Uiso   1.00
H123   H     0.76548   0.28260   0.75379   0.00000  Uiso   1.00
H124   H     0.61060   0.26476   0.96752   0.00000  Uiso   1.00
H125   H     0.68991   0.31995   0.58887   0.00000  Uiso   1.00
H126   H     0.98861   0.24571   0.69796   0.00000  Uiso   1.00
H127   H     0.45037   0.27242   0.21545   0.00000  Uiso   1.00
H128   H     0.61766   0.38879   0.41702   0.00000  Uiso   1.00
H129   H     0.24752   0.23222   0.64706   0.00000  Uiso   1.00
O130   O     0.38810   0.35496   0.39386   0.00000  Uiso   1.00
O131   O     0.60759   0.50764   0.34635   0.00000  Uiso   1.00
O132   O     0.43395   0.30223   0.64816   0.00000  Uiso   1.00
N133   N     0.52982   0.41321   0.24164   0.00000  Uiso   1.00
N134   N     0.68620   0.52201   0.49518   0.00000  Uiso   1.00
N135   N     0.27508   0.37564   0.71021   0.00000  Uiso   1.00
N136   N     0.48888   0.31585   0.20258   0.00000  Uiso   1.00
N137   N     0.64526   0.42465   0.45611   0.00000  Uiso   1.00
N138   N     0.23414   0.27828   0.67114   0.00000  Uiso   1.00
C139   C     0.16603   0.94551   0.68082   0.00000  Uiso   1.00
C140   C     0.25984   0.91281   0.57394   0.00000  Uiso   1.00
C141   C     0.31593   0.93955   0.46231   0.00000  Uiso   1.00
C142   C     0.39920   0.90186   0.37641   0.00000  Uiso   1.00
C143   C     0.54093   0.86056   0.20666   0.00000  Uiso   1.00
C144   C     0.21676   0.94280   0.77966   0.00000  Uiso   1.00
C145   C     0.23661   0.99475   0.84100   0.00000  Uiso   1.00
C146   C     0.28361   0.98230   0.92829   0.00000  Uiso   1.00
C147   C     0.35838   0.98756   0.07798   0.00000  Uiso   1.00
C148   C     0.05447   0.90246   0.72037   0.00000  Uiso   1.00
C149   C     0.93786   0.92050   0.73191   0.00000  Uiso   1.00
C150   C     0.84821   0.87408   0.76931   0.00000  Uiso   1.00
C151   C     0.67101   0.81670   0.82696   0.00000  Uiso   1.00
C152   C     0.21416   0.83102   0.72678   0.00000  Uiso   1.00
C153   C     0.28599   0.85062   0.59890   0.00000  Uiso   1.00
C154   C     0.36919   0.81288   0.51314   0.00000  Uiso   1.00
C155   C     0.42539   0.83956   0.40140   0.00000  Uiso   1.00
C156   C     0.24291   0.88061   0.80462   0.00000  Uiso   1.00
C157   C     0.28987   0.86808   0.89184   0.00000  Uiso   1.00
C158   C     0.30980   0.92000   0.95330   0.00000  Uiso   1.00
C159   C     0.08062   0.84027   0.74533   0.00000  Uiso   1.00
C160   C     0.99113   0.79382   0.78274   0.00000  Uiso   1.00
C161   C     0.87440   0.81179   0.79431   0.00000  Uiso   1.00
H162   H     0.14567   0.99392   0.66140   0.00000  Uiso   1.00
H163   H     0.29568   0.98768   0.44303   0.00000  Uiso   1.00
H164   H     0.21636   0.04287   0.82168   0.00000  Uiso   1.00
H165   H     0.91766   0.96862   0.71259   0.00000  Uiso   1.00
H166   H     0.47355   0.95334   0.21195   0.00000  Uiso   1.00
H167   H     0.30627   0.06971   0.01037   0.00000  Uiso   1.00
H168   H     0.67640   0.91315   0.78034   0.00000  Uiso   1.00
H169   H     0.23452   0.78260   0.74621   0.00000  Uiso   1.00
H170   H     0.38940   0.76476   0.53248   0.00000  Uiso   1.00
H171   H     0.31009   0.81995   0.91113   0.00000  Uiso   1.00
H172   H     0.01139   0.74571   0.80204   0.00000  Uiso   1.00
H173   H     0.54963   0.77242   0.28455   0.00000  Uiso   1.00
H174   H     0.38234   0.88879   0.08298   0.00000  Uiso   1.00
H175   H     0.75248   0.73222   0.85294   0.00000  Uiso   1.00
O176   O     0.61190   0.85496   0.10614   0.00000  Uiso   1.00
O177   O     0.39241   0.00764   0.15365   0.00000  Uiso   1.00
O178   O     0.56605   0.80223   0.85184   0.00000  Uiso   1.00
N179   N     0.47018   0.91321   0.25836   0.00000  Uiso   1.00
N180   N     0.31380   0.02201   0.00482   0.00000  Uiso   1.00
N181   N     0.72492   0.87564   0.78979   0.00000  Uiso   1.00
N182   N     0.51112   0.81585   0.29742   0.00000  Uiso   1.00
N183   N     0.35474   0.92465   0.04389   0.00000  Uiso   1.00
N184   N     0.76586   0.77828   0.82886   0.00000  Uiso   1.00
