data_job_03381
_audit_creation_date              2018-12-19
_audit_creation_method            'Materials Studio'
_symmetry_space_group_name_H-M    'P1'
_symmetry_Int_Tables_number       1
_symmetry_cell_setting            triclinic
loop_
_symmetry_equiv_pos_as_xyz
  x,y,z
_cell_length_a                    17.0779
_cell_length_b                    18.0166
_cell_length_c                    20.8248
_cell_angle_alpha                 90.0000
_cell_angle_beta                  90.0000
_cell_angle_gamma                 90.0000
loop_
_atom_site_label
_atom_site_type_symbol
_atom_site_fract_x
_atom_site_fract_y
_atom_site_fract_z
_atom_site_U_iso_or_equiv
_atom_site_adp_type
_atom_site_occupancy
C1     C     0.69052   0.13964   0.28648   0.00000  Uiso   1.00
C2     C     0.68295   0.14587   0.21372   0.00000  Uiso   1.00
C3     C     0.66091   0.20904   0.18014   0.00000  Uiso   1.00
C4     C     0.65747   0.20342   0.11371   0.00000  Uiso   1.00
C5     C     0.64295   0.22320   0.00554   0.00000  Uiso   1.00
C6     C     0.63728   0.07573   0.30646   0.00000  Uiso   1.00
C7     C     0.57685   0.07993   0.35087   0.00000  Uiso   1.00
C8     C     0.53497   0.01526   0.36251   0.00000  Uiso   1.00
C9     C     0.44958   0.92613   0.39836   0.00000  Uiso   1.00
C10    C     0.77398   0.11350   0.29933   0.00000  Uiso   1.00
C11    C     0.82848   0.14943   0.33776   0.00000  Uiso   1.00
C12    C     0.90169   0.11655   0.34342   0.00000  Uiso   1.00
C13    C     0.02855   0.08605   0.36820   0.00000  Uiso   1.00
C14    C     0.72360   0.01733   0.22821   0.00000  Uiso   1.00
C15    C     0.70092   0.07944   0.18207   0.00000  Uiso   1.00
C16    C     0.69751   0.07372   0.11567   0.00000  Uiso   1.00
C17    C     0.67547   0.13687   0.08200   0.00000  Uiso   1.00
C18    C     0.65525   0.00930   0.27481   0.00000  Uiso   1.00
C19    C     0.61345   0.94461   0.28639   0.00000  Uiso   1.00
C20    C     0.55297   0.94871   0.33080   0.00000  Uiso   1.00
C21    C     0.79195   0.04706   0.26768   0.00000  Uiso   1.00
C22    C     0.86509   0.01412   0.27328   0.00000  Uiso   1.00
C23    C     0.91969   0.05000   0.31171   0.00000  Uiso   1.00
H24    H     0.67652   0.19136   0.31112   0.00000  Uiso   1.00
H25    H     0.64700   0.26044   0.20465   0.00000  Uiso   1.00
H26    H     0.56296   0.13134   0.37536   0.00000  Uiso   1.00
H27    H     0.81456   0.20084   0.36225   0.00000  Uiso   1.00
H28    H     0.62217   0.30773   0.07265   0.00000  Uiso   1.00
H29    H     0.44498   0.03552   0.43261   0.00000  Uiso   1.00
H30    H     0.97552   0.18206   0.40497   0.00000  Uiso   1.00
H31    H     0.73759   0.96561   0.20356   0.00000  Uiso   1.00
H32    H     0.71142   0.02231   0.09118   0.00000  Uiso   1.00
H33    H     0.62738   0.89321   0.26189   0.00000  Uiso   1.00
H34    H     0.87897   0.96271   0.24878   0.00000  Uiso   1.00
H35    H     0.67445   0.11445   0.98056   0.00000  Uiso   1.00
H36    H     0.49726   0.84224   0.34052   0.00000  Uiso   1.00
H37    H     0.02780   0.98878   0.31287   0.00000  Uiso   1.00
O38    O     0.62997   0.25245   0.95462   0.00000  Uiso   1.00
O39    O     0.39751   0.89532   0.42688   0.00000  Uiso   1.00
O40    O     0.09357   0.08759   0.39061   0.00000  Uiso   1.00
N41    N     0.63808   0.25446   0.06640   0.00000  Uiso   1.00
N42    N     0.47241   0.99996   0.40293   0.00000  Uiso   1.00
N43    N     0.96841   0.13696   0.37710   0.00000  Uiso   1.00
N44    N     0.66621   0.15046   0.01684   0.00000  Uiso   1.00
N45    N     0.50054   0.89596   0.35337   0.00000  Uiso   1.00
N46    N     0.99655   0.03296   0.32755   0.00000  Uiso   1.00
C47    C     0.80948   0.36036   0.28648   0.00000  Uiso   1.00
C48    C     0.81705   0.35413   0.21372   0.00000  Uiso   1.00
C49    C     0.83909   0.29096   0.18014   0.00000  Uiso   1.00
C50    C     0.84253   0.29658   0.11371   0.00000  Uiso   1.00
C51    C     0.85705   0.27680   0.00554   0.00000  Uiso   1.00
C52    C     0.86272   0.42427   0.30646   0.00000  Uiso   1.00
C53    C     0.92315   0.42007   0.35087   0.00000  Uiso   1.00
C54    C     0.96503   0.48474   0.36251   0.00000  Uiso   1.00
C55    C     0.05042   0.57387   0.39836   0.00000  Uiso   1.00
C56    C     0.72602   0.38650   0.29933   0.00000  Uiso   1.00
C57    C     0.67152   0.35057   0.33776   0.00000  Uiso   1.00
C58    C     0.59831   0.38345   0.34342   0.00000  Uiso   1.00
C59    C     0.47145   0.41395   0.36820   0.00000  Uiso   1.00
C60    C     0.77640   0.48267   0.22821   0.00000  Uiso   1.00
C61    C     0.79908   0.42056   0.18207   0.00000  Uiso   1.00
C62    C     0.80249   0.42628   0.11567   0.00000  Uiso   1.00
C63    C     0.82453   0.36313   0.08200   0.00000  Uiso   1.00
C64    C     0.84475   0.49070   0.27481   0.00000  Uiso   1.00
C65    C     0.88655   0.55539   0.28639   0.00000  Uiso   1.00
C66    C     0.94703   0.55129   0.33080   0.00000  Uiso   1.00
C67    C     0.70805   0.45294   0.26768   0.00000  Uiso   1.00
C68    C     0.63491   0.48588   0.27328   0.00000  Uiso   1.00
C69    C     0.58031   0.45000   0.31171   0.00000  Uiso   1.00
H70    H     0.82348   0.30864   0.31112   0.00000  Uiso   1.00
H71    H     0.85300   0.23956   0.20465   0.00000  Uiso   1.00
H72    H     0.93704   0.36866   0.37536   0.00000  Uiso   1.00
H73    H     0.68544   0.29916   0.36225   0.00000  Uiso   1.00
H74    H     0.87783   0.19227   0.07265   0.00000  Uiso   1.00
H75    H     0.05502   0.46448   0.43261   0.00000  Uiso   1.00
H76    H     0.52448   0.31794   0.40497   0.00000  Uiso   1.00
H77    H     0.76241   0.53439   0.20356   0.00000  Uiso   1.00
H78    H     0.78858   0.47769   0.09118   0.00000  Uiso   1.00
H79    H     0.87262   0.60679   0.26189   0.00000  Uiso   1.00
H80    H     0.62103   0.53729   0.24878   0.00000  Uiso   1.00
H81    H     0.82555   0.38555   0.98056   0.00000  Uiso   1.00
H82    H     0.00274   0.65776   0.34052   0.00000  Uiso   1.00
H83    H     0.47220   0.51122   0.31287   0.00000  Uiso   1.00
O84    O     0.87003   0.24755   0.95462   0.00000  Uiso   1.00
O85    O     0.10249   0.60468   0.42688   0.00000  Uiso   1.00
O86    O     0.40643   0.41241   0.39061   0.00000  Uiso   1.00
N87    N     0.86192   0.24554   0.06640   0.00000  Uiso   1.00
N88    N     0.02759   0.50004   0.40293   0.00000  Uiso   1.00
N89    N     0.53159   0.36304   0.37710   0.00000  Uiso   1.00
N90    N     0.83379   0.34954   0.01684   0.00000  Uiso   1.00
N91    N     0.99946   0.60404   0.35337   0.00000  Uiso   1.00
N92    N     0.50345   0.46704   0.32755   0.00000  Uiso   1.00
C93    C     0.30948   0.63964   0.21352   0.00000  Uiso   1.00
C94    C     0.31705   0.64587   0.28628   0.00000  Uiso   1.00
C95    C     0.33909   0.70904   0.31986   0.00000  Uiso   1.00
C96    C     0.34253   0.70342   0.38629   0.00000  Uiso   1.00
C97    C     0.35705   0.72320   0.49446   0.00000  Uiso   1.00
C98    C     0.36272   0.57573   0.19354   0.00000  Uiso   1.00
C99    C     0.42315   0.57993   0.14913   0.00000  Uiso   1.00
C100   C     0.46503   0.51526   0.13749   0.00000  Uiso   1.00
C101   C     0.55042   0.42613   0.10164   0.00000  Uiso   1.00
C102   C     0.22602   0.61350   0.20067   0.00000  Uiso   1.00
C103   C     0.17152   0.64943   0.16224   0.00000  Uiso   1.00
C104   C     0.09831   0.61655   0.15658   0.00000  Uiso   1.00
C105   C     0.97145   0.58605   0.13180   0.00000  Uiso   1.00
C106   C     0.27640   0.51733   0.27179   0.00000  Uiso   1.00
C107   C     0.29908   0.57944   0.31793   0.00000  Uiso   1.00
C108   C     0.30249   0.57372   0.38433   0.00000  Uiso   1.00
C109   C     0.32453   0.63687   0.41800   0.00000  Uiso   1.00
C110   C     0.34475   0.50930   0.22519   0.00000  Uiso   1.00
C111   C     0.38655   0.44461   0.21361   0.00000  Uiso   1.00
C112   C     0.44703   0.44871   0.16920   0.00000  Uiso   1.00
C113   C     0.20805   0.54706   0.23232   0.00000  Uiso   1.00
C114   C     0.13491   0.51412   0.22672   0.00000  Uiso   1.00
C115   C     0.08031   0.55000   0.18829   0.00000  Uiso   1.00
H116   H     0.32348   0.69136   0.18888   0.00000  Uiso   1.00
H117   H     0.35300   0.76044   0.29535   0.00000  Uiso   1.00
H118   H     0.43704   0.63134   0.12464   0.00000  Uiso   1.00
H119   H     0.18544   0.70084   0.13775   0.00000  Uiso   1.00
H120   H     0.37783   0.80773   0.42735   0.00000  Uiso   1.00
H121   H     0.55502   0.53552   0.06739   0.00000  Uiso   1.00
H122   H     0.02448   0.68206   0.09503   0.00000  Uiso   1.00
H123   H     0.26241   0.46561   0.29644   0.00000  Uiso   1.00
H124   H     0.28858   0.52231   0.40882   0.00000  Uiso   1.00
H125   H     0.37262   0.39321   0.23811   0.00000  Uiso   1.00
H126   H     0.12103   0.46271   0.25122   0.00000  Uiso   1.00
H127   H     0.32555   0.61445   0.51944   0.00000  Uiso   1.00
H128   H     0.50274   0.34224   0.15948   0.00000  Uiso   1.00
H129   H     0.97220   0.48878   0.18713   0.00000  Uiso   1.00
O130   O     0.37003   0.75245   0.54538   0.00000  Uiso   1.00
O131   O     0.60249   0.39532   0.07312   0.00000  Uiso   1.00
O132   O     0.90643   0.58759   0.10939   0.00000  Uiso   1.00
N133   N     0.36192   0.75446   0.43360   0.00000  Uiso   1.00
N134   N     0.52759   0.49996   0.09707   0.00000  Uiso   1.00
N135   N     0.03159   0.63696   0.12290   0.00000  Uiso   1.00
N136   N     0.33379   0.65046   0.48316   0.00000  Uiso   1.00
N137   N     0.49946   0.39596   0.14663   0.00000  Uiso   1.00
N138   N     0.00345   0.53296   0.17245   0.00000  Uiso   1.00
C139   C     0.19052   0.86036   0.21352   0.00000  Uiso   1.00
C140   C     0.18295   0.85413   0.28628   0.00000  Uiso   1.00
C141   C     0.16091   0.79096   0.31986   0.00000  Uiso   1.00
C142   C     0.15747   0.79658   0.38629   0.00000  Uiso   1.00
C143   C     0.14295   0.77680   0.49446   0.00000  Uiso   1.00
C144   C     0.13728   0.92427   0.19354   0.00000  Uiso   1.00
C145   C     0.07685   0.92007   0.14913   0.00000  Uiso   1.00
C146   C     0.03497   0.98474   0.13749   0.00000  Uiso   1.00
C147   C     0.94958   0.07387   0.10164   0.00000  Uiso   1.00
C148   C     0.27398   0.88650   0.20067   0.00000  Uiso   1.00
C149   C     0.32848   0.85057   0.16224   0.00000  Uiso   1.00
C150   C     0.40169   0.88345   0.15658   0.00000  Uiso   1.00
C151   C     0.52855   0.91395   0.13180   0.00000  Uiso   1.00
C152   C     0.22360   0.98267   0.27179   0.00000  Uiso   1.00
C153   C     0.20092   0.92056   0.31793   0.00000  Uiso   1.00
C154   C     0.19751   0.92628   0.38433   0.00000  Uiso   1.00
C155   C     0.17547   0.86313   0.41800   0.00000  Uiso   1.00
C156   C     0.15525   0.99070   0.22519   0.00000  Uiso   1.00
C157   C     0.11345   0.05539   0.21361   0.00000  Uiso   1.00
C158   C     0.05297   0.05129   0.16920   0.00000  Uiso   1.00
C159   C     0.29195   0.95294   0.23232   0.00000  Uiso   1.00
C160   C     0.36509   0.98588   0.22672   0.00000  Uiso   1.00
C161   C     0.41969   0.95000   0.18829   0.00000  Uiso   1.00
H162   H     0.17652   0.80864   0.18888   0.00000  Uiso   1.00
H163   H     0.14700   0.73956   0.29535   0.00000  Uiso   1.00
H164   H     0.06296   0.86866   0.12464   0.00000  Uiso   1.00
H165   H     0.31456   0.79916   0.13775   0.00000  Uiso   1.00
H166   H     0.12217   0.69227   0.42735   0.00000  Uiso   1.00
H167   H     0.94498   0.96448   0.06739   0.00000  Uiso   1.00
H168   H     0.47552   0.81794   0.09503   0.00000  Uiso   1.00
H169   H     0.23759   0.03439   0.29644   0.00000  Uiso   1.00
H170   H     0.21142   0.97769   0.40882   0.00000  Uiso   1.00
H171   H     0.12738   0.10679   0.23811   0.00000  Uiso   1.00
H172   H     0.37897   0.03729   0.25122   0.00000  Uiso   1.00
H173   H     0.17445   0.88555   0.51944   0.00000  Uiso   1.00
H174   H     0.99726   0.15776   0.15948   0.00000  Uiso   1.00
H175   H     0.52780   0.01122   0.18713   0.00000  Uiso   1.00
O176   O     0.12997   0.74755   0.54538   0.00000  Uiso   1.00
O177   O     0.89751   0.10468   0.07312   0.00000  Uiso   1.00
O178   O     0.59357   0.91241   0.10939   0.00000  Uiso   1.00
N179   N     0.13808   0.74554   0.43360   0.00000  Uiso   1.00
N180   N     0.97241   0.00004   0.09707   0.00000  Uiso   1.00
N181   N     0.46841   0.86304   0.12290   0.00000  Uiso   1.00
N182   N     0.16621   0.84954   0.48316   0.00000  Uiso   1.00
N183   N     0.00054   0.10404   0.14663   0.00000  Uiso   1.00
N184   N     0.49655   0.96704   0.17245   0.00000  Uiso   1.00
C185   C     0.30948   0.86036   0.71352   0.00000  Uiso   1.00
C186   C     0.31705   0.85413   0.78628   0.00000  Uiso   1.00
C187   C     0.33909   0.79096   0.81986   0.00000  Uiso   1.00
C188   C     0.34253   0.79658   0.88629   0.00000  Uiso   1.00
C189   C     0.35705   0.77680   0.99446   0.00000  Uiso   1.00
C190   C     0.36272   0.92427   0.69354   0.00000  Uiso   1.00
C191   C     0.42315   0.92007   0.64913   0.00000  Uiso   1.00
C192   C     0.46503   0.98474   0.63749   0.00000  Uiso   1.00
C193   C     0.55042   0.07387   0.60164   0.00000  Uiso   1.00
C194   C     0.22602   0.88650   0.70067   0.00000  Uiso   1.00
C195   C     0.17152   0.85057   0.66224   0.00000  Uiso   1.00
C196   C     0.09831   0.88345   0.65658   0.00000  Uiso   1.00
C197   C     0.97145   0.91395   0.63180   0.00000  Uiso   1.00
C198   C     0.27640   0.98267   0.77179   0.00000  Uiso   1.00
C199   C     0.29908   0.92056   0.81793   0.00000  Uiso   1.00
C200   C     0.30249   0.92628   0.88433   0.00000  Uiso   1.00
C201   C     0.32453   0.86313   0.91800   0.00000  Uiso   1.00
C202   C     0.34475   0.99070   0.72519   0.00000  Uiso   1.00
C203   C     0.38655   0.05539   0.71361   0.00000  Uiso   1.00
C204   C     0.44703   0.05129   0.66920   0.00000  Uiso   1.00
C205   C     0.20805   0.95294   0.73232   0.00000  Uiso   1.00
C206   C     0.13491   0.98588   0.72672   0.00000  Uiso   1.00
C207   C     0.08031   0.95000   0.68829   0.00000  Uiso   1.00
H208   H     0.32348   0.80864   0.68888   0.00000  Uiso   1.00
H209   H     0.35300   0.73956   0.79535   0.00000  Uiso   1.00
H210   H     0.43704   0.86866   0.62464   0.00000  Uiso   1.00
H211   H     0.18544   0.79916   0.63775   0.00000  Uiso   1.00
H212   H     0.37783   0.69227   0.92735   0.00000  Uiso   1.00
H213   H     0.55502   0.96448   0.56739   0.00000  Uiso   1.00
H214   H     0.02448   0.81794   0.59503   0.00000  Uiso   1.00
H215   H     0.26241   0.03439   0.79644   0.00000  Uiso   1.00
H216   H     0.28858   0.97769   0.90882   0.00000  Uiso   1.00
H217   H     0.37262   0.10679   0.73811   0.00000  Uiso   1.00
H218   H     0.12103   0.03729   0.75122   0.00000  Uiso   1.00
H219   H     0.32555   0.88555   0.01944   0.00000  Uiso   1.00
H220   H     0.50274   0.15776   0.65948   0.00000  Uiso   1.00
H221   H     0.97220   0.01122   0.68713   0.00000  Uiso   1.00
O222   O     0.37003   0.74755   0.04538   0.00000  Uiso   1.00
O223   O     0.60249   0.10468   0.57312   0.00000  Uiso   1.00
O224   O     0.90643   0.91241   0.60939   0.00000  Uiso   1.00
N225   N     0.36192   0.74554   0.93360   0.00000  Uiso   1.00
N226   N     0.52759   0.00004   0.59707   0.00000  Uiso   1.00
N227   N     0.03159   0.86304   0.62290   0.00000  Uiso   1.00
N228   N     0.33379   0.84954   0.98316   0.00000  Uiso   1.00
N229   N     0.49946   0.10404   0.64663   0.00000  Uiso   1.00
N230   N     0.00345   0.96704   0.67245   0.00000  Uiso   1.00
C231   C     0.19052   0.63964   0.71352   0.00000  Uiso   1.00
C232   C     0.18295   0.64587   0.78628   0.00000  Uiso   1.00
C233   C     0.16091   0.70904   0.81986   0.00000  Uiso   1.00
C234   C     0.15747   0.70342   0.88629   0.00000  Uiso   1.00
C235   C     0.14295   0.72320   0.99446   0.00000  Uiso   1.00
C236   C     0.13728   0.57573   0.69354   0.00000  Uiso   1.00
C237   C     0.07685   0.57993   0.64913   0.00000  Uiso   1.00
C238   C     0.03497   0.51526   0.63749   0.00000  Uiso   1.00
C239   C     0.94958   0.42613   0.60164   0.00000  Uiso   1.00
C240   C     0.27398   0.61350   0.70067   0.00000  Uiso   1.00
C241   C     0.32848   0.64943   0.66224   0.00000  Uiso   1.00
C242   C     0.40169   0.61655   0.65658   0.00000  Uiso   1.00
C243   C     0.52855   0.58605   0.63180   0.00000  Uiso   1.00
C244   C     0.22360   0.51733   0.77179   0.00000  Uiso   1.00
C245   C     0.20092   0.57944   0.81793   0.00000  Uiso   1.00
C246   C     0.19751   0.57372   0.88433   0.00000  Uiso   1.00
C247   C     0.17547   0.63687   0.91800   0.00000  Uiso   1.00
C248   C     0.15525   0.50930   0.72519   0.00000  Uiso   1.00
C249   C     0.11345   0.44461   0.71361   0.00000  Uiso   1.00
C250   C     0.05297   0.44871   0.66920   0.00000  Uiso   1.00
C251   C     0.29195   0.54706   0.73232   0.00000  Uiso   1.00
C252   C     0.36509   0.51412   0.72672   0.00000  Uiso   1.00
C253   C     0.41969   0.55000   0.68829   0.00000  Uiso   1.00
H254   H     0.17652   0.69136   0.68888   0.00000  Uiso   1.00
H255   H     0.14700   0.76044   0.79535   0.00000  Uiso   1.00
H256   H     0.06296   0.63134   0.62464   0.00000  Uiso   1.00
H257   H     0.31456   0.70084   0.63775   0.00000  Uiso   1.00
H258   H     0.12217   0.80773   0.92735   0.00000  Uiso   1.00
H259   H     0.94498   0.53552   0.56739   0.00000  Uiso   1.00
H260   H     0.47552   0.68206   0.59503   0.00000  Uiso   1.00
H261   H     0.23759   0.46561   0.79644   0.00000  Uiso   1.00
H262   H     0.21142   0.52231   0.90882   0.00000  Uiso   1.00
H263   H     0.12738   0.39321   0.73811   0.00000  Uiso   1.00
H264   H     0.37897   0.46271   0.75122   0.00000  Uiso   1.00
H265   H     0.17445   0.61445   0.01944   0.00000  Uiso   1.00
H266   H     0.99726   0.34224   0.65948   0.00000  Uiso   1.00
H267   H     0.52780   0.48878   0.68713   0.00000  Uiso   1.00
O268   O     0.12997   0.75245   0.04538   0.00000  Uiso   1.00
O269   O     0.89751   0.39532   0.57312   0.00000  Uiso   1.00
O270   O     0.59357   0.58759   0.60939   0.00000  Uiso   1.00
N271   N     0.13808   0.75446   0.93360   0.00000  Uiso   1.00
N272   N     0.97241   0.49996   0.59707   0.00000  Uiso   1.00
N273   N     0.46841   0.63696   0.62290   0.00000  Uiso   1.00
N274   N     0.16621   0.65046   0.98316   0.00000  Uiso   1.00
N275   N     0.00054   0.39596   0.64663   0.00000  Uiso   1.00
N276   N     0.49655   0.53296   0.67245   0.00000  Uiso   1.00
C277   C     0.69052   0.36036   0.78648   0.00000  Uiso   1.00
C278   C     0.68295   0.35413   0.71372   0.00000  Uiso   1.00
C279   C     0.66091   0.29096   0.68014   0.00000  Uiso   1.00
C280   C     0.65747   0.29658   0.61371   0.00000  Uiso   1.00
C281   C     0.64295   0.27680   0.50554   0.00000  Uiso   1.00
C282   C     0.63728   0.42427   0.80646   0.00000  Uiso   1.00
C283   C     0.57685   0.42007   0.85087   0.00000  Uiso   1.00
C284   C     0.53497   0.48474   0.86251   0.00000  Uiso   1.00
C285   C     0.44958   0.57387   0.89836   0.00000  Uiso   1.00
C286   C     0.77398   0.38650   0.79933   0.00000  Uiso   1.00
C287   C     0.82848   0.35057   0.83776   0.00000  Uiso   1.00
C288   C     0.90169   0.38345   0.84342   0.00000  Uiso   1.00
C289   C     0.02855   0.41395   0.86820   0.00000  Uiso   1.00
C290   C     0.72360   0.48267   0.72821   0.00000  Uiso   1.00
C291   C     0.70092   0.42056   0.68207   0.00000  Uiso   1.00
C292   C     0.69751   0.42628   0.61567   0.00000  Uiso   1.00
C293   C     0.67547   0.36313   0.58200   0.00000  Uiso   1.00
C294   C     0.65525   0.49070   0.77481   0.00000  Uiso   1.00
C295   C     0.61345   0.55539   0.78639   0.00000  Uiso   1.00
C296   C     0.55297   0.55129   0.83080   0.00000  Uiso   1.00
C297   C     0.79195   0.45294   0.76768   0.00000  Uiso   1.00
C298   C     0.86509   0.48588   0.77328   0.00000  Uiso   1.00
C299   C     0.91969   0.45000   0.81171   0.00000  Uiso   1.00
H300   H     0.67652   0.30864   0.81112   0.00000  Uiso   1.00
H301   H     0.64700   0.23956   0.70465   0.00000  Uiso   1.00
H302   H     0.56296   0.36866   0.87536   0.00000  Uiso   1.00
H303   H     0.81456   0.29916   0.86225   0.00000  Uiso   1.00
H304   H     0.62217   0.19227   0.57265   0.00000  Uiso   1.00
H305   H     0.44498   0.46448   0.93261   0.00000  Uiso   1.00
H306   H     0.97552   0.31794   0.90497   0.00000  Uiso   1.00
H307   H     0.73759   0.53439   0.70356   0.00000  Uiso   1.00
H308   H     0.71142   0.47769   0.59118   0.00000  Uiso   1.00
H309   H     0.62738   0.60679   0.76189   0.00000  Uiso   1.00
H310   H     0.87897   0.53729   0.74878   0.00000  Uiso   1.00
H311   H     0.67445   0.38555   0.48056   0.00000  Uiso   1.00
H312   H     0.49726   0.65776   0.84052   0.00000  Uiso   1.00
H313   H     0.02780   0.51122   0.81287   0.00000  Uiso   1.00
O314   O     0.62997   0.24755   0.45462   0.00000  Uiso   1.00
O315   O     0.39751   0.60468   0.92688   0.00000  Uiso   1.00
O316   O     0.09357   0.41241   0.89061   0.00000  Uiso   1.00
N317   N     0.63808   0.24554   0.56640   0.00000  Uiso   1.00
N318   N     0.47241   0.50004   0.90293   0.00000  Uiso   1.00
N319   N     0.96841   0.36304   0.87710   0.00000  Uiso   1.00
N320   N     0.66621   0.34954   0.51684   0.00000  Uiso   1.00
N321   N     0.50054   0.60404   0.85337   0.00000  Uiso   1.00
N322   N     0.99655   0.46704   0.82755   0.00000  Uiso   1.00
C323   C     0.80948   0.13964   0.78648   0.00000  Uiso   1.00
C324   C     0.81705   0.14587   0.71372   0.00000  Uiso   1.00
C325   C     0.83909   0.20904   0.68014   0.00000  Uiso   1.00
C326   C     0.84253   0.20342   0.61371   0.00000  Uiso   1.00
C327   C     0.85705   0.22320   0.50554   0.00000  Uiso   1.00
C328   C     0.86272   0.07573   0.80646   0.00000  Uiso   1.00
C329   C     0.92315   0.07993   0.85087   0.00000  Uiso   1.00
C330   C     0.96503   0.01526   0.86251   0.00000  Uiso   1.00
C331   C     0.05042   0.92613   0.89836   0.00000  Uiso   1.00
C332   C     0.72602   0.11350   0.79933   0.00000  Uiso   1.00
C333   C     0.67152   0.14943   0.83776   0.00000  Uiso   1.00
C334   C     0.59831   0.11655   0.84342   0.00000  Uiso   1.00
C335   C     0.47145   0.08605   0.86820   0.00000  Uiso   1.00
C336   C     0.77640   0.01733   0.72821   0.00000  Uiso   1.00
C337   C     0.79908   0.07944   0.68207   0.00000  Uiso   1.00
C338   C     0.80249   0.07372   0.61567   0.00000  Uiso   1.00
C339   C     0.82453   0.13687   0.58200   0.00000  Uiso   1.00
C340   C     0.84475   0.00930   0.77481   0.00000  Uiso   1.00
C341   C     0.88655   0.94461   0.78639   0.00000  Uiso   1.00
C342   C     0.94703   0.94871   0.83080   0.00000  Uiso   1.00
C343   C     0.70805   0.04706   0.76768   0.00000  Uiso   1.00
C344   C     0.63491   0.01412   0.77328   0.00000  Uiso   1.00
C345   C     0.58031   0.05000   0.81171   0.00000  Uiso   1.00
H346   H     0.82348   0.19136   0.81112   0.00000  Uiso   1.00
H347   H     0.85300   0.26044   0.70465   0.00000  Uiso   1.00
H348   H     0.93704   0.13134   0.87536   0.00000  Uiso   1.00
H349   H     0.68544   0.20084   0.86225   0.00000  Uiso   1.00
H350   H     0.87783   0.30773   0.57265   0.00000  Uiso   1.00
H351   H     0.05502   0.03552   0.93261   0.00000  Uiso   1.00
H352   H     0.52448   0.18206   0.90497   0.00000  Uiso   1.00
H353   H     0.76241   0.96561   0.70356   0.00000  Uiso   1.00
H354   H     0.78858   0.02231   0.59118   0.00000  Uiso   1.00
H355   H     0.87262   0.89321   0.76189   0.00000  Uiso   1.00
H356   H     0.62103   0.96271   0.74878   0.00000  Uiso   1.00
H357   H     0.82555   0.11445   0.48056   0.00000  Uiso   1.00
H358   H     0.00274   0.84224   0.84052   0.00000  Uiso   1.00
H359   H     0.47220   0.98878   0.81287   0.00000  Uiso   1.00
O360   O     0.87003   0.25245   0.45462   0.00000  Uiso   1.00
O361   O     0.10249   0.89532   0.92688   0.00000  Uiso   1.00
O362   O     0.40643   0.08759   0.89061   0.00000  Uiso   1.00
N363   N     0.86192   0.25446   0.56640   0.00000  Uiso   1.00
N364   N     0.02759   0.99996   0.90293   0.00000  Uiso   1.00
N365   N     0.53159   0.13696   0.87710   0.00000  Uiso   1.00
N366   N     0.83379   0.15046   0.51684   0.00000  Uiso   1.00
N367   N     0.99946   0.89596   0.85337   0.00000  Uiso   1.00
N368   N     0.50345   0.03296   0.82755   0.00000  Uiso   1.00
