data_job_02890
_audit_creation_date              2018-12-19
_audit_creation_method            'Materials Studio'
_symmetry_space_group_name_H-M    'P1'
_symmetry_Int_Tables_number       1
_symmetry_cell_setting            triclinic
loop_
_symmetry_equiv_pos_as_xyz
  x,y,z
_cell_length_a                    14.9640
_cell_length_b                    8.6600
_cell_length_c                    23.9185
_cell_angle_alpha                 90.0000
_cell_angle_beta                  125.4673
_cell_angle_gamma                 90.0000
loop_
_atom_site_label
_atom_site_type_symbol
_atom_site_fract_x
_atom_site_fract_y
_atom_site_fract_z
_atom_site_U_iso_or_equiv
_atom_site_adp_type
_atom_site_occupancy
C1     C     0.67346   0.27956   0.66720   0.00000  Uiso   1.00
C2     C     0.69945   0.43613   0.65064   0.00000  Uiso   1.00
C3     C     0.71276   0.46524   0.59882   0.00000  Uiso   1.00
C4     C     0.73627   0.61626   0.59198   0.00000  Uiso   1.00
C5     C     0.77518   0.84147   0.55967   0.00000  Uiso   1.00
C6     C     0.76443   0.24856   0.74254   0.00000  Uiso   1.00
C7     C     0.83236   0.11995   0.76799   0.00000  Uiso   1.00
C8     C     0.91056   0.11307   0.83851   0.00000  Uiso   1.00
C9     C     0.05030   0.04701   0.94888   0.00000  Uiso   1.00
C10    C     0.56890   0.30232   0.66327   0.00000  Uiso   1.00
C11    C     0.47242   0.21890   0.62209   0.00000  Uiso   1.00
C12    C     0.38599   0.25726   0.62589   0.00000  Uiso   1.00
C13    C     0.22214   0.27469   0.61318   0.00000  Uiso   1.00
C14    C     0.69153   0.49600   0.74721   0.00000  Uiso   1.00
C15    C     0.70927   0.55368   0.69409   0.00000  Uiso   1.00
C16    C     0.73275   0.70470   0.68733   0.00000  Uiso   1.00
C17    C     0.74609   0.73404   0.63551   0.00000  Uiso   1.00
C18    C     0.77425   0.36611   0.78599   0.00000  Uiso   1.00
C19    C     0.85235   0.35941   0.85650   0.00000  Uiso   1.00
C20    C     0.92039   0.23084   0.88205   0.00000  Uiso   1.00
C21    C     0.57871   0.41989   0.70672   0.00000  Uiso   1.00
C22    C     0.49241   0.45837   0.71060   0.00000  Uiso   1.00
C23    C     0.39583   0.37503   0.66942   0.00000  Uiso   1.00
H24    H     0.66583   0.18803   0.63338   0.00000  Uiso   1.00
H25    H     0.70517   0.37423   0.56520   0.00000  Uiso   1.00
H26    H     0.82474   0.02899   0.73435   0.00000  Uiso   1.00
H27    H     0.46486   0.12793   0.58846   0.00000  Uiso   1.00
H28    H     0.75316   0.63249   0.50880   0.00000  Uiso   1.00
H29    H     0.00526   0.90451   0.86545   0.00000  Uiso   1.00
H30    H     0.24637   0.11315   0.55783   0.00000  Uiso   1.00
H31    H     0.69917   0.58753   0.78104   0.00000  Uiso   1.00
H32    H     0.74034   0.79565   0.72097   0.00000  Uiso   1.00
H33    H     0.85992   0.45041   0.89011   0.00000  Uiso   1.00
H34    H     0.50004   0.54935   0.74423   0.00000  Uiso   1.00
H35    H     0.78171   0.97454   0.63523   0.00000  Uiso   1.00
H36    H     0.03381   0.24654   0.99188   0.00000  Uiso   1.00
H37    H     0.27492   0.45519   0.68426   0.00000  Uiso   1.00
O38    O     0.79395   0.93321   0.52984   0.00000  Uiso   1.00
O39    O     0.12468   0.97810   0.99775   0.00000  Uiso   1.00
O40    O     0.12904   0.25184   0.59416   0.00000  Uiso   1.00
N41    N     0.75421   0.68444   0.54679   0.00000  Uiso   1.00
N42    N     0.98992   0.00382   0.88023   0.00000  Uiso   1.00
N43    N     0.28043   0.19886   0.59265   0.00000  Uiso   1.00
N44    N     0.76957   0.86849   0.61482   0.00000  Uiso   1.00
N45    N     0.00528   0.18788   0.94826   0.00000  Uiso   1.00
N46    N     0.29579   0.38291   0.66068   0.00000  Uiso   1.00
C47    C     0.32654   0.77956   0.83280   0.00000  Uiso   1.00
C48    C     0.30055   0.93613   0.84936   0.00000  Uiso   1.00
C49    C     0.28724   0.96524   0.90118   0.00000  Uiso   1.00
C50    C     0.26373   0.11626   0.90802   0.00000  Uiso   1.00
C51    C     0.22482   0.34147   0.94033   0.00000  Uiso   1.00
C52    C     0.23557   0.74856   0.75746   0.00000  Uiso   1.00
C53    C     0.16764   0.61995   0.73201   0.00000  Uiso   1.00
C54    C     0.08944   0.61307   0.66149   0.00000  Uiso   1.00
C55    C     0.94970   0.54701   0.55112   0.00000  Uiso   1.00
C56    C     0.43110   0.80232   0.83673   0.00000  Uiso   1.00
C57    C     0.52758   0.71890   0.87791   0.00000  Uiso   1.00
C58    C     0.61401   0.75726   0.87411   0.00000  Uiso   1.00
C59    C     0.77786   0.77469   0.88682   0.00000  Uiso   1.00
C60    C     0.30847   0.99600   0.75279   0.00000  Uiso   1.00
C61    C     0.29073   0.05368   0.80591   0.00000  Uiso   1.00
C62    C     0.26725   0.20470   0.81267   0.00000  Uiso   1.00
C63    C     0.25391   0.23404   0.86449   0.00000  Uiso   1.00
C64    C     0.22575   0.86611   0.71401   0.00000  Uiso   1.00
C65    C     0.14765   0.85941   0.64350   0.00000  Uiso   1.00
C66    C     0.07961   0.73084   0.61795   0.00000  Uiso   1.00
C67    C     0.42129   0.91989   0.79328   0.00000  Uiso   1.00
C68    C     0.50759   0.95837   0.78940   0.00000  Uiso   1.00
C69    C     0.60417   0.87503   0.83058   0.00000  Uiso   1.00
H70    H     0.33417   0.68803   0.86662   0.00000  Uiso   1.00
H71    H     0.29483   0.87423   0.93480   0.00000  Uiso   1.00
H72    H     0.17526   0.52899   0.76565   0.00000  Uiso   1.00
H73    H     0.53514   0.62793   0.91154   0.00000  Uiso   1.00
H74    H     0.24684   0.13249   0.99120   0.00000  Uiso   1.00
H75    H     0.99474   0.40451   0.63455   0.00000  Uiso   1.00
H76    H     0.75363   0.61315   0.94217   0.00000  Uiso   1.00
H77    H     0.30083   0.08753   0.71896   0.00000  Uiso   1.00
H78    H     0.25966   0.29565   0.77903   0.00000  Uiso   1.00
H79    H     0.14008   0.95041   0.60989   0.00000  Uiso   1.00
H80    H     0.49996   0.04935   0.75577   0.00000  Uiso   1.00
H81    H     0.21829   0.47454   0.86477   0.00000  Uiso   1.00
H82    H     0.96619   0.74654   0.50812   0.00000  Uiso   1.00
H83    H     0.72508   0.95519   0.81574   0.00000  Uiso   1.00
O84    O     0.20605   0.43321   0.97016   0.00000  Uiso   1.00
O85    O     0.87532   0.47810   0.50225   0.00000  Uiso   1.00
O86    O     0.87096   0.75184   0.90584   0.00000  Uiso   1.00
N87    N     0.24579   0.18444   0.95321   0.00000  Uiso   1.00
N88    N     0.01008   0.50382   0.61977   0.00000  Uiso   1.00
N89    N     0.71957   0.69886   0.90735   0.00000  Uiso   1.00
N90    N     0.23043   0.36849   0.88518   0.00000  Uiso   1.00
N91    N     0.99472   0.68788   0.55174   0.00000  Uiso   1.00
N92    N     0.70421   0.88291   0.83932   0.00000  Uiso   1.00
C93    C     0.32654   0.72044   0.33280   0.00000  Uiso   1.00
C94    C     0.30055   0.56387   0.34936   0.00000  Uiso   1.00
C95    C     0.28724   0.53476   0.40118   0.00000  Uiso   1.00
C96    C     0.26373   0.38374   0.40802   0.00000  Uiso   1.00
C97    C     0.22482   0.15853   0.44033   0.00000  Uiso   1.00
C98    C     0.23557   0.75144   0.25746   0.00000  Uiso   1.00
C99    C     0.16764   0.88005   0.23201   0.00000  Uiso   1.00
C100   C     0.08944   0.88693   0.16149   0.00000  Uiso   1.00
C101   C     0.94970   0.95299   0.05112   0.00000  Uiso   1.00
C102   C     0.43110   0.69768   0.33673   0.00000  Uiso   1.00
C103   C     0.52758   0.78110   0.37791   0.00000  Uiso   1.00
C104   C     0.61401   0.74274   0.37411   0.00000  Uiso   1.00
C105   C     0.77786   0.72531   0.38682   0.00000  Uiso   1.00
C106   C     0.30847   0.50400   0.25279   0.00000  Uiso   1.00
C107   C     0.29073   0.44632   0.30591   0.00000  Uiso   1.00
C108   C     0.26725   0.29530   0.31267   0.00000  Uiso   1.00
C109   C     0.25391   0.26596   0.36449   0.00000  Uiso   1.00
C110   C     0.22575   0.63389   0.21401   0.00000  Uiso   1.00
C111   C     0.14765   0.64059   0.14350   0.00000  Uiso   1.00
C112   C     0.07961   0.76916   0.11795   0.00000  Uiso   1.00
C113   C     0.42129   0.58011   0.29328   0.00000  Uiso   1.00
C114   C     0.50759   0.54163   0.28940   0.00000  Uiso   1.00
C115   C     0.60417   0.62497   0.33058   0.00000  Uiso   1.00
H116   H     0.33417   0.81197   0.36662   0.00000  Uiso   1.00
H117   H     0.29483   0.62577   0.43480   0.00000  Uiso   1.00
H118   H     0.17526   0.97101   0.26565   0.00000  Uiso   1.00
H119   H     0.53514   0.87207   0.41154   0.00000  Uiso   1.00
H120   H     0.24684   0.36751   0.49120   0.00000  Uiso   1.00
H121   H     0.99474   0.09549   0.13455   0.00000  Uiso   1.00
H122   H     0.75363   0.88685   0.44217   0.00000  Uiso   1.00
H123   H     0.30083   0.41247   0.21896   0.00000  Uiso   1.00
H124   H     0.25966   0.20435   0.27903   0.00000  Uiso   1.00
H125   H     0.14008   0.54959   0.10989   0.00000  Uiso   1.00
H126   H     0.49996   0.45065   0.25577   0.00000  Uiso   1.00
H127   H     0.21829   0.02546   0.36477   0.00000  Uiso   1.00
H128   H     0.96619   0.75346   0.00812   0.00000  Uiso   1.00
H129   H     0.72508   0.54481   0.31574   0.00000  Uiso   1.00
O130   O     0.20605   0.06679   0.47016   0.00000  Uiso   1.00
O131   O     0.87532   0.02190   0.00225   0.00000  Uiso   1.00
O132   O     0.87096   0.74816   0.40584   0.00000  Uiso   1.00
N133   N     0.24579   0.31556   0.45321   0.00000  Uiso   1.00
N134   N     0.01008   0.99618   0.11977   0.00000  Uiso   1.00
N135   N     0.71957   0.80114   0.40735   0.00000  Uiso   1.00
N136   N     0.23043   0.13151   0.38518   0.00000  Uiso   1.00
N137   N     0.99472   0.81212   0.05174   0.00000  Uiso   1.00
N138   N     0.70421   0.61709   0.33932   0.00000  Uiso   1.00
C139   C     0.67346   0.22044   0.16720   0.00000  Uiso   1.00
C140   C     0.69945   0.06387   0.15064   0.00000  Uiso   1.00
C141   C     0.71276   0.03476   0.09882   0.00000  Uiso   1.00
C142   C     0.73627   0.88374   0.09198   0.00000  Uiso   1.00
C143   C     0.77518   0.65853   0.05967   0.00000  Uiso   1.00
C144   C     0.76443   0.25144   0.24254   0.00000  Uiso   1.00
C145   C     0.83236   0.38005   0.26799   0.00000  Uiso   1.00
C146   C     0.91056   0.38693   0.33851   0.00000  Uiso   1.00
C147   C     0.05030   0.45299   0.44888   0.00000  Uiso   1.00
C148   C     0.56890   0.19768   0.16327   0.00000  Uiso   1.00
C149   C     0.47242   0.28110   0.12209   0.00000  Uiso   1.00
C150   C     0.38599   0.24274   0.12589   0.00000  Uiso   1.00
C151   C     0.22214   0.22531   0.11318   0.00000  Uiso   1.00
C152   C     0.69153   0.00400   0.24721   0.00000  Uiso   1.00
C153   C     0.70927   0.94632   0.19409   0.00000  Uiso   1.00
C154   C     0.73275   0.79530   0.18733   0.00000  Uiso   1.00
C155   C     0.74609   0.76596   0.13551   0.00000  Uiso   1.00
C156   C     0.77425   0.13389   0.28599   0.00000  Uiso   1.00
C157   C     0.85235   0.14059   0.35650   0.00000  Uiso   1.00
C158   C     0.92039   0.26916   0.38205   0.00000  Uiso   1.00
C159   C     0.57871   0.08011   0.20672   0.00000  Uiso   1.00
C160   C     0.49241   0.04163   0.21060   0.00000  Uiso   1.00
C161   C     0.39583   0.12497   0.16942   0.00000  Uiso   1.00
H162   H     0.66583   0.31197   0.13338   0.00000  Uiso   1.00
H163   H     0.70517   0.12577   0.06520   0.00000  Uiso   1.00
H164   H     0.82474   0.47101   0.23435   0.00000  Uiso   1.00
H165   H     0.46486   0.37207   0.08846   0.00000  Uiso   1.00
H166   H     0.75316   0.86751   0.00880   0.00000  Uiso   1.00
H167   H     0.00526   0.59549   0.36545   0.00000  Uiso   1.00
H168   H     0.24637   0.38685   0.05783   0.00000  Uiso   1.00
H169   H     0.69917   0.91247   0.28104   0.00000  Uiso   1.00
H170   H     0.74034   0.70435   0.22097   0.00000  Uiso   1.00
H171   H     0.85992   0.04959   0.39011   0.00000  Uiso   1.00
H172   H     0.50004   0.95065   0.24423   0.00000  Uiso   1.00
H173   H     0.78171   0.52546   0.13523   0.00000  Uiso   1.00
H174   H     0.03381   0.25346   0.49188   0.00000  Uiso   1.00
H175   H     0.27492   0.04481   0.18426   0.00000  Uiso   1.00
O176   O     0.79395   0.56679   0.02984   0.00000  Uiso   1.00
O177   O     0.12468   0.52190   0.49775   0.00000  Uiso   1.00
O178   O     0.12904   0.24816   0.09416   0.00000  Uiso   1.00
N179   N     0.75421   0.81556   0.04679   0.00000  Uiso   1.00
N180   N     0.98992   0.49618   0.38023   0.00000  Uiso   1.00
N181   N     0.28043   0.30114   0.09265   0.00000  Uiso   1.00
N182   N     0.76957   0.63151   0.11482   0.00000  Uiso   1.00
N183   N     0.00528   0.31212   0.44826   0.00000  Uiso   1.00
N184   N     0.29579   0.11709   0.16068   0.00000  Uiso   1.00
