data_job_02670
_audit_creation_date              2018-12-19
_audit_creation_method            'Materials Studio'
_symmetry_space_group_name_H-M    'P1'
_symmetry_Int_Tables_number       1
_symmetry_cell_setting            triclinic
loop_
_symmetry_equiv_pos_as_xyz
  x,y,z
_cell_length_a                    10.1036
_cell_length_b                    29.9299
_cell_length_c                    9.1660
_cell_angle_alpha                 90.0000
_cell_angle_beta                  80.7751
_cell_angle_gamma                 90.0000
loop_
_atom_site_label
_atom_site_type_symbol
_atom_site_fract_x
_atom_site_fract_y
_atom_site_fract_z
_atom_site_U_iso_or_equiv
_atom_site_adp_type
_atom_site_occupancy
C1     C     0.68466   0.13250   0.23952   0.00000  Uiso   1.00
C2     C     0.53439   0.13360   0.23548   0.00000  Uiso   1.00
C3     C     0.43994   0.15796   0.32987   0.00000  Uiso   1.00
C4     C     0.30746   0.15449   0.30816   0.00000  Uiso   1.00
C5     C     0.07969   0.16028   0.31898   0.00000  Uiso   1.00
C6     C     0.72050   0.08345   0.25580   0.00000  Uiso   1.00
C7     C     0.78254   0.06565   0.36726   0.00000  Uiso   1.00
C8     C     0.80673   0.01996   0.36263   0.00000  Uiso   1.00
C9     C     0.86798   0.94790   0.40494   0.00000  Uiso   1.00
C10    C     0.75294   0.14654   0.08584   0.00000  Uiso   1.00
C11    C     0.84229   0.18176   0.05440   0.00000  Uiso   1.00
C12    C     0.89382   0.18918   0.90667   0.00000  Uiso   1.00
C13    C     0.00544   0.21505   0.68509   0.00000  Uiso   1.00
C14    C     0.61733   0.08303   0.03309   0.00000  Uiso   1.00
C15    C     0.49783   0.10673   0.12336   0.00000  Uiso   1.00
C16    C     0.36545   0.10323   0.10148   0.00000  Uiso   1.00
C17    C     0.27082   0.12758   0.19583   0.00000  Uiso   1.00
C18    C     0.68393   0.05659   0.14368   0.00000  Uiso   1.00
C19    C     0.70804   0.01092   0.13887   0.00000  Uiso   1.00
C20    C     0.77009   0.99305   0.25030   0.00000  Uiso   1.00
C21    C     0.71637   0.11967   0.97371   0.00000  Uiso   1.00
C22    C     0.76779   0.12703   0.82601   0.00000  Uiso   1.00
C23    C     0.85719   0.16226   0.79434   0.00000  Uiso   1.00
H24    H     0.71313   0.15341   0.32682   0.00000  Uiso   1.00
H25    H     0.46828   0.17875   0.41664   0.00000  Uiso   1.00
H26    H     0.81083   0.08645   0.45401   0.00000  Uiso   1.00
H27    H     0.87056   0.20254   0.14119   0.00000  Uiso   1.00
H28    H     0.18069   0.19497   0.46681   0.00000  Uiso   1.00
H29    H     0.90302   0.00036   0.54558   0.00000  Uiso   1.00
H30    H     0.02898   0.24517   0.88595   0.00000  Uiso   1.00
H31    H     0.58886   0.06211   0.94580   0.00000  Uiso   1.00
H32    H     0.33718   0.08243   0.01471   0.00000  Uiso   1.00
H33    H     0.67974   0.99014   0.05208   0.00000  Uiso   1.00
H34    H     0.73947   0.10623   0.73927   0.00000  Uiso   1.00
H35    H     0.07428   0.11680   0.14059   0.00000  Uiso   1.00
H36    H     0.79662   0.92219   0.21936   0.00000  Uiso   1.00
H37    H     0.92257   0.16700   0.55973   0.00000  Uiso   1.00
O38    O     0.96416   0.17089   0.35594   0.00000  Uiso   1.00
O39    O     0.91185   0.91557   0.45926   0.00000  Uiso   1.00
O40    O     0.07710   0.23675   0.59384   0.00000  Uiso   1.00
N41    N     0.19019   0.17379   0.38056   0.00000  Uiso   1.00
N42    N     0.86550   0.99184   0.45422   0.00000  Uiso   1.00
N43    N     0.98329   0.22071   0.83752   0.00000  Uiso   1.00
N44    N     0.13293   0.13172   0.20502   0.00000  Uiso   1.00
N45    N     0.80825   0.94977   0.27868   0.00000  Uiso   1.00
N46    N     0.92604   0.17864   0.66198   0.00000  Uiso   1.00
C47    C     0.31534   0.63250   0.26048   0.00000  Uiso   1.00
C48    C     0.46561   0.63360   0.26452   0.00000  Uiso   1.00
C49    C     0.56006   0.65796   0.17013   0.00000  Uiso   1.00
C50    C     0.69254   0.65449   0.19184   0.00000  Uiso   1.00
C51    C     0.92031   0.66028   0.18102   0.00000  Uiso   1.00
C52    C     0.27950   0.58345   0.24420   0.00000  Uiso   1.00
C53    C     0.21746   0.56565   0.13274   0.00000  Uiso   1.00
C54    C     0.19327   0.51996   0.13737   0.00000  Uiso   1.00
C55    C     0.13202   0.44790   0.09506   0.00000  Uiso   1.00
C56    C     0.24706   0.64654   0.41416   0.00000  Uiso   1.00
C57    C     0.15771   0.68176   0.44560   0.00000  Uiso   1.00
C58    C     0.10618   0.68918   0.59333   0.00000  Uiso   1.00
C59    C     0.99456   0.71505   0.81491   0.00000  Uiso   1.00
C60    C     0.38267   0.58303   0.46691   0.00000  Uiso   1.00
C61    C     0.50217   0.60673   0.37664   0.00000  Uiso   1.00
C62    C     0.63455   0.60323   0.39852   0.00000  Uiso   1.00
C63    C     0.72918   0.62758   0.30417   0.00000  Uiso   1.00
C64    C     0.31607   0.55659   0.35632   0.00000  Uiso   1.00
C65    C     0.29196   0.51092   0.36113   0.00000  Uiso   1.00
C66    C     0.22991   0.49305   0.24970   0.00000  Uiso   1.00
C67    C     0.28363   0.61967   0.52629   0.00000  Uiso   1.00
C68    C     0.23221   0.62703   0.67399   0.00000  Uiso   1.00
C69    C     0.14281   0.66226   0.70566   0.00000  Uiso   1.00
H70    H     0.28687   0.65341   0.17318   0.00000  Uiso   1.00
H71    H     0.53172   0.67875   0.08336   0.00000  Uiso   1.00
H72    H     0.18917   0.58645   0.04599   0.00000  Uiso   1.00
H73    H     0.12944   0.70254   0.35881   0.00000  Uiso   1.00
H74    H     0.81931   0.69497   0.03319   0.00000  Uiso   1.00
H75    H     0.09698   0.50036   0.95442   0.00000  Uiso   1.00
H76    H     0.97102   0.74517   0.61405   0.00000  Uiso   1.00
H77    H     0.41114   0.56211   0.55420   0.00000  Uiso   1.00
H78    H     0.66282   0.58243   0.48529   0.00000  Uiso   1.00
H79    H     0.32026   0.49014   0.44792   0.00000  Uiso   1.00
H80    H     0.26053   0.60623   0.76073   0.00000  Uiso   1.00
H81    H     0.92572   0.61680   0.35941   0.00000  Uiso   1.00
H82    H     0.20338   0.42219   0.28064   0.00000  Uiso   1.00
H83    H     0.07743   0.66700   0.94027   0.00000  Uiso   1.00
O84    O     0.03584   0.67089   0.14406   0.00000  Uiso   1.00
O85    O     0.08815   0.41557   0.04074   0.00000  Uiso   1.00
O86    O     0.92290   0.73675   0.90616   0.00000  Uiso   1.00
N87    N     0.80981   0.67379   0.11944   0.00000  Uiso   1.00
N88    N     0.13450   0.49184   0.04578   0.00000  Uiso   1.00
N89    N     0.01671   0.72071   0.66248   0.00000  Uiso   1.00
N90    N     0.86707   0.63172   0.29498   0.00000  Uiso   1.00
N91    N     0.19175   0.44977   0.22132   0.00000  Uiso   1.00
N92    N     0.07396   0.67864   0.83802   0.00000  Uiso   1.00
C93    C     0.31534   0.86750   0.76048   0.00000  Uiso   1.00
C94    C     0.46561   0.86640   0.76452   0.00000  Uiso   1.00
C95    C     0.56006   0.84204   0.67013   0.00000  Uiso   1.00
C96    C     0.69254   0.84551   0.69184   0.00000  Uiso   1.00
C97    C     0.92031   0.83972   0.68102   0.00000  Uiso   1.00
C98    C     0.27950   0.91655   0.74420   0.00000  Uiso   1.00
C99    C     0.21746   0.93435   0.63274   0.00000  Uiso   1.00
C100   C     0.19327   0.98004   0.63737   0.00000  Uiso   1.00
C101   C     0.13202   0.05210   0.59506   0.00000  Uiso   1.00
C102   C     0.24706   0.85346   0.91416   0.00000  Uiso   1.00
C103   C     0.15771   0.81824   0.94560   0.00000  Uiso   1.00
C104   C     0.10618   0.81082   0.09333   0.00000  Uiso   1.00
C105   C     0.99456   0.78495   0.31491   0.00000  Uiso   1.00
C106   C     0.38267   0.91697   0.96691   0.00000  Uiso   1.00
C107   C     0.50217   0.89327   0.87664   0.00000  Uiso   1.00
C108   C     0.63455   0.89677   0.89852   0.00000  Uiso   1.00
C109   C     0.72918   0.87242   0.80417   0.00000  Uiso   1.00
C110   C     0.31607   0.94341   0.85632   0.00000  Uiso   1.00
C111   C     0.29196   0.98908   0.86113   0.00000  Uiso   1.00
C112   C     0.22991   0.00695   0.74970   0.00000  Uiso   1.00
C113   C     0.28363   0.88033   0.02629   0.00000  Uiso   1.00
C114   C     0.23221   0.87297   0.17399   0.00000  Uiso   1.00
C115   C     0.14281   0.83774   0.20566   0.00000  Uiso   1.00
H116   H     0.28687   0.84659   0.67318   0.00000  Uiso   1.00
H117   H     0.53172   0.82125   0.58336   0.00000  Uiso   1.00
H118   H     0.18917   0.91355   0.54599   0.00000  Uiso   1.00
H119   H     0.12944   0.79746   0.85881   0.00000  Uiso   1.00
H120   H     0.81931   0.80503   0.53319   0.00000  Uiso   1.00
H121   H     0.09698   0.99964   0.45442   0.00000  Uiso   1.00
H122   H     0.97102   0.75483   0.11405   0.00000  Uiso   1.00
H123   H     0.41114   0.93789   0.05420   0.00000  Uiso   1.00
H124   H     0.66282   0.91757   0.98529   0.00000  Uiso   1.00
H125   H     0.32026   0.00986   0.94792   0.00000  Uiso   1.00
H126   H     0.26053   0.89377   0.26073   0.00000  Uiso   1.00
H127   H     0.92572   0.88320   0.85941   0.00000  Uiso   1.00
H128   H     0.20338   0.07781   0.78064   0.00000  Uiso   1.00
H129   H     0.07743   0.83300   0.44027   0.00000  Uiso   1.00
O130   O     0.03584   0.82911   0.64406   0.00000  Uiso   1.00
O131   O     0.08815   0.08443   0.54074   0.00000  Uiso   1.00
O132   O     0.92290   0.76325   0.40616   0.00000  Uiso   1.00
N133   N     0.80981   0.82621   0.61944   0.00000  Uiso   1.00
N134   N     0.13450   0.00816   0.54578   0.00000  Uiso   1.00
N135   N     0.01671   0.77929   0.16248   0.00000  Uiso   1.00
N136   N     0.86707   0.86828   0.79498   0.00000  Uiso   1.00
N137   N     0.19175   0.05023   0.72132   0.00000  Uiso   1.00
N138   N     0.07396   0.82136   0.33802   0.00000  Uiso   1.00
C139   C     0.68466   0.36750   0.73952   0.00000  Uiso   1.00
C140   C     0.53439   0.36640   0.73548   0.00000  Uiso   1.00
C141   C     0.43994   0.34204   0.82987   0.00000  Uiso   1.00
C142   C     0.30746   0.34551   0.80816   0.00000  Uiso   1.00
C143   C     0.07969   0.33972   0.81898   0.00000  Uiso   1.00
C144   C     0.72050   0.41655   0.75580   0.00000  Uiso   1.00
C145   C     0.78254   0.43435   0.86726   0.00000  Uiso   1.00
C146   C     0.80673   0.48004   0.86263   0.00000  Uiso   1.00
C147   C     0.86798   0.55210   0.90494   0.00000  Uiso   1.00
C148   C     0.75294   0.35346   0.58584   0.00000  Uiso   1.00
C149   C     0.84229   0.31824   0.55440   0.00000  Uiso   1.00
C150   C     0.89382   0.31082   0.40667   0.00000  Uiso   1.00
C151   C     0.00544   0.28495   0.18509   0.00000  Uiso   1.00
C152   C     0.61733   0.41697   0.53309   0.00000  Uiso   1.00
C153   C     0.49783   0.39327   0.62336   0.00000  Uiso   1.00
C154   C     0.36545   0.39677   0.60148   0.00000  Uiso   1.00
C155   C     0.27082   0.37242   0.69583   0.00000  Uiso   1.00
C156   C     0.68393   0.44341   0.64368   0.00000  Uiso   1.00
C157   C     0.70804   0.48908   0.63887   0.00000  Uiso   1.00
C158   C     0.77009   0.50695   0.75030   0.00000  Uiso   1.00
C159   C     0.71637   0.38033   0.47371   0.00000  Uiso   1.00
C160   C     0.76779   0.37297   0.32601   0.00000  Uiso   1.00
C161   C     0.85719   0.33774   0.29434   0.00000  Uiso   1.00
H162   H     0.71313   0.34659   0.82682   0.00000  Uiso   1.00
H163   H     0.46828   0.32125   0.91664   0.00000  Uiso   1.00
H164   H     0.81083   0.41355   0.95401   0.00000  Uiso   1.00
H165   H     0.87056   0.29746   0.64119   0.00000  Uiso   1.00
H166   H     0.18069   0.30503   0.96681   0.00000  Uiso   1.00
H167   H     0.90302   0.49964   0.04558   0.00000  Uiso   1.00
H168   H     0.02898   0.25483   0.38595   0.00000  Uiso   1.00
H169   H     0.58886   0.43789   0.44580   0.00000  Uiso   1.00
H170   H     0.33718   0.41757   0.51471   0.00000  Uiso   1.00
H171   H     0.67974   0.50986   0.55208   0.00000  Uiso   1.00
H172   H     0.73947   0.39377   0.23927   0.00000  Uiso   1.00
H173   H     0.07428   0.38320   0.64059   0.00000  Uiso   1.00
H174   H     0.79662   0.57781   0.71936   0.00000  Uiso   1.00
H175   H     0.92257   0.33300   0.05973   0.00000  Uiso   1.00
O176   O     0.96416   0.32911   0.85594   0.00000  Uiso   1.00
O177   O     0.91185   0.58443   0.95926   0.00000  Uiso   1.00
O178   O     0.07710   0.26325   0.09384   0.00000  Uiso   1.00
N179   N     0.19019   0.32621   0.88056   0.00000  Uiso   1.00
N180   N     0.86550   0.50816   0.95422   0.00000  Uiso   1.00
N181   N     0.98329   0.27929   0.33752   0.00000  Uiso   1.00
N182   N     0.13293   0.36828   0.70502   0.00000  Uiso   1.00
N183   N     0.80825   0.55023   0.77868   0.00000  Uiso   1.00
N184   N     0.92604   0.32136   0.16198   0.00000  Uiso   1.00
