data_job_01770
_audit_creation_date              2018-12-19
_audit_creation_method            'Materials Studio'
_symmetry_space_group_name_H-M    'P1'
_symmetry_Int_Tables_number       1
_symmetry_cell_setting            triclinic
loop_
_symmetry_equiv_pos_as_xyz
  x,y,z
_cell_length_a                    45.6644
_cell_length_b                    45.6644
_cell_length_c                    7.0016
_cell_angle_alpha                 90.0000
_cell_angle_beta                  90.0000
_cell_angle_gamma                 90.0000
loop_
_atom_site_label
_atom_site_type_symbol
_atom_site_fract_x
_atom_site_fract_y
_atom_site_fract_z
_atom_site_U_iso_or_equiv
_atom_site_adp_type
_atom_site_occupancy
C1     C     0.35195   0.35200   0.84967   0.00000  Uiso   1.00
C2     C     0.33214   0.33217   0.73131   0.00000  Uiso   1.00
C3     C     0.31211   0.31217   0.80346   0.00000  Uiso   1.00
C4     C     0.29607   0.29609   0.67164   0.00000  Uiso   1.00
C5     C     0.26473   0.26470   0.51781   0.00000  Uiso   1.00
C6     C     0.38315   0.34544   0.78498   0.00000  Uiso   1.00
C7     C     0.40601   0.33662   0.90226   0.00000  Uiso   1.00
C8     C     0.43292   0.33172   0.81561   0.00000  Uiso   1.00
C9     C     0.48079   0.32097   0.74512   0.00000  Uiso   1.00
C10    C     0.34545   0.38319   0.78436   0.00000  Uiso   1.00
C11    C     0.33661   0.40610   0.90112   0.00000  Uiso   1.00
C12    C     0.33178   0.43298   0.81395   0.00000  Uiso   1.00
C13    C     0.32110   0.48083   0.74249   0.00000  Uiso   1.00
C14    C     0.35909   0.35900   0.48725   0.00000  Uiso   1.00
C15    C     0.33602   0.33596   0.53446   0.00000  Uiso   1.00
C16    C     0.32001   0.31991   0.40249   0.00000  Uiso   1.00
C17    C     0.29995   0.29989   0.47444   0.00000  Uiso   1.00
C18    C     0.38704   0.34924   0.58813   0.00000  Uiso   1.00
C19    C     0.41392   0.34436   0.50129   0.00000  Uiso   1.00
C20    C     0.43681   0.33552   0.61840   0.00000  Uiso   1.00
C21    C     0.34933   0.38699   0.58750   0.00000  Uiso   1.00
C22    C     0.34451   0.41384   0.50014   0.00000  Uiso   1.00
C23    C     0.33567   0.43679   0.61674   0.00000  Uiso   1.00
H24    H     0.34893   0.34904   0.00292   0.00000  Uiso   1.00
H25    H     0.30911   0.30923   0.95582   0.00000  Uiso   1.00
H26    H     0.40300   0.33368   0.05459   0.00000  Uiso   1.00
H27    H     0.33361   0.40315   0.05345   0.00000  Uiso   1.00
H28    H     0.26668   0.26677   0.81678   0.00000  Uiso   1.00
H29    H     0.46466   0.31833   0.02506   0.00000  Uiso   1.00
H30    H     0.31834   0.46482   0.02265   0.00000  Uiso   1.00
H31    H     0.36212   0.36196   0.33399   0.00000  Uiso   1.00
H32    H     0.32302   0.32285   0.25017   0.00000  Uiso   1.00
H33    H     0.41691   0.34730   0.34895   0.00000  Uiso   1.00
H34    H     0.34752   0.41677   0.34780   0.00000  Uiso   1.00
H35    H     0.27797   0.27782   0.24404   0.00000  Uiso   1.00
H36    H     0.47595   0.32938   0.45234   0.00000  Uiso   1.00
H37    H     0.32962   0.47587   0.44992   0.00000  Uiso   1.00
O38    O     0.24638   0.24633   0.48734   0.00000  Uiso   1.00
O39    O     0.50612   0.31398   0.76062   0.00000  Uiso   1.00
O40    O     0.31414   0.50617   0.75745   0.00000  Uiso   1.00
N41    N     0.27470   0.27474   0.69349   0.00000  Uiso   1.00
N42    N     0.45980   0.32294   0.88822   0.00000  Uiso   1.00
N43    N     0.32300   0.45990   0.88597   0.00000  Uiso   1.00
N44    N     0.28078   0.28069   0.38530   0.00000  Uiso   1.00
N45    N     0.46587   0.32889   0.58004   0.00000  Uiso   1.00
N46    N     0.32908   0.46585   0.57779   0.00000  Uiso   1.00
C47    C     0.64805   0.64800   0.84967   0.00000  Uiso   1.00
C48    C     0.66786   0.66783   0.73131   0.00000  Uiso   1.00
C49    C     0.68789   0.68783   0.80346   0.00000  Uiso   1.00
C50    C     0.70393   0.70391   0.67164   0.00000  Uiso   1.00
C51    C     0.73527   0.73530   0.51781   0.00000  Uiso   1.00
C52    C     0.61685   0.65456   0.78498   0.00000  Uiso   1.00
C53    C     0.59399   0.66338   0.90226   0.00000  Uiso   1.00
C54    C     0.56708   0.66828   0.81561   0.00000  Uiso   1.00
C55    C     0.51921   0.67903   0.74512   0.00000  Uiso   1.00
C56    C     0.65455   0.61681   0.78436   0.00000  Uiso   1.00
C57    C     0.66339   0.59390   0.90112   0.00000  Uiso   1.00
C58    C     0.66822   0.56702   0.81395   0.00000  Uiso   1.00
C59    C     0.67890   0.51917   0.74249   0.00000  Uiso   1.00
C60    C     0.64091   0.64100   0.48725   0.00000  Uiso   1.00
C61    C     0.66398   0.66404   0.53446   0.00000  Uiso   1.00
C62    C     0.67999   0.68009   0.40249   0.00000  Uiso   1.00
C63    C     0.70005   0.70011   0.47444   0.00000  Uiso   1.00
C64    C     0.61296   0.65076   0.58813   0.00000  Uiso   1.00
C65    C     0.58608   0.65564   0.50129   0.00000  Uiso   1.00
C66    C     0.56319   0.66448   0.61840   0.00000  Uiso   1.00
C67    C     0.65067   0.61301   0.58750   0.00000  Uiso   1.00
C68    C     0.65549   0.58616   0.50014   0.00000  Uiso   1.00
C69    C     0.66433   0.56321   0.61674   0.00000  Uiso   1.00
H70    H     0.65107   0.65096   0.00292   0.00000  Uiso   1.00
H71    H     0.69089   0.69077   0.95582   0.00000  Uiso   1.00
H72    H     0.59700   0.66632   0.05459   0.00000  Uiso   1.00
H73    H     0.66639   0.59685   0.05345   0.00000  Uiso   1.00
H74    H     0.73332   0.73323   0.81678   0.00000  Uiso   1.00
H75    H     0.53534   0.68167   0.02506   0.00000  Uiso   1.00
H76    H     0.68166   0.53518   0.02265   0.00000  Uiso   1.00
H77    H     0.63788   0.63804   0.33399   0.00000  Uiso   1.00
H78    H     0.67698   0.67715   0.25017   0.00000  Uiso   1.00
H79    H     0.58309   0.65270   0.34895   0.00000  Uiso   1.00
H80    H     0.65248   0.58323   0.34780   0.00000  Uiso   1.00
H81    H     0.72203   0.72218   0.24404   0.00000  Uiso   1.00
H82    H     0.52405   0.67062   0.45234   0.00000  Uiso   1.00
H83    H     0.67038   0.52413   0.44992   0.00000  Uiso   1.00
O84    O     0.75362   0.75367   0.48734   0.00000  Uiso   1.00
O85    O     0.49388   0.68602   0.76062   0.00000  Uiso   1.00
O86    O     0.68586   0.49383   0.75745   0.00000  Uiso   1.00
N87    N     0.72530   0.72526   0.69349   0.00000  Uiso   1.00
N88    N     0.54020   0.67706   0.88822   0.00000  Uiso   1.00
N89    N     0.67700   0.54010   0.88597   0.00000  Uiso   1.00
N90    N     0.71922   0.71931   0.38530   0.00000  Uiso   1.00
N91    N     0.53413   0.67111   0.58004   0.00000  Uiso   1.00
N92    N     0.67092   0.53415   0.57779   0.00000  Uiso   1.00
C93    C     0.14800   0.85195   0.34967   0.00000  Uiso   1.00
C94    C     0.16783   0.83214   0.23131   0.00000  Uiso   1.00
C95    C     0.18783   0.81211   0.30346   0.00000  Uiso   1.00
C96    C     0.20391   0.79607   0.17164   0.00000  Uiso   1.00
C97    C     0.23530   0.76473   0.01781   0.00000  Uiso   1.00
C98    C     0.15456   0.88315   0.28498   0.00000  Uiso   1.00
C99    C     0.16338   0.90601   0.40226   0.00000  Uiso   1.00
C100   C     0.16828   0.93292   0.31561   0.00000  Uiso   1.00
C101   C     0.17903   0.98079   0.24512   0.00000  Uiso   1.00
C102   C     0.11681   0.84545   0.28436   0.00000  Uiso   1.00
C103   C     0.09390   0.83661   0.40112   0.00000  Uiso   1.00
C104   C     0.06702   0.83178   0.31395   0.00000  Uiso   1.00
C105   C     0.01917   0.82110   0.24249   0.00000  Uiso   1.00
C106   C     0.14100   0.85909   0.98725   0.00000  Uiso   1.00
C107   C     0.16404   0.83602   0.03446   0.00000  Uiso   1.00
C108   C     0.18009   0.82001   0.90249   0.00000  Uiso   1.00
C109   C     0.20011   0.79995   0.97444   0.00000  Uiso   1.00
C110   C     0.15076   0.88704   0.08813   0.00000  Uiso   1.00
C111   C     0.15564   0.91392   0.00129   0.00000  Uiso   1.00
C112   C     0.16448   0.93681   0.11840   0.00000  Uiso   1.00
C113   C     0.11301   0.84933   0.08750   0.00000  Uiso   1.00
C114   C     0.08616   0.84451   0.00014   0.00000  Uiso   1.00
C115   C     0.06321   0.83567   0.11674   0.00000  Uiso   1.00
H116   H     0.15096   0.84893   0.50292   0.00000  Uiso   1.00
H117   H     0.19077   0.80911   0.45582   0.00000  Uiso   1.00
H118   H     0.16632   0.90300   0.55459   0.00000  Uiso   1.00
H119   H     0.09685   0.83361   0.55345   0.00000  Uiso   1.00
H120   H     0.23323   0.76668   0.31678   0.00000  Uiso   1.00
H121   H     0.18167   0.96466   0.52506   0.00000  Uiso   1.00
H122   H     0.03518   0.81834   0.52265   0.00000  Uiso   1.00
H123   H     0.13804   0.86212   0.83399   0.00000  Uiso   1.00
H124   H     0.17715   0.82302   0.75017   0.00000  Uiso   1.00
H125   H     0.15270   0.91691   0.84895   0.00000  Uiso   1.00
H126   H     0.08323   0.84752   0.84780   0.00000  Uiso   1.00
H127   H     0.22218   0.77797   0.74404   0.00000  Uiso   1.00
H128   H     0.17062   0.97595   0.95234   0.00000  Uiso   1.00
H129   H     0.02413   0.82962   0.94992   0.00000  Uiso   1.00
O130   O     0.25367   0.74638   0.98734   0.00000  Uiso   1.00
O131   O     0.18602   0.00612   0.26062   0.00000  Uiso   1.00
O132   O     0.99383   0.81414   0.25745   0.00000  Uiso   1.00
N133   N     0.22526   0.77470   0.19349   0.00000  Uiso   1.00
N134   N     0.17706   0.95980   0.38822   0.00000  Uiso   1.00
N135   N     0.04010   0.82300   0.38597   0.00000  Uiso   1.00
N136   N     0.21931   0.78078   0.88530   0.00000  Uiso   1.00
N137   N     0.17111   0.96587   0.08004   0.00000  Uiso   1.00
N138   N     0.03415   0.82908   0.07779   0.00000  Uiso   1.00
C139   C     0.85200   0.14805   0.34967   0.00000  Uiso   1.00
C140   C     0.83217   0.16786   0.23131   0.00000  Uiso   1.00
C141   C     0.81217   0.18789   0.30346   0.00000  Uiso   1.00
C142   C     0.79609   0.20393   0.17164   0.00000  Uiso   1.00
C143   C     0.76470   0.23527   0.01781   0.00000  Uiso   1.00
C144   C     0.84544   0.11685   0.28498   0.00000  Uiso   1.00
C145   C     0.83662   0.09399   0.40226   0.00000  Uiso   1.00
C146   C     0.83172   0.06708   0.31561   0.00000  Uiso   1.00
C147   C     0.82097   0.01921   0.24512   0.00000  Uiso   1.00
C148   C     0.88319   0.15455   0.28436   0.00000  Uiso   1.00
C149   C     0.90610   0.16339   0.40112   0.00000  Uiso   1.00
C150   C     0.93298   0.16822   0.31395   0.00000  Uiso   1.00
C151   C     0.98083   0.17890   0.24249   0.00000  Uiso   1.00
C152   C     0.85900   0.14091   0.98725   0.00000  Uiso   1.00
C153   C     0.83596   0.16398   0.03446   0.00000  Uiso   1.00
C154   C     0.81991   0.17999   0.90249   0.00000  Uiso   1.00
C155   C     0.79989   0.20005   0.97444   0.00000  Uiso   1.00
C156   C     0.84924   0.11296   0.08813   0.00000  Uiso   1.00
C157   C     0.84436   0.08608   0.00129   0.00000  Uiso   1.00
C158   C     0.83552   0.06319   0.11840   0.00000  Uiso   1.00
C159   C     0.88699   0.15067   0.08750   0.00000  Uiso   1.00
C160   C     0.91384   0.15549   0.00014   0.00000  Uiso   1.00
C161   C     0.93679   0.16433   0.11674   0.00000  Uiso   1.00
H162   H     0.84904   0.15107   0.50292   0.00000  Uiso   1.00
H163   H     0.80923   0.19089   0.45582   0.00000  Uiso   1.00
H164   H     0.83368   0.09700   0.55459   0.00000  Uiso   1.00
H165   H     0.90315   0.16639   0.55345   0.00000  Uiso   1.00
H166   H     0.76677   0.23332   0.31678   0.00000  Uiso   1.00
H167   H     0.81833   0.03534   0.52506   0.00000  Uiso   1.00
H168   H     0.96482   0.18166   0.52265   0.00000  Uiso   1.00
H169   H     0.86196   0.13788   0.83399   0.00000  Uiso   1.00
H170   H     0.82285   0.17698   0.75017   0.00000  Uiso   1.00
H171   H     0.84730   0.08309   0.84895   0.00000  Uiso   1.00
H172   H     0.91677   0.15248   0.84780   0.00000  Uiso   1.00
H173   H     0.77782   0.22203   0.74404   0.00000  Uiso   1.00
H174   H     0.82938   0.02405   0.95234   0.00000  Uiso   1.00
H175   H     0.97587   0.17038   0.94992   0.00000  Uiso   1.00
O176   O     0.74633   0.25362   0.98734   0.00000  Uiso   1.00
O177   O     0.81398   0.99388   0.26062   0.00000  Uiso   1.00
O178   O     0.00617   0.18586   0.25745   0.00000  Uiso   1.00
N179   N     0.77474   0.22530   0.19349   0.00000  Uiso   1.00
N180   N     0.82294   0.04020   0.38822   0.00000  Uiso   1.00
N181   N     0.95990   0.17700   0.38597   0.00000  Uiso   1.00
N182   N     0.78069   0.21922   0.88530   0.00000  Uiso   1.00
N183   N     0.82889   0.03413   0.08004   0.00000  Uiso   1.00
N184   N     0.96585   0.17092   0.07779   0.00000  Uiso   1.00
C185   C     0.14805   0.14800   0.65033   0.00000  Uiso   1.00
C186   C     0.16786   0.16783   0.76869   0.00000  Uiso   1.00
C187   C     0.18789   0.18783   0.69654   0.00000  Uiso   1.00
C188   C     0.20393   0.20391   0.82836   0.00000  Uiso   1.00
C189   C     0.23527   0.23530   0.98219   0.00000  Uiso   1.00
C190   C     0.11685   0.15456   0.71502   0.00000  Uiso   1.00
C191   C     0.09399   0.16338   0.59774   0.00000  Uiso   1.00
C192   C     0.06708   0.16828   0.68439   0.00000  Uiso   1.00
C193   C     0.01921   0.17903   0.75488   0.00000  Uiso   1.00
C194   C     0.15455   0.11681   0.71564   0.00000  Uiso   1.00
C195   C     0.16339   0.09390   0.59888   0.00000  Uiso   1.00
C196   C     0.16822   0.06702   0.68605   0.00000  Uiso   1.00
C197   C     0.17890   0.01917   0.75751   0.00000  Uiso   1.00
C198   C     0.14091   0.14100   0.01275   0.00000  Uiso   1.00
C199   C     0.16398   0.16404   0.96554   0.00000  Uiso   1.00
C200   C     0.17999   0.18009   0.09751   0.00000  Uiso   1.00
C201   C     0.20005   0.20011   0.02556   0.00000  Uiso   1.00
C202   C     0.11296   0.15076   0.91187   0.00000  Uiso   1.00
C203   C     0.08608   0.15564   0.99871   0.00000  Uiso   1.00
C204   C     0.06319   0.16448   0.88160   0.00000  Uiso   1.00
C205   C     0.15067   0.11301   0.91250   0.00000  Uiso   1.00
C206   C     0.15549   0.08616   0.99986   0.00000  Uiso   1.00
C207   C     0.16433   0.06321   0.88326   0.00000  Uiso   1.00
H208   H     0.15107   0.15096   0.49708   0.00000  Uiso   1.00
H209   H     0.19089   0.19077   0.54418   0.00000  Uiso   1.00
H210   H     0.09700   0.16632   0.44541   0.00000  Uiso   1.00
H211   H     0.16639   0.09685   0.44655   0.00000  Uiso   1.00
H212   H     0.23332   0.23323   0.68322   0.00000  Uiso   1.00
H213   H     0.03534   0.18167   0.47494   0.00000  Uiso   1.00
H214   H     0.18166   0.03518   0.47735   0.00000  Uiso   1.00
H215   H     0.13788   0.13804   0.16601   0.00000  Uiso   1.00
H216   H     0.17698   0.17715   0.24983   0.00000  Uiso   1.00
H217   H     0.08309   0.15270   0.15105   0.00000  Uiso   1.00
H218   H     0.15248   0.08323   0.15220   0.00000  Uiso   1.00
H219   H     0.22203   0.22218   0.25596   0.00000  Uiso   1.00
H220   H     0.02405   0.17062   0.04766   0.00000  Uiso   1.00
H221   H     0.17038   0.02413   0.05008   0.00000  Uiso   1.00
O222   O     0.25362   0.25367   0.01266   0.00000  Uiso   1.00
O223   O     0.99388   0.18602   0.73938   0.00000  Uiso   1.00
O224   O     0.18586   0.99383   0.74255   0.00000  Uiso   1.00
N225   N     0.22530   0.22526   0.80651   0.00000  Uiso   1.00
N226   N     0.04020   0.17706   0.61178   0.00000  Uiso   1.00
N227   N     0.17700   0.04010   0.61403   0.00000  Uiso   1.00
N228   N     0.21922   0.21931   0.11470   0.00000  Uiso   1.00
N229   N     0.03413   0.17111   0.91996   0.00000  Uiso   1.00
N230   N     0.17092   0.03415   0.92221   0.00000  Uiso   1.00
C231   C     0.85195   0.85200   0.65033   0.00000  Uiso   1.00
C232   C     0.83214   0.83217   0.76869   0.00000  Uiso   1.00
C233   C     0.81211   0.81217   0.69654   0.00000  Uiso   1.00
C234   C     0.79607   0.79609   0.82836   0.00000  Uiso   1.00
C235   C     0.76473   0.76470   0.98219   0.00000  Uiso   1.00
C236   C     0.88315   0.84544   0.71502   0.00000  Uiso   1.00
C237   C     0.90601   0.83662   0.59774   0.00000  Uiso   1.00
C238   C     0.93292   0.83172   0.68439   0.00000  Uiso   1.00
C239   C     0.98079   0.82097   0.75488   0.00000  Uiso   1.00
C240   C     0.84545   0.88319   0.71564   0.00000  Uiso   1.00
C241   C     0.83661   0.90610   0.59888   0.00000  Uiso   1.00
C242   C     0.83178   0.93298   0.68605   0.00000  Uiso   1.00
C243   C     0.82110   0.98083   0.75751   0.00000  Uiso   1.00
C244   C     0.85909   0.85900   0.01275   0.00000  Uiso   1.00
C245   C     0.83602   0.83596   0.96554   0.00000  Uiso   1.00
C246   C     0.82001   0.81991   0.09751   0.00000  Uiso   1.00
C247   C     0.79995   0.79989   0.02556   0.00000  Uiso   1.00
C248   C     0.88704   0.84924   0.91187   0.00000  Uiso   1.00
C249   C     0.91392   0.84436   0.99871   0.00000  Uiso   1.00
C250   C     0.93681   0.83552   0.88160   0.00000  Uiso   1.00
C251   C     0.84933   0.88699   0.91250   0.00000  Uiso   1.00
C252   C     0.84451   0.91384   0.99986   0.00000  Uiso   1.00
C253   C     0.83567   0.93679   0.88326   0.00000  Uiso   1.00
H254   H     0.84893   0.84904   0.49708   0.00000  Uiso   1.00
H255   H     0.80911   0.80923   0.54418   0.00000  Uiso   1.00
H256   H     0.90300   0.83368   0.44541   0.00000  Uiso   1.00
H257   H     0.83361   0.90315   0.44655   0.00000  Uiso   1.00
H258   H     0.76668   0.76677   0.68322   0.00000  Uiso   1.00
H259   H     0.96466   0.81833   0.47494   0.00000  Uiso   1.00
H260   H     0.81834   0.96482   0.47735   0.00000  Uiso   1.00
H261   H     0.86212   0.86196   0.16601   0.00000  Uiso   1.00
H262   H     0.82302   0.82285   0.24983   0.00000  Uiso   1.00
H263   H     0.91691   0.84730   0.15105   0.00000  Uiso   1.00
H264   H     0.84752   0.91677   0.15220   0.00000  Uiso   1.00
H265   H     0.77797   0.77782   0.25596   0.00000  Uiso   1.00
H266   H     0.97595   0.82938   0.04766   0.00000  Uiso   1.00
H267   H     0.82962   0.97587   0.05008   0.00000  Uiso   1.00
O268   O     0.74638   0.74633   0.01266   0.00000  Uiso   1.00
O269   O     0.00612   0.81398   0.73938   0.00000  Uiso   1.00
O270   O     0.81414   0.00617   0.74255   0.00000  Uiso   1.00
N271   N     0.77470   0.77474   0.80651   0.00000  Uiso   1.00
N272   N     0.95980   0.82294   0.61178   0.00000  Uiso   1.00
N273   N     0.82300   0.95990   0.61403   0.00000  Uiso   1.00
N274   N     0.78078   0.78069   0.11470   0.00000  Uiso   1.00
N275   N     0.96587   0.82889   0.91996   0.00000  Uiso   1.00
N276   N     0.82908   0.96585   0.92221   0.00000  Uiso   1.00
C277   C     0.35200   0.64805   0.15033   0.00000  Uiso   1.00
C278   C     0.33217   0.66786   0.26869   0.00000  Uiso   1.00
C279   C     0.31217   0.68789   0.19654   0.00000  Uiso   1.00
C280   C     0.29609   0.70393   0.32836   0.00000  Uiso   1.00
C281   C     0.26470   0.73527   0.48219   0.00000  Uiso   1.00
C282   C     0.34544   0.61685   0.21502   0.00000  Uiso   1.00
C283   C     0.33662   0.59399   0.09774   0.00000  Uiso   1.00
C284   C     0.33172   0.56708   0.18439   0.00000  Uiso   1.00
C285   C     0.32097   0.51921   0.25488   0.00000  Uiso   1.00
C286   C     0.38319   0.65455   0.21564   0.00000  Uiso   1.00
C287   C     0.40610   0.66339   0.09888   0.00000  Uiso   1.00
C288   C     0.43298   0.66822   0.18605   0.00000  Uiso   1.00
C289   C     0.48083   0.67890   0.25751   0.00000  Uiso   1.00
C290   C     0.35900   0.64091   0.51275   0.00000  Uiso   1.00
C291   C     0.33596   0.66398   0.46554   0.00000  Uiso   1.00
C292   C     0.31991   0.67999   0.59751   0.00000  Uiso   1.00
C293   C     0.29989   0.70005   0.52556   0.00000  Uiso   1.00
C294   C     0.34924   0.61296   0.41187   0.00000  Uiso   1.00
C295   C     0.34436   0.58608   0.49871   0.00000  Uiso   1.00
C296   C     0.33552   0.56319   0.38160   0.00000  Uiso   1.00
C297   C     0.38699   0.65067   0.41250   0.00000  Uiso   1.00
C298   C     0.41384   0.65549   0.49986   0.00000  Uiso   1.00
C299   C     0.43679   0.66433   0.38326   0.00000  Uiso   1.00
H300   H     0.34904   0.65107   0.99708   0.00000  Uiso   1.00
H301   H     0.30923   0.69089   0.04418   0.00000  Uiso   1.00
H302   H     0.33368   0.59700   0.94541   0.00000  Uiso   1.00
H303   H     0.40315   0.66639   0.94655   0.00000  Uiso   1.00
H304   H     0.26677   0.73332   0.18322   0.00000  Uiso   1.00
H305   H     0.31833   0.53534   0.97494   0.00000  Uiso   1.00
H306   H     0.46482   0.68166   0.97735   0.00000  Uiso   1.00
H307   H     0.36196   0.63788   0.66601   0.00000  Uiso   1.00
H308   H     0.32285   0.67698   0.74983   0.00000  Uiso   1.00
H309   H     0.34730   0.58309   0.65105   0.00000  Uiso   1.00
H310   H     0.41677   0.65248   0.65220   0.00000  Uiso   1.00
H311   H     0.27782   0.72203   0.75596   0.00000  Uiso   1.00
H312   H     0.32938   0.52405   0.54766   0.00000  Uiso   1.00
H313   H     0.47587   0.67038   0.55008   0.00000  Uiso   1.00
O314   O     0.24633   0.75362   0.51266   0.00000  Uiso   1.00
O315   O     0.31398   0.49388   0.23938   0.00000  Uiso   1.00
O316   O     0.50617   0.68586   0.24255   0.00000  Uiso   1.00
N317   N     0.27474   0.72530   0.30651   0.00000  Uiso   1.00
N318   N     0.32294   0.54020   0.11178   0.00000  Uiso   1.00
N319   N     0.45990   0.67700   0.11403   0.00000  Uiso   1.00
N320   N     0.28069   0.71922   0.61470   0.00000  Uiso   1.00
N321   N     0.32889   0.53413   0.41996   0.00000  Uiso   1.00
N322   N     0.46585   0.67092   0.42221   0.00000  Uiso   1.00
C323   C     0.64800   0.35195   0.15033   0.00000  Uiso   1.00
C324   C     0.66783   0.33214   0.26869   0.00000  Uiso   1.00
C325   C     0.68783   0.31211   0.19654   0.00000  Uiso   1.00
C326   C     0.70391   0.29607   0.32836   0.00000  Uiso   1.00
C327   C     0.73530   0.26473   0.48219   0.00000  Uiso   1.00
C328   C     0.65456   0.38315   0.21502   0.00000  Uiso   1.00
C329   C     0.66338   0.40601   0.09774   0.00000  Uiso   1.00
C330   C     0.66828   0.43292   0.18439   0.00000  Uiso   1.00
C331   C     0.67903   0.48079   0.25488   0.00000  Uiso   1.00
C332   C     0.61681   0.34545   0.21564   0.00000  Uiso   1.00
C333   C     0.59390   0.33661   0.09888   0.00000  Uiso   1.00
C334   C     0.56702   0.33178   0.18605   0.00000  Uiso   1.00
C335   C     0.51917   0.32110   0.25751   0.00000  Uiso   1.00
C336   C     0.64100   0.35909   0.51275   0.00000  Uiso   1.00
C337   C     0.66404   0.33602   0.46554   0.00000  Uiso   1.00
C338   C     0.68009   0.32001   0.59751   0.00000  Uiso   1.00
C339   C     0.70011   0.29995   0.52556   0.00000  Uiso   1.00
C340   C     0.65076   0.38704   0.41187   0.00000  Uiso   1.00
C341   C     0.65564   0.41392   0.49871   0.00000  Uiso   1.00
C342   C     0.66448   0.43681   0.38160   0.00000  Uiso   1.00
C343   C     0.61301   0.34933   0.41250   0.00000  Uiso   1.00
C344   C     0.58616   0.34451   0.49986   0.00000  Uiso   1.00
C345   C     0.56321   0.33567   0.38326   0.00000  Uiso   1.00
H346   H     0.65096   0.34893   0.99708   0.00000  Uiso   1.00
H347   H     0.69077   0.30911   0.04418   0.00000  Uiso   1.00
H348   H     0.66632   0.40300   0.94541   0.00000  Uiso   1.00
H349   H     0.59685   0.33361   0.94655   0.00000  Uiso   1.00
H350   H     0.73323   0.26668   0.18322   0.00000  Uiso   1.00
H351   H     0.68167   0.46466   0.97494   0.00000  Uiso   1.00
H352   H     0.53518   0.31834   0.97735   0.00000  Uiso   1.00
H353   H     0.63804   0.36212   0.66601   0.00000  Uiso   1.00
H354   H     0.67715   0.32302   0.74983   0.00000  Uiso   1.00
H355   H     0.65270   0.41691   0.65105   0.00000  Uiso   1.00
H356   H     0.58323   0.34752   0.65220   0.00000  Uiso   1.00
H357   H     0.72218   0.27797   0.75596   0.00000  Uiso   1.00
H358   H     0.67062   0.47595   0.54766   0.00000  Uiso   1.00
H359   H     0.52413   0.32962   0.55008   0.00000  Uiso   1.00
O360   O     0.75367   0.24638   0.51266   0.00000  Uiso   1.00
O361   O     0.68602   0.50612   0.23938   0.00000  Uiso   1.00
O362   O     0.49383   0.31414   0.24255   0.00000  Uiso   1.00
N363   N     0.72526   0.27470   0.30651   0.00000  Uiso   1.00
N364   N     0.67706   0.45980   0.11178   0.00000  Uiso   1.00
N365   N     0.54010   0.32300   0.11403   0.00000  Uiso   1.00
N366   N     0.71931   0.28078   0.61470   0.00000  Uiso   1.00
N367   N     0.67111   0.46587   0.41996   0.00000  Uiso   1.00
N368   N     0.53415   0.32908   0.42221   0.00000  Uiso   1.00
