data_job_07044
_audit_creation_date              2018-12-19
_audit_creation_method            'Materials Studio'
_symmetry_space_group_name_H-M    'P1'
_symmetry_Int_Tables_number       1
_symmetry_cell_setting            triclinic
loop_
_symmetry_equiv_pos_as_xyz
  x,y,z
_cell_length_a                    18.6716
_cell_length_b                    22.7373
_cell_length_c                    23.8849
_cell_angle_alpha                 105.1461
_cell_angle_beta                  67.8329
_cell_angle_gamma                 89.6722
loop_
_atom_site_label
_atom_site_type_symbol
_atom_site_fract_x
_atom_site_fract_y
_atom_site_fract_z
_atom_site_U_iso_or_equiv
_atom_site_adp_type
_atom_site_occupancy
C1     C     0.16890   0.33883   0.37585   0.00000  Uiso   1.00
C2     C     0.15617   0.29551   0.41701   0.00000  Uiso   1.00
C3     C     0.20018   0.23971   0.40078   0.00000  Uiso   1.00
C4     C     0.17919   0.20686   0.44495   0.00000  Uiso   1.00
C5     C     0.16894   0.13620   0.49998   0.00000  Uiso   1.00
C6     C     0.09195   0.34862   0.36922   0.00000  Uiso   1.00
C7     C     0.08198   0.33749   0.31281   0.00000  Uiso   1.00
C8     C     0.00693   0.34936   0.31676   0.00000  Uiso   1.00
C9     C     0.89700   0.36120   0.29759   0.00000  Uiso   1.00
C10    C     0.17940   0.40038   0.41487   0.00000  Uiso   1.00
C11    C     0.24294   0.43278   0.39683   0.00000  Uiso   1.00
C12    C     0.24152   0.48825   0.43921   0.00000  Uiso   1.00
C13    C     0.26737   0.58045   0.49092   0.00000  Uiso   1.00
C14    C     0.05337   0.37973   0.48318   0.00000  Uiso   1.00
C15    C     0.09341   0.31773   0.47530   0.00000  Uiso   1.00
C16    C     0.07235   0.28496   0.51952   0.00000  Uiso   1.00
C17    C     0.11633   0.22912   0.50335   0.00000  Uiso   1.00
C18    C     0.02920   0.37084   0.42751   0.00000  Uiso   1.00
C19    C     0.95415   0.38274   0.43155   0.00000  Uiso   1.00
C20    C     0.94407   0.37162   0.37515   0.00000  Uiso   1.00
C21    C     0.11665   0.42260   0.47317   0.00000  Uiso   1.00
C22    C     0.11512   0.47803   0.51558   0.00000  Uiso   1.00
C23    C     0.17865   0.51050   0.49761   0.00000  Uiso   1.00
H24    H     0.21775   0.32154   0.33047   0.00000  Uiso   1.00
H25    H     0.24873   0.22253   0.35566   0.00000  Uiso   1.00
H26    H     0.13055   0.32030   0.26770   0.00000  Uiso   1.00
H27    H     0.29149   0.41558   0.35172   0.00000  Uiso   1.00
H28    H     0.25539   0.12255   0.40928   0.00000  Uiso   1.00
H29    H     0.00620   0.32872   0.22383   0.00000  Uiso   1.00
H30    H     0.34558   0.52963   0.40099   0.00000  Uiso   1.00
H31    H     0.00451   0.39703   0.52856   0.00000  Uiso   1.00
H32    H     0.02379   0.30216   0.56462   0.00000  Uiso   1.00
H33    H     0.90561   0.39993   0.47667   0.00000  Uiso   1.00
H34    H     0.06655   0.49521   0.56068   0.00000  Uiso   1.00
H35    H     0.07282   0.18718   0.57888   0.00000  Uiso   1.00
H36    H     0.82363   0.39335   0.39343   0.00000  Uiso   1.00
H37    H     0.16301   0.59426   0.57059   0.00000  Uiso   1.00
O38    O     0.18062   0.09109   0.51422   0.00000  Uiso   1.00
O39    O     0.85370   0.36159   0.27091   0.00000  Uiso   1.00
O40    O     0.29896   0.62517   0.50335   0.00000  Uiso   1.00
N41    N     0.20978   0.15079   0.44425   0.00000  Uiso   1.00
N42    N     0.97681   0.34353   0.27086   0.00000  Uiso   1.00
N43    N     0.29409   0.53138   0.43649   0.00000  Uiso   1.00
N44    N     0.11154   0.18556   0.53552   0.00000  Uiso   1.00
N45    N     0.87856   0.37831   0.36212   0.00000  Uiso   1.00
N46    N     0.19585   0.56615   0.52775   0.00000  Uiso   1.00
C47    C     0.76611   0.60264   0.18633   0.00000  Uiso   1.00
C48    C     0.82156   0.56520   0.12062   0.00000  Uiso   1.00
C49    C     0.89420   0.57961   0.08629   0.00000  Uiso   1.00
C50    C     0.93600   0.53949   0.02704   0.00000  Uiso   1.00
C51    C     0.02662   0.48938   0.92865   0.00000  Uiso   1.00
C52    C     0.68974   0.61734   0.18072   0.00000  Uiso   1.00
C53    C     0.65155   0.67561   0.19693   0.00000  Uiso   1.00
C54    C     0.58237   0.67938   0.18828   0.00000  Uiso   1.00
C55    C     0.46831   0.71023   0.18324   0.00000  Uiso   1.00
C56    C     0.74937   0.55898   0.22738   0.00000  Uiso   1.00
C57    C     0.76129   0.56817   0.28283   0.00000  Uiso   1.00
C58    C     0.74230   0.52281   0.31347   0.00000  Uiso   1.00
C59    C     0.72083   0.46303   0.38087   0.00000  Uiso   1.00
C60    C     0.71115   0.50575   0.14215   0.00000  Uiso   1.00
C61    C     0.79170   0.51257   0.09662   0.00000  Uiso   1.00
C62    C     0.83340   0.47242   0.03741   0.00000  Uiso   1.00
C63    C     0.90610   0.48677   0.00300   0.00000  Uiso   1.00
C64    C     0.65989   0.56472   0.15672   0.00000  Uiso   1.00
C65    C     0.59075   0.56841   0.14805   0.00000  Uiso   1.00
C66    C     0.55247   0.62666   0.16424   0.00000  Uiso   1.00
C67    C     0.71952   0.50635   0.20338   0.00000  Uiso   1.00
C68    C     0.70050   0.46097   0.23395   0.00000  Uiso   1.00
C69    C     0.71240   0.47009   0.28944   0.00000  Uiso   1.00
H70    H     0.78934   0.64361   0.20501   0.00000  Uiso   1.00
H71    H     0.91728   0.62035   0.10487   0.00000  Uiso   1.00
H72    H     0.67466   0.71632   0.21550   0.00000  Uiso   1.00
H73    H     0.78439   0.60890   0.30138   0.00000  Uiso   1.00
H74    H     0.04594   0.57136   0.98326   0.00000  Uiso   1.00
H75    H     0.53435   0.77373   0.21655   0.00000  Uiso   1.00
H76    H     0.76575   0.54721   0.39765   0.00000  Uiso   1.00
H77    H     0.68791   0.46477   0.12347   0.00000  Uiso   1.00
H78    H     0.81029   0.43170   0.01886   0.00000  Uiso   1.00
H79    H     0.56766   0.52768   0.12949   0.00000  Uiso   1.00
H80    H     0.67740   0.42025   0.21537   0.00000  Uiso   1.00
H81    H     0.95910   0.41824   0.91345   0.00000  Uiso   1.00
H82    H     0.44751   0.62062   0.14674   0.00000  Uiso   1.00
H83    H     0.67891   0.39410   0.32784   0.00000  Uiso   1.00
O84    O     0.08484   0.47628   0.88100   0.00000  Uiso   1.00
O85    O     0.41365   0.74178   0.18707   0.00000  Uiso   1.00
O86    O     0.71724   0.44459   0.42467   0.00000  Uiso   1.00
N87    N     0.00872   0.53986   0.98119   0.00000  Uiso   1.00
N88    N     0.53042   0.72906   0.19929   0.00000  Uiso   1.00
N89    N     0.74673   0.51729   0.36862   0.00000  Uiso   1.00
N90    N     0.96199   0.45747   0.94362   0.00000  Uiso   1.00
N91    N     0.48369   0.64667   0.16173   0.00000  Uiso   1.00
N92    N     0.70001   0.43490   0.33105   0.00000  Uiso   1.00
C93    C     0.53062   0.11519   0.07665   0.00000  Uiso   1.00
C94    C     0.54947   0.10044   0.12865   0.00000  Uiso   1.00
C95    C     0.49545   0.09856   0.18687   0.00000  Uiso   1.00
C96    C     0.52442   0.08418   0.22794   0.00000  Uiso   1.00
C97    C     0.54150   0.06313   0.31122   0.00000  Uiso   1.00
C98    C     0.57471   0.16921   0.06210   0.00000  Uiso   1.00
C99    C     0.54191   0.22515   0.06436   0.00000  Uiso   1.00
C100   C     0.59213   0.26865   0.04939   0.00000  Uiso   1.00
C101   C     0.64841   0.35435   0.02931   0.00000  Uiso   1.00
C102   C     0.56877   0.06072   0.01823   0.00000  Uiso   1.00
C103   C     0.53098   0.02545   0.98358   0.00000  Uiso   1.00
C104   C     0.57621   0.97762   0.93167   0.00000  Uiso   1.00
C105   C     0.62326   0.89488   0.84348   0.00000  Uiso   1.00
C106   C     0.67814   0.09298   0.04605   0.00000  Uiso   1.00
C107   C     0.62960   0.08837   0.11203   0.00000  Uiso   1.00
C108   C     0.65865   0.07398   0.15302   0.00000  Uiso   1.00
C109   C     0.60468   0.07209   0.21129   0.00000  Uiso   1.00
C110   C     0.65483   0.15714   0.04548   0.00000  Uiso   1.00
C111   C     0.70512   0.20057   0.03051   0.00000  Uiso   1.00
C112   C     0.67240   0.25656   0.03274   0.00000  Uiso   1.00
C113   C     0.64890   0.04865   0.00161   0.00000  Uiso   1.00
C114   C     0.69419   0.00087   0.94974   0.00000  Uiso   1.00
C115   C     0.65647   0.96553   0.91502   0.00000  Uiso   1.00
H116   H     0.46825   0.12459   0.08958   0.00000  Uiso   1.00
H117   H     0.43345   0.10791   0.19971   0.00000  Uiso   1.00
H118   H     0.47991   0.23447   0.07721   0.00000  Uiso   1.00
H119   H     0.46898   0.03480   0.99646   0.00000  Uiso   1.00
H120   H     0.43020   0.08412   0.31449   0.00000  Uiso   1.00
H121   H     0.52817   0.35096   0.05617   0.00000  Uiso   1.00
H122   H     0.50512   0.92993   0.88588   0.00000  Uiso   1.00
H123   H     0.74052   0.08358   0.03311   0.00000  Uiso   1.00
H124   H     0.72066   0.06465   0.14014   0.00000  Uiso   1.00
H125   H     0.76712   0.19121   0.01765   0.00000  Uiso   1.00
H126   H     0.75619   0.99154   0.93689   0.00000  Uiso   1.00
H127   H     0.66331   0.04901   0.26615   0.00000  Uiso   1.00
H128   H     0.76128   0.31586   0.00782   0.00000  Uiso   1.00
H129   H     0.73823   0.89482   0.83753   0.00000  Uiso   1.00
O130   O     0.52878   0.05487   0.36176   0.00000  Uiso   1.00
O131   O     0.65731   0.40496   0.02284   0.00000  Uiso   1.00
O132   O     0.62707   0.85257   0.79942   0.00000  Uiso   1.00
N133   N     0.48779   0.07844   0.28842   0.00000  Uiso   1.00
N134   N     0.57938   0.32793   0.04692   0.00000  Uiso   1.00
N135   N     0.55784   0.93431   0.88770   0.00000  Uiso   1.00
N136   N     0.61323   0.05955   0.26241   0.00000  Uiso   1.00
N137   N     0.70482   0.30904   0.02090   0.00000  Uiso   1.00
N138   N     0.68327   0.91542   0.86168   0.00000  Uiso   1.00
C139   C     0.27767   0.67764   0.74932   0.00000  Uiso   1.00
C140   C     0.35025   0.65926   0.68817   0.00000  Uiso   1.00
C141   C     0.35104   0.63936   0.62782   0.00000  Uiso   1.00
C142   C     0.42343   0.62474   0.57800   0.00000  Uiso   1.00
C143   C     0.52562   0.59546   0.48148   0.00000  Uiso   1.00
C144   C     0.28382   0.74285   0.78382   0.00000  Uiso   1.00
C145   C     0.22875   0.79322   0.80389   0.00000  Uiso   1.00
C146   C     0.24522   0.84896   0.83461   0.00000  Uiso   1.00
C147   C     0.24424   0.94944   0.88662   0.00000  Uiso   1.00
C148   C     0.28609   0.63727   0.78891   0.00000  Uiso   1.00
C149   C     0.23292   0.59887   0.81329   0.00000  Uiso   1.00
C150   C     0.25129   0.56573   0.84830   0.00000  Uiso   1.00
C151   C     0.25383   0.50227   0.90823   0.00000  Uiso   1.00
C152   C     0.40482   0.68707   0.76818   0.00000  Uiso   1.00
C153   C     0.41931   0.66439   0.69841   0.00000  Uiso   1.00
C154   C     0.49172   0.64979   0.64868   0.00000  Uiso   1.00
C155   C     0.49262   0.62986   0.58826   0.00000  Uiso   1.00
C156   C     0.35288   0.74797   0.79406   0.00000  Uiso   1.00
C157   C     0.36943   0.80365   0.82476   0.00000  Uiso   1.00
C158   C     0.31440   0.85409   0.84487   0.00000  Uiso   1.00
C159   C     0.35515   0.64239   0.79915   0.00000  Uiso   1.00
C160   C     0.37360   0.60930   0.83415   0.00000  Uiso   1.00
C161   C     0.32047   0.57086   0.85857   0.00000  Uiso   1.00
H162   H     0.22390   0.67365   0.74135   0.00000  Uiso   1.00
H163   H     0.29758   0.63540   0.61991   0.00000  Uiso   1.00
H164   H     0.17531   0.78924   0.79596   0.00000  Uiso   1.00
H165   H     0.17948   0.59492   0.80535   0.00000  Uiso   1.00
H166   H     0.40973   0.59528   0.48978   0.00000  Uiso   1.00
H167   H     0.15189   0.91964   0.86102   0.00000  Uiso   1.00
H168   H     0.16068   0.50988   0.88082   0.00000  Uiso   1.00
H169   H     0.45859   0.69106   0.77616   0.00000  Uiso   1.00
H170   H     0.54515   0.65376   0.65662   0.00000  Uiso   1.00
H171   H     0.42288   0.80760   0.83268   0.00000  Uiso   1.00
H172   H     0.42705   0.61328   0.84206   0.00000  Uiso   1.00
H173   H     0.61066   0.61018   0.51958   0.00000  Uiso   1.00
H174   H     0.35283   0.93454   0.89082   0.00000  Uiso   1.00
H175   H     0.36162   0.52479   0.91062   0.00000  Uiso   1.00
O176   O     0.56290   0.57790   0.42542   0.00000  Uiso   1.00
O177   O     0.22463   0.00345   0.91248   0.00000  Uiso   1.00
O178   O     0.23616   0.46585   0.93845   0.00000  Uiso   1.00
N179   N     0.44514   0.60389   0.51320   0.00000  Uiso   1.00
N180   N     0.20408   0.90715   0.86028   0.00000  Uiso   1.00
N181   N     0.21229   0.52408   0.87880   0.00000  Uiso   1.00
N182   N     0.55326   0.61191   0.52923   0.00000  Uiso   1.00
N183   N     0.31221   0.91517   0.87631   0.00000  Uiso   1.00
N184   N     0.32042   0.53210   0.89484   0.00000  Uiso   1.00
C185   C     0.97337   0.87459   0.38597   0.00000  Uiso   1.00
C186   C     0.95266   0.82082   0.41388   0.00000  Uiso   1.00
C187   C     0.88625   0.79149   0.42018   0.00000  Uiso   1.00
C188   C     0.87801   0.74324   0.44689   0.00000  Uiso   1.00
C189   C     0.83732   0.66250   0.48721   0.00000  Uiso   1.00
C190   C     0.05335   0.85424   0.33229   0.00000  Uiso   1.00
C191   C     0.07161   0.85301   0.26999   0.00000  Uiso   1.00
C192   C     0.14813   0.83290   0.22802   0.00000  Uiso   1.00
C193   C     0.26379   0.80409   0.14167   0.00000  Uiso   1.00
C194   C     0.98498   0.92573   0.43654   0.00000  Uiso   1.00
C195   C     0.94578   0.98462   0.46190   0.00000  Uiso   1.00
C196   C     0.96476   0.02471   0.50770   0.00000  Uiso   1.00
C197   C     0.97426   0.10690   0.58323   0.00000  Uiso   1.00
C198   C     0.07680   0.84107   0.42218   0.00000  Uiso   1.00
C199   C     0.00884   0.80262   0.43355   0.00000  Uiso   1.00
C200   C     0.00069   0.75440   0.46025   0.00000  Uiso   1.00
C201   C     0.93429   0.72500   0.46660   0.00000  Uiso   1.00
C202   C     0.10953   0.83604   0.35195   0.00000  Uiso   1.00
C203   C     0.18605   0.81593   0.31006   0.00000  Uiso   1.00
C204   C     0.20442   0.81466   0.24772   0.00000  Uiso   1.00
C205   C     0.04117   0.90753   0.45622   0.00000  Uiso   1.00
C206   C     0.06022   0.94753   0.50197   0.00000  Uiso   1.00
C207   C     0.02104   0.00647   0.52740   0.00000  Uiso   1.00
H208   H     0.92963   0.88877   0.37065   0.00000  Uiso   1.00
H209   H     0.84279   0.80559   0.40495   0.00000  Uiso   1.00
H210   H     0.02812   0.86711   0.25479   0.00000  Uiso   1.00
H211   H     0.90230   0.99870   0.44667   0.00000  Uiso   1.00
H212   H     0.77130   0.70533   0.45164   0.00000  Uiso   1.00
H213   H     0.16208   0.83507   0.13501   0.00000  Uiso   1.00
H214   H     0.89678   0.11255   0.53963   0.00000  Uiso   1.00
H215   H     0.12055   0.82690   0.43749   0.00000  Uiso   1.00
H216   H     0.04418   0.74032   0.47547   0.00000  Uiso   1.00
H217   H     0.22951   0.80184   0.32530   0.00000  Uiso   1.00
H218   H     0.10370   0.93343   0.51718   0.00000  Uiso   1.00
H219   H     0.93476   0.65235   0.50887   0.00000  Uiso   1.00
H220   H     0.32554   0.78210   0.19224   0.00000  Uiso   1.00
H221   H     0.06024   0.05957   0.59686   0.00000  Uiso   1.00
O222   O     0.79937   0.62299   0.50401   0.00000  Uiso   1.00
O223   O     0.31206   0.79322   0.08861   0.00000  Uiso   1.00
O224   O     0.96398   0.15726   0.61946   0.00000  Uiso   1.00
N225   N     0.82025   0.70475   0.45991   0.00000  Uiso   1.00
N226   N     0.18560   0.82604   0.16387   0.00000  Uiso   1.00
N227   N     0.93758   0.08546   0.54215   0.00000  Uiso   1.00
N228   N     0.90820   0.67624   0.49070   0.00000  Uiso   1.00
N229   N     0.27356   0.79754   0.19467   0.00000  Uiso   1.00
N230   N     0.02553   0.05696   0.57295   0.00000  Uiso   1.00
C231   C     0.59411   0.06160   0.51649   0.00000  Uiso   1.00
C232   C     0.59137   0.04177   0.57345   0.00000  Uiso   1.00
C233   C     0.63846   0.05946   0.60663   0.00000  Uiso   1.00
C234   C     0.62688   0.03633   0.65735   0.00000  Uiso   1.00
C235   C     0.63122   0.01156   0.74325   0.00000  Uiso   1.00
C236   C     0.51209   0.09073   0.53358   0.00000  Uiso   1.00
C237   C     0.49254   0.14957   0.53323   0.00000  Uiso   1.00
C238   C     0.41423   0.16765   0.55038   0.00000  Uiso   1.00
C239   C     0.29550   0.21887   0.57434   0.00000  Uiso   1.00
C240   C     0.60738   0.00262   0.46374   0.00000  Uiso   1.00
C241   C     0.66793   0.98738   0.40464   0.00000  Uiso   1.00
C242   C     0.66983   0.93128   0.36299   0.00000  Uiso   1.00
C243   C     0.69905   0.84568   0.27850   0.00000  Uiso   1.00
C244   C     0.48981   0.98908   0.54758   0.00000  Uiso   1.00
C245   C     0.53472   0.00238   0.59034   0.00000  Uiso   1.00
C246   C     0.52307   0.97922   0.64102   0.00000  Uiso   1.00
C247   C     0.57014   0.99687   0.67427   0.00000  Uiso   1.00
C248   C     0.45545   0.05134   0.55047   0.00000  Uiso   1.00
C249   C     0.37715   0.06934   0.56763   0.00000  Uiso   1.00
C250   C     0.35748   0.12819   0.56730   0.00000  Uiso   1.00
C251   C     0.55073   0.96322   0.48062   0.00000  Uiso   1.00
C252   C     0.55254   0.90714   0.43905   0.00000  Uiso   1.00
C253   C     0.61308   0.89182   0.37990   0.00000  Uiso   1.00
H254   H     0.63820   0.09227   0.50334   0.00000  Uiso   1.00
H255   H     0.68229   0.08995   0.59355   0.00000  Uiso   1.00
H256   H     0.53639   0.18004   0.52015   0.00000  Uiso   1.00
H257   H     0.71175   0.01787   0.39159   0.00000  Uiso   1.00
H258   H     0.70616   0.07001   0.70102   0.00000  Uiso   1.00
H259   H     0.39853   0.25998   0.54624   0.00000  Uiso   1.00
H260   H     0.76832   0.91801   0.27515   0.00000  Uiso   1.00
H261   H     0.44571   0.95842   0.56072   0.00000  Uiso   1.00
H262   H     0.47923   0.94874   0.65408   0.00000  Uiso   1.00
H263   H     0.33333   0.03884   0.58069   0.00000  Uiso   1.00
H264   H     0.50870   0.87667   0.45213   0.00000  Uiso   1.00
H265   H     0.54135   0.95541   0.75015   0.00000  Uiso   1.00
H266   H     0.23372   0.14538   0.59537   0.00000  Uiso   1.00
H267   H     0.60351   0.80341   0.32428   0.00000  Uiso   1.00
O268   O     0.64926   0.00878   0.78597   0.00000  Uiso   1.00
O269   O     0.24566   0.25800   0.58290   0.00000  Uiso   1.00
O270   O     0.73082   0.80935   0.22724   0.00000  Uiso   1.00
N271   N     0.66278   0.04436   0.69976   0.00000  Uiso   1.00
N272   N     0.37516   0.22197   0.55507   0.00000  Uiso   1.00
N273   N     0.72087   0.90226   0.30161   0.00000  Uiso   1.00
N274   N     0.57410   0.98269   0.72620   0.00000  Uiso   1.00
N275   N     0.28648   0.16030   0.58150   0.00000  Uiso   1.00
N276   N     0.63219   0.84060   0.32805   0.00000  Uiso   1.00
C277   C     0.00098   0.57400   0.24852   0.00000  Uiso   1.00
C278   C     0.99180   0.63133   0.22890   0.00000  Uiso   1.00
C279   C     0.93492   0.68098   0.26410   0.00000  Uiso   1.00
C280   C     0.93642   0.72899   0.23790   0.00000  Uiso   1.00
C281   C     0.91362   0.81828   0.21648   0.00000  Uiso   1.00
C282   C     0.08373   0.56870   0.24584   0.00000  Uiso   1.00
C283   C     0.10414   0.56568   0.29529   0.00000  Uiso   1.00
C284   C     0.18303   0.56094   0.28334   0.00000  Uiso   1.00
C285   C     0.30295   0.55294   0.28820   0.00000  Uiso   1.00
C286   C     0.99855   0.51988   0.19603   0.00000  Uiso   1.00
C287   C     0.94735   0.47581   0.20359   0.00000  Uiso   1.00
C288   C     0.95454   0.42997   0.14970   0.00000  Uiso   1.00
C289   C     0.94221   0.34618   0.07722   0.00000  Uiso   1.00
C290   C     0.10480   0.57095   0.13939   0.00000  Uiso   1.00
C291   C     0.04820   0.62968   0.16963   0.00000  Uiso   1.00
C292   C     0.04978   0.67761   0.14337   0.00000  Uiso   1.00
C293   C     0.99291   0.72733   0.17852   0.00000  Uiso   1.00
C294   C     0.14012   0.56704   0.18657   0.00000  Uiso   1.00
C295   C     0.21900   0.56231   0.17455   0.00000  Uiso   1.00
C296   C     0.23952   0.55929   0.22396   0.00000  Uiso   1.00
C297   C     0.05494   0.51823   0.13675   0.00000  Uiso   1.00
C298   C     0.06222   0.47244   0.08285   0.00000  Uiso   1.00
C299   C     0.01103   0.42831   0.09032   0.00000  Uiso   1.00
H300   H     0.95708   0.57529   0.29467   0.00000  Uiso   1.00
H301   H     0.89129   0.68225   0.30998   0.00000  Uiso   1.00
H302   H     0.06048   0.56695   0.34115   0.00000  Uiso   1.00
H303   H     0.90372   0.47710   0.24946   0.00000  Uiso   1.00
H304   H     0.84324   0.80012   0.30082   0.00000  Uiso   1.00
H305   H     0.19999   0.55699   0.36654   0.00000  Uiso   1.00
H306   H     0.86943   0.36752   0.17321   0.00000  Uiso   1.00
H307   H     0.14870   0.56966   0.09324   0.00000  Uiso   1.00
H308   H     0.09343   0.67632   0.09750   0.00000  Uiso   1.00
H309   H     0.26262   0.56102   0.12867   0.00000  Uiso   1.00
H310   H     0.10586   0.47117   0.03699   0.00000  Uiso   1.00
H311   H     0.00731   0.79531   0.12836   0.00000  Uiso   1.00
H312   H     0.36406   0.55217   0.19409   0.00000  Uiso   1.00
H313   H     0.03350   0.36271   0.00076   0.00000  Uiso   1.00
O314   O     0.88547   0.86799   0.22103   0.00000  Uiso   1.00
O315   O     0.35351   0.54900   0.30726   0.00000  Uiso   1.00
O316   O     0.91982   0.30042   0.05361   0.00000  Uiso   1.00
N317   N     0.88943   0.78434   0.25964   0.00000  Uiso   1.00
N318   N     0.22297   0.55704   0.32110   0.00000  Uiso   1.00
N319   N     0.91394   0.37989   0.14035   0.00000  Uiso   1.00
N320   N     0.97771   0.78175   0.16685   0.00000  Uiso   1.00
N321   N     0.31125   0.55445   0.22830   0.00000  Uiso   1.00
N322   N     0.00222   0.37730   0.04755   0.00000  Uiso   1.00
C323   C     0.36015   0.76037   0.38660   0.00000  Uiso   1.00
C324   C     0.28726   0.74716   0.43635   0.00000  Uiso   1.00
C325   C     0.23848   0.70396   0.42499   0.00000  Uiso   1.00
C326   C     0.17478   0.69885   0.47685   0.00000  Uiso   1.00
C327   C     0.06380   0.67272   0.54483   0.00000  Uiso   1.00
C328   C     0.42658   0.75170   0.40715   0.00000  Uiso   1.00
C329   C     0.49494   0.71232   0.37123   0.00000  Uiso   1.00
C330   C     0.54852   0.71104   0.39851   0.00000  Uiso   1.00
C331   C     0.65386   0.69200   0.42113   0.00000  Uiso   1.00
C332   C     0.34854   0.82868   0.39327   0.00000  Uiso   1.00
C333   C     0.35130   0.85402   0.34566   0.00000  Uiso   1.00
C334   C     0.33920   0.91755   0.36125   0.00000  Uiso   1.00
C335   C     0.32337   0.01801   0.36231   0.00000  Uiso   1.00
C336   C     0.33377   0.82813   0.49892   0.00000  Uiso   1.00
C337   C     0.27293   0.78397   0.49736   0.00000  Uiso   1.00
C338   C     0.20929   0.77892   0.54926   0.00000  Uiso   1.00
C339   C     0.16042   0.73572   0.53797   0.00000  Uiso   1.00
C340   C     0.41225   0.78850   0.46816   0.00000  Uiso   1.00
C341   C     0.46574   0.78729   0.49550   0.00000  Uiso   1.00
C342   C     0.53416   0.74791   0.45962   0.00000  Uiso   1.00
C343   C     0.33421   0.86548   0.45428   0.00000  Uiso   1.00
C344   C     0.32210   0.92898   0.46993   0.00000  Uiso   1.00
C345   C     0.32484   0.95441   0.42236   0.00000  Uiso   1.00
H346   H     0.37132   0.73172   0.33910   0.00000  Uiso   1.00
H347   H     0.24960   0.67548   0.37776   0.00000  Uiso   1.00
H348   H     0.50601   0.68385   0.32401   0.00000  Uiso   1.00
H349   H     0.36239   0.82553   0.29846   0.00000  Uiso   1.00
H350   H     0.10834   0.62935   0.44754   0.00000  Uiso   1.00
H351   H     0.64903   0.64701   0.33419   0.00000  Uiso   1.00
H352   H     0.34618   0.94576   0.28029   0.00000  Uiso   1.00
H353   H     0.32261   0.85678   0.54642   0.00000  Uiso   1.00
H354   H     0.19821   0.80741   0.59646   0.00000  Uiso   1.00
H355   H     0.45464   0.81577   0.54271   0.00000  Uiso   1.00
H356   H     0.31101   0.95745   0.51715   0.00000  Uiso   1.00
H357   H     0.06664   0.73642   0.62504   0.00000  Uiso   1.00
H358   H     0.60733   0.75408   0.51169   0.00000  Uiso   1.00
H359   H     0.30448   0.05283   0.45780   0.00000  Uiso   1.00
O360   O     0.00655   0.64813   0.56547   0.00000  Uiso   1.00
O361   O     0.71592   0.67132   0.41676   0.00000  Uiso   1.00
O362   O     0.31858   0.06326   0.34605   0.00000  Uiso   1.00
N363   N     0.11559   0.66133   0.48244   0.00000  Uiso   1.00
N364   N     0.62110   0.67784   0.37647   0.00000  Uiso   1.00
N365   N     0.33798   0.95714   0.32608   0.00000  Uiso   1.00
N366   N     0.09315   0.71895   0.57796   0.00000  Uiso   1.00
N367   N     0.59865   0.73545   0.47199   0.00000  Uiso   1.00
N368   N     0.31554   0.01476   0.42159   0.00000  Uiso   1.00
C369   C     0.51770   0.26886   0.83803   0.00000  Uiso   1.00
C370   C     0.48990   0.28201   0.78964   0.00000  Uiso   1.00
C371   C     0.53741   0.28452   0.72968   0.00000  Uiso   1.00
C372   C     0.50072   0.29717   0.69256   0.00000  Uiso   1.00
C373   C     0.46992   0.31606   0.61406   0.00000  Uiso   1.00
C374   C     0.47859   0.21378   0.85530   0.00000  Uiso   1.00
C375   C     0.51657   0.15894   0.85056   0.00000  Uiso   1.00
C376   C     0.47035   0.11416   0.86872   0.00000  Uiso   1.00
C377   C     0.42198   0.02715   0.89220   0.00000  Uiso   1.00
C378   C     0.48208   0.32313   0.89702   0.00000  Uiso   1.00
C379   C     0.52299   0.36022   0.92736   0.00000  Uiso   1.00
C380   C     0.47971   0.40750   0.98066   0.00000  Uiso   1.00
C381   C     0.43675   0.49027   0.06891   0.00000  Uiso   1.00
C382   C     0.36807   0.28686   0.87873   0.00000  Uiso   1.00
C383   C     0.40863   0.29178   0.81175   0.00000  Uiso   1.00
C384   C     0.37186   0.30443   0.77471   0.00000  Uiso   1.00
C385   C     0.41930   0.30697   0.71471   0.00000  Uiso   1.00
C386   C     0.39731   0.22355   0.87741   0.00000  Uiso   1.00
C387   C     0.35103   0.17885   0.89559   0.00000  Uiso   1.00
C388   C     0.38893   0.12396   0.89086   0.00000  Uiso   1.00
C389   C     0.40080   0.33291   0.91913   0.00000  Uiso   1.00
C390   C     0.35744   0.38014   0.97239   0.00000  Uiso   1.00
C391   C     0.39829   0.41730   0.00281   0.00000  Uiso   1.00
H392   H     0.58098   0.26125   0.82082   0.00000  Uiso   1.00
H393   H     0.60030   0.27695   0.71259   0.00000  Uiso   1.00
H394   H     0.57947   0.15139   0.83345   0.00000  Uiso   1.00
H395   H     0.58589   0.35264   0.91024   0.00000  Uiso   1.00
H396   H     0.58589   0.29864   0.60234   0.00000  Uiso   1.00
H397   H     0.54196   0.03390   0.85720   0.00000  Uiso   1.00
H398   H     0.55549   0.45829   0.01914   0.00000  Uiso   1.00
H399   H     0.30479   0.29447   0.89594   0.00000  Uiso   1.00
H400   H     0.30896   0.31200   0.79183   0.00000  Uiso   1.00
H401   H     0.28813   0.18643   0.91269   0.00000  Uiso   1.00
H402   H     0.29455   0.38769   0.98949   0.00000  Uiso   1.00
H403   H     0.34943   0.32708   0.66666   0.00000  Uiso   1.00
H404   H     0.30550   0.06234   0.92152   0.00000  Uiso   1.00
H405   H     0.31903   0.48673   0.08345   0.00000  Uiso   1.00
O406   O     0.47538   0.32377   0.56465   0.00000  Uiso   1.00
O407   O     0.41775   0.97645   0.89903   0.00000  Uiso   1.00
O408   O     0.43551   0.53323   0.11148   0.00000  Uiso   1.00
N409   N     0.52966   0.30294   0.63177   0.00000  Uiso   1.00
N410   N     0.48859   0.05542   0.87004   0.00000  Uiso   1.00
N411   N     0.50125   0.45218   0.02145   0.00000  Uiso   1.00
N412   N     0.40243   0.31825   0.66638   0.00000  Uiso   1.00
N413   N     0.36136   0.07073   0.90465   0.00000  Uiso   1.00
N414   N     0.37401   0.46748   0.05605   0.00000  Uiso   1.00
C415   C     0.95588   0.83678   0.93629   0.00000  Uiso   1.00
C416   C     0.87007   0.84124   0.97881   0.00000  Uiso   1.00
C417   C     0.84130   0.83075   0.03763   0.00000  Uiso   1.00
C418   C     0.76093   0.83716   0.06909   0.00000  Uiso   1.00
C419   C     0.63525   0.84157   0.13913   0.00000  Uiso   1.00
C420   C     0.96676   0.79083   0.87360   0.00000  Uiso   1.00
C421   C     0.01930   0.73797   0.84395   0.00000  Uiso   1.00
C422   C     0.02031   0.70195   0.78685   0.00000  Uiso   1.00
C423   C     0.04478   0.62813   0.69352   0.00000  Uiso   1.00
C424   C     0.96805   0.89885   0.92309   0.00000  Uiso   1.00
C425   C     0.02169   0.93681   0.93503   0.00000  Uiso   1.00
C426   C     0.02381   0.99173   0.91957   0.00000  Uiso   1.00
C427   C     0.05029   0.08563   0.90308   0.00000  Uiso   1.00
C428   C     0.86428   0.86683   0.88760   0.00000  Uiso   1.00
C429   C     0.82032   0.85756   0.95236   0.00000  Uiso   1.00
C430   C     0.73996   0.86399   0.98375   0.00000  Uiso   1.00
C431   C     0.71108   0.85351   0.04260   0.00000  Uiso   1.00
C432   C     0.91701   0.80715   0.84715   0.00000  Uiso   1.00
C433   C     0.91795   0.77121   0.79008   0.00000  Uiso   1.00
C434   C     0.97047   0.71830   0.76035   0.00000  Uiso   1.00
C435   C     0.91830   0.91517   0.89664   0.00000  Uiso   1.00
C436   C     0.92034   0.97005   0.88116   0.00000  Uiso   1.00
C437   C     0.97397   0.00808   0.89307   0.00000  Uiso   1.00
H438   H     0.99462   0.82407   0.95688   0.00000  Uiso   1.00
H439   H     0.87983   0.81811   0.05808   0.00000  Uiso   1.00
H440   H     0.05779   0.72535   0.86443   0.00000  Uiso   1.00
H441   H     0.06018   0.92416   0.95550   0.00000  Uiso   1.00
H442   H     0.73062   0.81868   0.15860   0.00000  Uiso   1.00
H443   H     0.10589   0.62310   0.75027   0.00000  Uiso   1.00
H444   H     0.11093   0.04233   0.94230   0.00000  Uiso   1.00
H445   H     0.82555   0.87953   0.86700   0.00000  Uiso   1.00
H446   H     0.70147   0.87662   0.96327   0.00000  Uiso   1.00
H447   H     0.87944   0.78385   0.76962   0.00000  Uiso   1.00
H448   H     0.88183   0.98266   0.86069   0.00000  Uiso   1.00
H449   H     0.58586   0.86616   0.08165   0.00000  Uiso   1.00
H450   H     0.96113   0.67058   0.67332   0.00000  Uiso   1.00
H451   H     0.96617   0.08981   0.86535   0.00000  Uiso   1.00
O452   O     0.57967   0.83948   0.18506   0.00000  Uiso   1.00
O453   O     0.07202   0.58290   0.64935   0.00000  Uiso   1.00
O454   O     0.07864   0.13291   0.90129   0.00000  Uiso   1.00
N455   N     0.71358   0.83027   0.12728   0.00000  Uiso   1.00
N456   N     0.06442   0.64741   0.74552   0.00000  Uiso   1.00
N457   N     0.06915   0.03934   0.92504   0.00000  Uiso   1.00
N458   N     0.63568   0.85582   0.08587   0.00000  Uiso   1.00
N459   N     0.98653   0.67296   0.70412   0.00000  Uiso   1.00
N460   N     0.99126   0.06489   0.88364   0.00000  Uiso   1.00
C461   C     0.13604   0.06435   0.15453   0.00000  Uiso   1.00
C462   C     0.12199   0.10764   0.11960   0.00000  Uiso   1.00
C463   C     0.17315   0.14700   0.09473   0.00000  Uiso   1.00
C464   C     0.14951   0.18290   0.06449   0.00000  Uiso   1.00
C465   C     0.13866   0.25067   0.01106   0.00000  Uiso   1.00
C466   C     0.06776   0.08075   0.21849   0.00000  Uiso   1.00
C467   C     0.07333   0.09749   0.27677   0.00000  Uiso   1.00
C468   C     0.00403   0.11074   0.32977   0.00000  Uiso   1.00
C469   C     0.90899   0.13671   0.42988   0.00000  Uiso   1.00
C470   C     0.12725   0.00038   0.11901   0.00000  Uiso   1.00
C471   C     0.18283   0.94954   0.09365   0.00000  Uiso   1.00
C472   C     0.16361   0.89513   0.06291   0.00000  Uiso   1.00
C473   C     0.16094   0.79631   0.00855   0.00000  Uiso   1.00
C474   C     0.00307   0.05810   0.14504   0.00000  Uiso   1.00
C475   C     0.04976   0.10425   0.11445   0.00000  Uiso   1.00
C476   C     0.02604   0.14010   0.08423   0.00000  Uiso   1.00
C477   C     0.07716   0.17951   0.05932   0.00000  Uiso   1.00
C478   C     0.99554   0.07736   0.21334   0.00000  Uiso   1.00
C479   C     0.92621   0.09058   0.26627   0.00000  Uiso   1.00
C480   C     0.93168   0.10734   0.32461   0.00000  Uiso   1.00
C481   C     0.05503   0.99699   0.11385   0.00000  Uiso   1.00
C482   C     0.03572   0.94264   0.08315   0.00000  Uiso   1.00
C483   C     0.09126   0.89173   0.05775   0.00000  Uiso   1.00
H484   H     0.19227   0.06699   0.15855   0.00000  Uiso   1.00
H485   H     0.22904   0.14962   0.09874   0.00000  Uiso   1.00
H486   H     0.12923   0.10010   0.28074   0.00000  Uiso   1.00
H487   H     0.23871   0.95219   0.09765   0.00000  Uiso   1.00
H488   H     0.23794   0.23975   0.03017   0.00000  Uiso   1.00
H489   H     0.02749   0.13533   0.41394   0.00000  Uiso   1.00
H490   H     0.25836   0.82341   0.02786   0.00000  Uiso   1.00
H491   H     0.94684   0.05546   0.14103   0.00000  Uiso   1.00
H492   H     0.97014   0.13746   0.08025   0.00000  Uiso   1.00
H493   H     0.87033   0.08795   0.26226   0.00000  Uiso   1.00
H494   H     0.97982   0.94003   0.07917   0.00000  Uiso   1.00
H495   H     0.02781   0.22989   0.01517   0.00000  Uiso   1.00
H496   H     0.81736   0.12546   0.39894   0.00000  Uiso   1.00
H497   H     0.04823   0.81354   0.01286   0.00000  Uiso   1.00
O498   O     0.15262   0.28899   0.98302   0.00000  Uiso   1.00
O499   O     0.87653   0.15197   0.48652   0.00000  Uiso   1.00
O500   O     0.17943   0.74275   0.97998   0.00000  Uiso   1.00
N501   N     0.18529   0.22617   0.03497   0.00000  Uiso   1.00
N502   N     0.98854   0.12855   0.39377   0.00000  Uiso   1.00
N503   N     0.20438   0.83693   0.03283   0.00000  Uiso   1.00
N504   N     0.07222   0.22086   0.02690   0.00000  Uiso   1.00
N505   N     0.87547   0.12324   0.38570   0.00000  Uiso   1.00
N506   N     0.09131   0.83162   0.02476   0.00000  Uiso   1.00
C507   C     0.39694   0.30587   0.41072   0.00000  Uiso   1.00
C508   C     0.41693   0.33394   0.35600   0.00000  Uiso   1.00
C509   C     0.38993   0.31811   0.30791   0.00000  Uiso   1.00
C510   C     0.41499   0.34913   0.26223   0.00000  Uiso   1.00
C511   C     0.43843   0.38583   0.17689   0.00000  Uiso   1.00
C512   C     0.47449   0.28143   0.40847   0.00000  Uiso   1.00
C513   C     0.49588   0.22145   0.40451   0.00000  Uiso   1.00
C514   C     0.56940   0.20827   0.40301   0.00000  Uiso   1.00
C515   C     0.68217   0.16345   0.39918   0.00000  Uiso   1.00
C516   C     0.36279   0.35927   0.47068   0.00000  Uiso   1.00
C517   C     0.29026   0.36473   0.51903   0.00000  Uiso   1.00
C518   C     0.26974   0.41708   0.56991   0.00000  Uiso   1.00
C519   C     0.20908   0.49311   0.66267   0.00000  Uiso   1.00
C520   C     0.48946   0.38910   0.41510   0.00000  Uiso   1.00
C521   C     0.46719   0.37915   0.35838   0.00000  Uiso   1.00
C522   C     0.49229   0.41021   0.31276   0.00000  Uiso   1.00
C523   C     0.46533   0.39443   0.26461   0.00000  Uiso   1.00
C524   C     0.52475   0.32664   0.41085   0.00000  Uiso   1.00
C525   C     0.59824   0.31354   0.40936   0.00000  Uiso   1.00
C526   C     0.61974   0.25356   0.40540   0.00000  Uiso   1.00
C527   C     0.41304   0.40448   0.47306   0.00000  Uiso   1.00
C528   C     0.39263   0.45683   0.52388   0.00000  Uiso   1.00
C529   C     0.32008   0.46237   0.57230   0.00000  Uiso   1.00
H530   H     0.35782   0.27066   0.40886   0.00000  Uiso   1.00
H531   H     0.35105   0.28312   0.30608   0.00000  Uiso   1.00
H532   H     0.45698   0.18647   0.40268   0.00000  Uiso   1.00
H533   H     0.25139   0.32973   0.51717   0.00000  Uiso   1.00
H534   H     0.36573   0.31685   0.19317   0.00000  Uiso   1.00
H535   H     0.58908   0.11307   0.39687   0.00000  Uiso   1.00
H536   H     0.15556   0.41516   0.63831   0.00000  Uiso   1.00
H537   H     0.52858   0.42430   0.41695   0.00000  Uiso   1.00
H538   H     0.53118   0.44519   0.31461   0.00000  Uiso   1.00
H539   H     0.63712   0.34854   0.41121   0.00000  Uiso   1.00
H540   H     0.43153   0.49180   0.52570   0.00000  Uiso   1.00
H541   H     0.51194   0.44839   0.20009   0.00000  Uiso   1.00
H542   H     0.73529   0.24461   0.40379   0.00000  Uiso   1.00
H543   H     0.30177   0.54670   0.64523   0.00000  Uiso   1.00
O544   O     0.43749   0.39357   0.12915   0.00000  Uiso   1.00
O545   O     0.73050   0.12623   0.39641   0.00000  Uiso   1.00
O546   O     0.16173   0.52256   0.71317   0.00000  Uiso   1.00
N547   N     0.39977   0.34495   0.20885   0.00000  Uiso   1.00
N548   N     0.60859   0.15443   0.39928   0.00000  Uiso   1.00
N549   N     0.20330   0.43685   0.62502   0.00000  Uiso   1.00
N550   N     0.47844   0.41573   0.21257   0.00000  Uiso   1.00
N551   N     0.68727   0.22521   0.40301   0.00000  Uiso   1.00
N552   N     0.28197   0.50763   0.62874   0.00000  Uiso   1.00
