data_job_06555
_audit_creation_date              2018-12-19
_audit_creation_method            'Materials Studio'
_symmetry_space_group_name_H-M    'P1'
_symmetry_Int_Tables_number       1
_symmetry_cell_setting            triclinic
loop_
_symmetry_equiv_pos_as_xyz
  x,y,z
_cell_length_a                    21.4625
_cell_length_b                    21.5430
_cell_length_c                    23.0857
_cell_angle_alpha                 113.8428
_cell_angle_beta                  96.0338
_cell_angle_gamma                 61.8985
loop_
_atom_site_label
_atom_site_type_symbol
_atom_site_fract_x
_atom_site_fract_y
_atom_site_fract_z
_atom_site_U_iso_or_equiv
_atom_site_adp_type
_atom_site_occupancy
C1     C     0.32818   0.05307   0.88463   0.00000  Uiso   1.00
C2     C     0.26787   0.04538   0.90526   0.00000  Uiso   1.00
C3     C     0.26719   0.97676   0.89151   0.00000  Uiso   1.00
C4     C     0.20703   0.98193   0.91470   0.00000  Uiso   1.00
C5     C     0.12210   0.95915   0.94130   0.00000  Uiso   1.00
C6     C     0.29540   0.10431   0.84802   0.00000  Uiso   1.00
C7     C     0.31788   0.08525   0.78614   0.00000  Uiso   1.00
C8     C     0.28091   0.14005   0.76115   0.00000  Uiso   1.00
C9     C     0.23876   0.20878   0.69888   0.00000  Uiso   1.00
C10    C     0.34887   0.09944   0.94558   0.00000  Uiso   1.00
C11    C     0.41631   0.07629   0.96573   0.00000  Uiso   1.00
C12    C     0.42435   0.12698   0.02287   0.00000  Uiso   1.00
C13    C     0.46522   0.18815   0.11209   0.00000  Uiso   1.00
C14    C     0.22255   0.18427   0.95027   0.00000  Uiso   1.00
C15    C     0.21050   0.11664   0.94092   0.00000  Uiso   1.00
C16    C     0.15033   0.12192   0.96414   0.00000  Uiso   1.00
C17    C     0.14956   0.05332   0.95043   0.00000  Uiso   1.00
C18    C     0.23803   0.17558   0.88367   0.00000  Uiso   1.00
C19    C     0.20102   0.23041   0.85877   0.00000  Uiso   1.00
C20    C     0.22343   0.21144   0.79687   0.00000  Uiso   1.00
C21    C     0.29150   0.17070   0.98124   0.00000  Uiso   1.00
C22    C     0.29944   0.22144   0.03836   0.00000  Uiso   1.00
C23    C     0.36688   0.19838   0.05859   0.00000  Uiso   1.00
H24    H     0.37284   0.99760   0.85686   0.00000  Uiso   1.00
H25    H     0.31160   0.92162   0.86391   0.00000  Uiso   1.00
H26    H     0.36229   0.03011   0.75856   0.00000  Uiso   1.00
H27    H     0.46069   0.02114   0.93812   0.00000  Uiso   1.00
H28    H     0.21838   0.86883   0.88743   0.00000  Uiso   1.00
H29    H     0.32528   0.09757   0.66530   0.00000  Uiso   1.00
H30    H     0.53279   0.07867   0.04394   0.00000  Uiso   1.00
H31    H     0.17788   0.23976   0.97803   0.00000  Uiso   1.00
H32    H     0.10594   0.17707   0.99173   0.00000  Uiso   1.00
H33    H     0.15663   0.28555   0.88638   0.00000  Uiso   1.00
H34    H     0.25503   0.27659   0.06594   0.00000  Uiso   1.00
H35    H     0.05146   0.07616   0.99117   0.00000  Uiso   1.00
H36    H     0.15836   0.30491   0.76903   0.00000  Uiso   1.00
H37    H     0.36587   0.28600   0.14768   0.00000  Uiso   1.00
O38    O     0.09110   0.92689   0.94610   0.00000  Uiso   1.00
O39    O     0.23136   0.22700   0.65468   0.00000  Uiso   1.00
O40    O     0.50361   0.20219   0.15145   0.00000  Uiso   1.00
N41    N     0.18898   0.92622   0.90997   0.00000  Uiso   1.00
N42    N     0.28891   0.14008   0.70229   0.00000  Uiso   1.00
N43    N     0.48292   0.12242   0.05628   0.00000  Uiso   1.00
N44    N     0.09916   0.03779   0.96580   0.00000  Uiso   1.00
N45    N     0.19909   0.25165   0.75811   0.00000  Uiso   1.00
N46    N     0.39310   0.23398   0.11210   0.00000  Uiso   1.00
C47    C     0.25451   0.49008   0.87048   0.00000  Uiso   1.00
C48    C     0.20254   0.57432   0.88534   0.00000  Uiso   1.00
C49    C     0.13793   0.60132   0.86074   0.00000  Uiso   1.00
C50    C     0.09810   0.68046   0.88019   0.00000  Uiso   1.00
C51    C     0.01377   0.80361   0.89677   0.00000  Uiso   1.00
C52    C     0.32500   0.47585   0.84527   0.00000  Uiso   1.00
C53    C     0.36334   0.42006   0.78697   0.00000  Uiso   1.00
C54    C     0.42660   0.41630   0.77270   0.00000  Uiso   1.00
C55    C     0.53241   0.38655   0.72708   0.00000  Uiso   1.00
C56    C     0.26628   0.48347   0.93449   0.00000  Uiso   1.00
C57    C     0.25527   0.43407   0.95121   0.00000  Uiso   1.00
C58    C     0.26912   0.43671   0.01205   0.00000  Uiso   1.00
C59    C     0.28376   0.41879   0.10497   0.00000  Uiso   1.00
C60    C     0.29870   0.58261   0.94878   0.00000  Uiso   1.00
C61    C     0.22655   0.62457   0.92787   0.00000  Uiso   1.00
C62    C     0.18681   0.70369   0.94737   0.00000  Uiso   1.00
C63    C     0.12214   0.73081   0.92280   0.00000  Uiso   1.00
C64    C     0.34900   0.52611   0.88779   0.00000  Uiso   1.00
C65    C     0.41223   0.52243   0.87360   0.00000  Uiso   1.00
C66    C     0.45065   0.46664   0.81530   0.00000  Uiso   1.00
C67    C     0.29028   0.53373   0.97702   0.00000  Uiso   1.00
C68    C     0.30416   0.53644   0.03784   0.00000  Uiso   1.00
C69    C     0.29317   0.48705   0.05466   0.00000  Uiso   1.00
H70    H     0.23583   0.45095   0.83737   0.00000  Uiso   1.00
H71    H     0.11937   0.56241   0.82782   0.00000  Uiso   1.00
H72    H     0.34476   0.38117   0.75408   0.00000  Uiso   1.00
H73    H     0.23670   0.39518   0.91829   0.00000  Uiso   1.00
H74    H     0.00085   0.70814   0.83598   0.00000  Uiso   1.00
H75    H     0.47609   0.32597   0.68048   0.00000  Uiso   1.00
H76    H     0.24824   0.35552   0.02676   0.00000  Uiso   1.00
H77    H     0.31739   0.62173   0.98189   0.00000  Uiso   1.00
H78    H     0.20540   0.74257   0.98028   0.00000  Uiso   1.00
H79    H     0.43079   0.56133   0.90653   0.00000  Uiso   1.00
H80    H     0.32273   0.57534   0.07074   0.00000  Uiso   1.00
H81    H     0.07068   0.85437   0.95972   0.00000  Uiso   1.00
H82    H     0.54592   0.47219   0.80422   0.00000  Uiso   1.00
H83    H     0.31807   0.50174   0.15050   0.00000  Uiso   1.00
O84    O     0.96063   0.85766   0.89416   0.00000  Uiso   1.00
O85    O     0.58414   0.35625   0.69017   0.00000  Uiso   1.00
O86    O     0.28520   0.39502   0.14447   0.00000  Uiso   1.00
N87    N     0.03265   0.72598   0.86533   0.00000  Uiso   1.00
N88    N     0.47697   0.36867   0.71995   0.00000  Uiso   1.00
N89    N     0.26396   0.39628   0.04368   0.00000  Uiso   1.00
N90    N     0.07022   0.80466   0.93191   0.00000  Uiso   1.00
N91    N     0.51454   0.44736   0.78653   0.00000  Uiso   1.00
N92    N     0.30153   0.47497   0.11026   0.00000  Uiso   1.00
C93    C     0.64911   0.13938   0.86015   0.00000  Uiso   1.00
C94    C     0.72869   0.10591   0.86600   0.00000  Uiso   1.00
C95    C     0.77657   0.11432   0.83776   0.00000  Uiso   1.00
C96    C     0.84714   0.07928   0.84889   0.00000  Uiso   1.00
C97    C     0.96739   0.03366   0.85216   0.00000  Uiso   1.00
C98    C     0.63353   0.07140   0.83436   0.00000  Uiso   1.00
C99    C     0.60139   0.05080   0.77952   0.00000  Uiso   1.00
C100   C     0.59184   0.98672   0.76402   0.00000  Uiso   1.00
C101   C     0.56431   0.88755   0.71819   0.00000  Uiso   1.00
C102   C     0.61264   0.18792   0.92806   0.00000  Uiso   1.00
C103   C     0.56292   0.26530   0.95200   0.00000  Uiso   1.00
C104   C     0.53577   0.29931   0.01538   0.00000  Uiso   1.00
C105   C     0.47581   0.38107   0.11504   0.00000  Uiso   1.00
C106   C     0.68928   0.06220   0.93015   0.00000  Uiso   1.00
C107   C     0.75051   0.06399   0.90402   0.00000  Uiso   1.00
C108   C     0.82102   0.02893   0.91520   0.00000  Uiso   1.00
C109   C     0.86900   0.03729   0.88698   0.00000  Uiso   1.00
C110   C     0.65535   0.02948   0.87238   0.00000  Uiso   1.00
C111   C     0.64584   0.96541   0.85696   0.00000  Uiso   1.00
C112   C     0.61370   0.94472   0.80211   0.00000  Uiso   1.00
C113   C     0.63446   0.14600   0.96608   0.00000  Uiso   1.00
C114   C     0.60737   0.17990   0.02944   0.00000  Uiso   1.00
C115   C     0.55763   0.25731   0.05347   0.00000  Uiso   1.00
H116   H     0.63212   0.17201   0.83055   0.00000  Uiso   1.00
H117   H     0.75966   0.14676   0.80833   0.00000  Uiso   1.00
H118   H     0.58450   0.08326   0.75011   0.00000  Uiso   1.00
H119   H     0.54605   0.29772   0.92256   0.00000  Uiso   1.00
H120   H     0.91070   0.10025   0.80045   0.00000  Uiso   1.00
H121   H     0.54135   0.96637   0.67769   0.00000  Uiso   1.00
H122   H     0.46025   0.41860   0.04134   0.00000  Uiso   1.00
H123   H     0.70627   0.02956   0.95975   0.00000  Uiso   1.00
H124   H     0.83789   0.99649   0.94462   0.00000  Uiso   1.00
H125   H     0.66273   0.93299   0.88639   0.00000  Uiso   1.00
H126   H     0.62427   0.14745   0.05885   0.00000  Uiso   1.00
H127   H     0.97419   0.97829   0.91106   0.00000  Uiso   1.00
H128   H     0.60483   0.84441   0.78830   0.00000  Uiso   1.00
H129   H     0.52374   0.29664   0.15195   0.00000  Uiso   1.00
O130   O     0.02770   0.02007   0.84346   0.00000  Uiso   1.00
O131   O     0.54310   0.84443   0.68241   0.00000  Uiso   1.00
O132   O     0.43671   0.43775   0.15950   0.00000  Uiso   1.00
N133   N     0.90758   0.07610   0.82857   0.00000  Uiso   1.00
N134   N     0.56226   0.95092   0.71379   0.00000  Uiso   1.00
N135   N     0.48643   0.37371   0.05376   0.00000  Uiso   1.00
N136   N     0.94174   0.01047   0.88809   0.00000  Uiso   1.00
N137   N     0.59643   0.88529   0.77331   0.00000  Uiso   1.00
N138   N     0.52059   0.30809   0.11329   0.00000  Uiso   1.00
C139   C     0.82595   0.49622   0.38393   0.00000  Uiso   1.00
C140   C     0.76473   0.57814   0.40865   0.00000  Uiso   1.00
C141   C     0.75908   0.63742   0.39475   0.00000  Uiso   1.00
C142   C     0.69894   0.70818   0.42204   0.00000  Uiso   1.00
C143   C     0.61186   0.83369   0.45434   0.00000  Uiso   1.00
C144   C     0.79260   0.44376   0.35059   0.00000  Uiso   1.00
C145   C     0.81040   0.39004   0.28788   0.00000  Uiso   1.00
C146   C     0.77373   0.34767   0.26631   0.00000  Uiso   1.00
C147   C     0.72995   0.26451   0.20849   0.00000  Uiso   1.00
C148   C     0.85420   0.48065   0.44272   0.00000  Uiso   1.00
C149   C     0.92380   0.45793   0.45746   0.00000  Uiso   1.00
C150   C     0.93900   0.44660   0.51345   0.00000  Uiso   1.00
C151   C     0.99087   0.42072   0.59867   0.00000  Uiso   1.00
C152   C     0.72918   0.51647   0.45712   0.00000  Uiso   1.00
C153   C     0.71216   0.58913   0.44840   0.00000  Uiso   1.00
C154   C     0.65201   0.65982   0.47573   0.00000  Uiso   1.00
C155   C     0.64629   0.71920   0.46187   0.00000  Uiso   1.00
C156   C     0.74004   0.45475   0.39034   0.00000  Uiso   1.00
C157   C     0.70333   0.41244   0.36886   0.00000  Uiso   1.00
C158   C     0.72107   0.35868   0.30614   0.00000  Uiso   1.00
C159   C     0.80164   0.49165   0.48247   0.00000  Uiso   1.00
C160   C     0.81673   0.48034   0.53844   0.00000  Uiso   1.00
C161   C     0.88634   0.45762   0.55327   0.00000  Uiso   1.00
H162   H     0.86687   0.48766   0.35298   0.00000  Uiso   1.00
H163   H     0.79977   0.62888   0.36398   0.00000  Uiso   1.00
H164   H     0.85109   0.38154   0.25713   0.00000  Uiso   1.00
H165   H     0.96447   0.44943   0.42669   0.00000  Uiso   1.00
H166   H     0.70219   0.79030   0.39368   0.00000  Uiso   1.00
H167   H     0.81040   0.26875   0.16840   0.00000  Uiso   1.00
H168   H     0.04949   0.41189   0.52594   0.00000  Uiso   1.00
H169   H     0.68825   0.52503   0.48807   0.00000  Uiso   1.00
H170   H     0.61135   0.66831   0.50649   0.00000  Uiso   1.00
H171   H     0.66266   0.42097   0.39964   0.00000  Uiso   1.00
H172   H     0.77604   0.48885   0.56919   0.00000  Uiso   1.00
H173   H     0.54925   0.82230   0.50934   0.00000  Uiso   1.00
H174   H     0.65747   0.30074   0.28406   0.00000  Uiso   1.00
H175   H     0.89655   0.44390   0.64160   0.00000  Uiso   1.00
O176   O     0.57834   0.89988   0.46117   0.00000  Uiso   1.00
O177   O     0.72033   0.21560   0.16561   0.00000  Uiso   1.00
O178   O     0.03400   0.40342   0.63469   0.00000  Uiso   1.00
N179   N     0.67675   0.77817   0.41839   0.00000  Uiso   1.00
N180   N     0.77792   0.29056   0.20776   0.00000  Uiso   1.00
N181   N     0.00145   0.42437   0.54202   0.00000  Uiso   1.00
N182   N     0.59446   0.79539   0.48062   0.00000  Uiso   1.00
N183   N     0.69563   0.30778   0.26999   0.00000  Uiso   1.00
N184   N     0.91916   0.44159   0.60426   0.00000  Uiso   1.00
C185   C     0.75998   0.14102   0.44774   0.00000  Uiso   1.00
C186   C     0.71241   0.10445   0.44201   0.00000  Uiso   1.00
C187   C     0.64937   0.12120   0.41393   0.00000  Uiso   1.00
C188   C     0.61365   0.08150   0.41346   0.00000  Uiso   1.00
C189   C     0.53579   0.03298   0.40048   0.00000  Uiso   1.00
C190   C     0.83323   0.07467   0.41631   0.00000  Uiso   1.00
C191   C     0.87176   0.06638   0.36663   0.00000  Uiso   1.00
C192   C     0.93775   0.00161   0.34453   0.00000  Uiso   1.00
C193   C     0.04748   0.90687   0.29169   0.00000  Uiso   1.00
C194   C     0.76766   0.17521   0.51854   0.00000  Uiso   1.00
C195   C     0.75109   0.25146   0.55481   0.00000  Uiso   1.00
C196   C     0.76189   0.27134   0.61877   0.00000  Uiso   1.00
C197   C     0.76981   0.33271   0.72464   0.00000  Uiso   1.00
C198   C     0.80865   0.04073   0.49683   0.00000  Uiso   1.00
C199   C     0.73885   0.04998   0.46867   0.00000  Uiso   1.00
C200   C     0.70322   0.01025   0.46825   0.00000  Uiso   1.00
C201   C     0.64013   0.02693   0.44017   0.00000  Uiso   1.00
C202   C     0.85966   0.02020   0.44298   0.00000  Uiso   1.00
C203   C     0.92561   0.95543   0.42095   0.00000  Uiso   1.00
C204   C     0.96424   0.94704   0.37125   0.00000  Uiso   1.00
C205   C     0.79409   0.12074   0.54520   0.00000  Uiso   1.00
C206   C     0.80493   0.14050   0.60912   0.00000  Uiso   1.00
C207   C     0.78837   0.21677   0.64548   0.00000  Uiso   1.00
H208   H     0.73940   0.18343   0.42698   0.00000  Uiso   1.00
H209   H     0.62893   0.16335   0.39330   0.00000  Uiso   1.00
H210   H     0.85130   0.10855   0.34601   0.00000  Uiso   1.00
H211   H     0.73063   0.29359   0.53416   0.00000  Uiso   1.00
H212   H     0.51813   0.11706   0.36769   0.00000  Uiso   1.00
H213   H     0.98700   0.00151   0.26801   0.00000  Uiso   1.00
H214   H     0.73256   0.39172   0.66474   0.00000  Uiso   1.00
H215   H     0.82923   0.99832   0.51759   0.00000  Uiso   1.00
H216   H     0.72369   0.96809   0.48888   0.00000  Uiso   1.00
H217   H     0.94605   0.91329   0.44160   0.00000  Uiso   1.00
H218   H     0.82539   0.09833   0.62974   0.00000  Uiso   1.00
H219   H     0.59503   0.95858   0.44527   0.00000  Uiso   1.00
H220   H     0.06391   0.84303   0.34558   0.00000  Uiso   1.00
H221   H     0.80947   0.23324   0.74232   0.00000  Uiso   1.00
O222   O     0.48554   0.02125   0.38594   0.00000  Uiso   1.00
O223   O     0.10069   0.86967   0.25516   0.00000  Uiso   1.00
O224   O     0.76686   0.38161   0.77567   0.00000  Uiso   1.00
N225   N     0.55070   0.08392   0.38990   0.00000  Uiso   1.00
N226   N     0.98907   0.97588   0.29669   0.00000  Uiso   1.00
N227   N     0.75120   0.34069   0.66760   0.00000  Uiso   1.00
N228   N     0.59209   0.99864   0.43165   0.00000  Uiso   1.00
N229   N     0.03045   0.89060   0.33844   0.00000  Uiso   1.00
N230   N     0.79259   0.25541   0.70935   0.00000  Uiso   1.00
C231   C     0.16604   0.05678   0.34273   0.00000  Uiso   1.00
C232   C     0.24187   0.01076   0.35514   0.00000  Uiso   1.00
C233   C     0.28000   0.93116   0.33221   0.00000  Uiso   1.00
C234   C     0.34865   0.90008   0.34890   0.00000  Uiso   1.00
C235   C     0.46194   0.82149   0.36233   0.00000  Uiso   1.00
C236   C     0.16929   0.10716   0.31323   0.00000  Uiso   1.00
C237   C     0.14638   0.10862   0.25507   0.00000  Uiso   1.00
C238   C     0.15392   0.15870   0.23649   0.00000  Uiso   1.00
C239   C     0.15448   0.22981   0.18488   0.00000  Uiso   1.00
C240   C     0.12404   0.11161   0.40806   0.00000  Uiso   1.00
C241   C     0.06308   0.11682   0.42964   0.00000  Uiso   1.00
C242   C     0.03252   0.17066   0.49090   0.00000  Uiso   1.00
C243   C     0.96282   0.24868   0.58653   0.00000  Uiso   1.00
C244   C     0.22015   0.14315   0.41315   0.00000  Uiso   1.00
C245   C     0.27126   0.05768   0.39339   0.00000  Uiso   1.00
C246   C     0.33987   0.02671   0.41012   0.00000  Uiso   1.00
C247   C     0.37810   0.94708   0.38722   0.00000  Uiso   1.00
C248   C     0.19868   0.15407   0.35148   0.00000  Uiso   1.00
C249   C     0.20625   0.20418   0.33298   0.00000  Uiso   1.00
C250   C     0.18337   0.20570   0.27481   0.00000  Uiso   1.00
C251   C     0.15343   0.15852   0.44632   0.00000  Uiso   1.00
C252   C     0.12296   0.21237   0.50755   0.00000  Uiso   1.00
C253   C     0.06196   0.21766   0.52922   0.00000  Uiso   1.00
H254   H     0.14315   0.02026   0.31294   0.00000  Uiso   1.00
H255   H     0.25723   0.89487   0.30260   0.00000  Uiso   1.00
H256   H     0.12363   0.07231   0.22548   0.00000  Uiso   1.00
H257   H     0.04035   0.08050   0.40003   0.00000  Uiso   1.00
H258   H     0.39669   0.77654   0.30799   0.00000  Uiso   1.00
H259   H     0.11496   0.15070   0.14538   0.00000  Uiso   1.00
H260   H     0.93933   0.16799   0.51344   0.00000  Uiso   1.00
H261   H     0.24304   0.17968   0.44293   0.00000  Uiso   1.00
H262   H     0.36260   0.06303   0.43972   0.00000  Uiso   1.00
H263   H     0.22900   0.24047   0.36260   0.00000  Uiso   1.00
H264   H     0.14572   0.24867   0.53714   0.00000  Uiso   1.00
H265   H     0.48221   0.91303   0.41928   0.00000  Uiso   1.00
H266   H     0.20048   0.28719   0.25667   0.00000  Uiso   1.00
H267   H     0.02486   0.30447   0.62473   0.00000  Uiso   1.00
O268   O     0.51631   0.76518   0.35916   0.00000  Uiso   1.00
O269   O     0.14668   0.25607   0.14584   0.00000  Uiso   1.00
O270   O     0.91627   0.27874   0.62872   0.00000  Uiso   1.00
N271   N     0.40040   0.82467   0.33463   0.00000  Uiso   1.00
N272   N     0.13701   0.17448   0.18260   0.00000  Uiso   1.00
N273   N     0.97281   0.19065   0.52670   0.00000  Uiso   1.00
N274   N     0.44642   0.89811   0.39451   0.00000  Uiso   1.00
N275   N     0.18303   0.24792   0.24248   0.00000  Uiso   1.00
N276   N     0.01882   0.26410   0.58658   0.00000  Uiso   1.00
C277   C     0.67182   0.94693   0.11537   0.00000  Uiso   1.00
C278   C     0.73213   0.95462   0.09474   0.00000  Uiso   1.00
C279   C     0.73281   0.02324   0.10849   0.00000  Uiso   1.00
C280   C     0.79297   0.01807   0.08530   0.00000  Uiso   1.00
C281   C     0.87790   0.04085   0.05870   0.00000  Uiso   1.00
C282   C     0.70460   0.89569   0.15198   0.00000  Uiso   1.00
C283   C     0.68212   0.91475   0.21386   0.00000  Uiso   1.00
C284   C     0.71909   0.85995   0.23885   0.00000  Uiso   1.00
C285   C     0.76124   0.79122   0.30112   0.00000  Uiso   1.00
C286   C     0.65113   0.90056   0.05442   0.00000  Uiso   1.00
C287   C     0.58369   0.92371   0.03427   0.00000  Uiso   1.00
C288   C     0.57565   0.87302   0.97713   0.00000  Uiso   1.00
C289   C     0.53478   0.81185   0.88791   0.00000  Uiso   1.00
C290   C     0.77745   0.81573   0.04973   0.00000  Uiso   1.00
C291   C     0.78950   0.88336   0.05908   0.00000  Uiso   1.00
C292   C     0.84967   0.87808   0.03586   0.00000  Uiso   1.00
C293   C     0.85044   0.94668   0.04957   0.00000  Uiso   1.00
C294   C     0.76197   0.82442   0.11633   0.00000  Uiso   1.00
C295   C     0.79898   0.76959   0.14123   0.00000  Uiso   1.00
C296   C     0.77657   0.78856   0.20313   0.00000  Uiso   1.00
C297   C     0.70850   0.82930   0.01876   0.00000  Uiso   1.00
C298   C     0.70056   0.77856   0.96164   0.00000  Uiso   1.00
C299   C     0.63312   0.80162   0.94141   0.00000  Uiso   1.00
H300   H     0.62716   0.00240   0.14314   0.00000  Uiso   1.00
H301   H     0.68840   0.07838   0.13609   0.00000  Uiso   1.00
H302   H     0.63771   0.96989   0.24144   0.00000  Uiso   1.00
H303   H     0.53931   0.97886   0.06188   0.00000  Uiso   1.00
H304   H     0.78162   0.13117   0.11257   0.00000  Uiso   1.00
H305   H     0.67472   0.90243   0.33470   0.00000  Uiso   1.00
H306   H     0.46721   0.92133   0.95606   0.00000  Uiso   1.00
H307   H     0.82212   0.76024   0.02197   0.00000  Uiso   1.00
H308   H     0.89406   0.82293   0.00827   0.00000  Uiso   1.00
H309   H     0.84337   0.71445   0.11362   0.00000  Uiso   1.00
H310   H     0.74497   0.72341   0.93406   0.00000  Uiso   1.00
H311   H     0.94854   0.92384   0.00883   0.00000  Uiso   1.00
H312   H     0.84164   0.69509   0.23097   0.00000  Uiso   1.00
H313   H     0.63413   0.71400   0.85232   0.00000  Uiso   1.00
O314   O     0.90890   0.07311   0.05390   0.00000  Uiso   1.00
O315   O     0.76864   0.77300   0.34532   0.00000  Uiso   1.00
O316   O     0.49639   0.79781   0.84855   0.00000  Uiso   1.00
N317   N     0.81102   0.07378   0.09003   0.00000  Uiso   1.00
N318   N     0.71109   0.85992   0.29771   0.00000  Uiso   1.00
N319   N     0.51708   0.87758   0.94372   0.00000  Uiso   1.00
N320   N     0.90084   0.96221   0.03420   0.00000  Uiso   1.00
N321   N     0.80091   0.74835   0.24189   0.00000  Uiso   1.00
N322   N     0.60690   0.76602   0.88790   0.00000  Uiso   1.00
C323   C     0.74549   0.50992   0.12952   0.00000  Uiso   1.00
C324   C     0.79746   0.42568   0.11466   0.00000  Uiso   1.00
C325   C     0.86207   0.39868   0.13926   0.00000  Uiso   1.00
C326   C     0.90190   0.31954   0.11981   0.00000  Uiso   1.00
C327   C     0.98623   0.19639   0.10323   0.00000  Uiso   1.00
C328   C     0.67500   0.52415   0.15473   0.00000  Uiso   1.00
C329   C     0.63666   0.57994   0.21303   0.00000  Uiso   1.00
C330   C     0.57340   0.58370   0.22730   0.00000  Uiso   1.00
C331   C     0.46759   0.61345   0.27292   0.00000  Uiso   1.00
C332   C     0.73372   0.51653   0.06551   0.00000  Uiso   1.00
C333   C     0.74473   0.56593   0.04879   0.00000  Uiso   1.00
C334   C     0.73088   0.56329   0.98795   0.00000  Uiso   1.00
C335   C     0.71624   0.58121   0.89503   0.00000  Uiso   1.00
C336   C     0.70130   0.41739   0.05122   0.00000  Uiso   1.00
C337   C     0.77345   0.37543   0.07213   0.00000  Uiso   1.00
C338   C     0.81319   0.29631   0.05263   0.00000  Uiso   1.00
C339   C     0.87786   0.26919   0.07720   0.00000  Uiso   1.00
C340   C     0.65100   0.47389   0.11221   0.00000  Uiso   1.00
C341   C     0.58777   0.47757   0.12640   0.00000  Uiso   1.00
C342   C     0.54935   0.53336   0.18470   0.00000  Uiso   1.00
C343   C     0.70972   0.46627   0.02298   0.00000  Uiso   1.00
C344   C     0.69584   0.46356   0.96216   0.00000  Uiso   1.00
C345   C     0.70683   0.51295   0.94534   0.00000  Uiso   1.00
H346   H     0.76417   0.54905   0.16263   0.00000  Uiso   1.00
H347   H     0.88063   0.43759   0.17218   0.00000  Uiso   1.00
H348   H     0.65524   0.61883   0.24592   0.00000  Uiso   1.00
H349   H     0.76330   0.60482   0.08171   0.00000  Uiso   1.00
H350   H     0.99915   0.29186   0.16402   0.00000  Uiso   1.00
H351   H     0.52391   0.67403   0.31952   0.00000  Uiso   1.00
H352   H     0.75176   0.64448   0.97324   0.00000  Uiso   1.00
H353   H     0.68261   0.37827   0.01811   0.00000  Uiso   1.00
H354   H     0.79460   0.25743   0.01972   0.00000  Uiso   1.00
H355   H     0.56921   0.43867   0.09347   0.00000  Uiso   1.00
H356   H     0.67727   0.42466   0.92926   0.00000  Uiso   1.00
H357   H     0.92932   0.14563   0.04028   0.00000  Uiso   1.00
H358   H     0.45408   0.52781   0.19578   0.00000  Uiso   1.00
H359   H     0.68193   0.49826   0.84950   0.00000  Uiso   1.00
O360   O     0.03937   0.14234   0.10584   0.00000  Uiso   1.00
O361   O     0.41586   0.64375   0.30983   0.00000  Uiso   1.00
O362   O     0.71480   0.60498   0.85553   0.00000  Uiso   1.00
N363   N     0.96735   0.27402   0.13467   0.00000  Uiso   1.00
N364   N     0.52303   0.63133   0.28005   0.00000  Uiso   1.00
N365   N     0.73604   0.60372   0.95632   0.00000  Uiso   1.00
N366   N     0.92978   0.19534   0.06809   0.00000  Uiso   1.00
N367   N     0.48546   0.55264   0.21347   0.00000  Uiso   1.00
N368   N     0.69847   0.52503   0.88974   0.00000  Uiso   1.00
C369   C     0.35089   0.86062   0.13985   0.00000  Uiso   1.00
C370   C     0.27131   0.89409   0.13400   0.00000  Uiso   1.00
C371   C     0.22343   0.88568   0.16224   0.00000  Uiso   1.00
C372   C     0.15286   0.92072   0.15111   0.00000  Uiso   1.00
C373   C     0.03261   0.96634   0.14784   0.00000  Uiso   1.00
C374   C     0.36647   0.92860   0.16564   0.00000  Uiso   1.00
C375   C     0.39861   0.94920   0.22048   0.00000  Uiso   1.00
C376   C     0.40816   0.01328   0.23598   0.00000  Uiso   1.00
C377   C     0.43569   0.11245   0.28181   0.00000  Uiso   1.00
C378   C     0.38736   0.81208   0.07194   0.00000  Uiso   1.00
C379   C     0.43708   0.73470   0.04800   0.00000  Uiso   1.00
C380   C     0.46423   0.70069   0.98462   0.00000  Uiso   1.00
C381   C     0.52419   0.61893   0.88496   0.00000  Uiso   1.00
C382   C     0.31072   0.93780   0.06985   0.00000  Uiso   1.00
C383   C     0.24949   0.93601   0.09598   0.00000  Uiso   1.00
C384   C     0.17898   0.97107   0.08480   0.00000  Uiso   1.00
C385   C     0.13100   0.96271   0.11302   0.00000  Uiso   1.00
C386   C     0.34465   0.97052   0.12762   0.00000  Uiso   1.00
C387   C     0.35416   0.03459   0.14304   0.00000  Uiso   1.00
C388   C     0.38630   0.05528   0.19789   0.00000  Uiso   1.00
C389   C     0.36554   0.85400   0.03392   0.00000  Uiso   1.00
C390   C     0.39263   0.82010   0.97056   0.00000  Uiso   1.00
C391   C     0.44237   0.74269   0.94653   0.00000  Uiso   1.00
H392   H     0.36788   0.82799   0.16945   0.00000  Uiso   1.00
H393   H     0.24034   0.85324   0.19167   0.00000  Uiso   1.00
H394   H     0.41550   0.91674   0.24989   0.00000  Uiso   1.00
H395   H     0.45395   0.70228   0.07744   0.00000  Uiso   1.00
H396   H     0.08930   0.89975   0.19955   0.00000  Uiso   1.00
H397   H     0.45865   0.03363   0.32231   0.00000  Uiso   1.00
H398   H     0.53975   0.58140   0.95866   0.00000  Uiso   1.00
H399   H     0.29373   0.97044   0.04025   0.00000  Uiso   1.00
H400   H     0.16211   0.00351   0.05538   0.00000  Uiso   1.00
H401   H     0.33727   0.06701   0.11361   0.00000  Uiso   1.00
H402   H     0.37573   0.85255   0.94115   0.00000  Uiso   1.00
H403   H     0.02581   0.02171   0.08894   0.00000  Uiso   1.00
H404   H     0.39517   0.15559   0.21170   0.00000  Uiso   1.00
H405   H     0.47626   0.70336   0.84805   0.00000  Uiso   1.00
O406   O     0.97230   0.97993   0.15654   0.00000  Uiso   1.00
O407   O     0.45690   0.15557   0.31759   0.00000  Uiso   1.00
O408   O     0.56329   0.56225   0.84050   0.00000  Uiso   1.00
N409   N     0.09242   0.92390   0.17143   0.00000  Uiso   1.00
N410   N     0.43774   0.04908   0.28621   0.00000  Uiso   1.00
N411   N     0.51357   0.62629   0.94624   0.00000  Uiso   1.00
N412   N     0.05826   0.98953   0.11191   0.00000  Uiso   1.00
N413   N     0.40357   0.11471   0.22669   0.00000  Uiso   1.00
N414   N     0.47941   0.69191   0.88671   0.00000  Uiso   1.00
C415   C     0.17405   0.50378   0.61607   0.00000  Uiso   1.00
C416   C     0.23527   0.42186   0.59135   0.00000  Uiso   1.00
C417   C     0.24092   0.36258   0.60525   0.00000  Uiso   1.00
C418   C     0.30106   0.29182   0.57796   0.00000  Uiso   1.00
C419   C     0.38814   0.16631   0.54566   0.00000  Uiso   1.00
C420   C     0.20740   0.55624   0.64941   0.00000  Uiso   1.00
C421   C     0.18960   0.60996   0.71212   0.00000  Uiso   1.00
C422   C     0.22627   0.65233   0.73369   0.00000  Uiso   1.00
C423   C     0.27005   0.73549   0.79151   0.00000  Uiso   1.00
C424   C     0.14580   0.51935   0.55728   0.00000  Uiso   1.00
C425   C     0.07620   0.54207   0.54254   0.00000  Uiso   1.00
C426   C     0.06100   0.55340   0.48655   0.00000  Uiso   1.00
C427   C     0.00913   0.57928   0.40133   0.00000  Uiso   1.00
C428   C     0.27082   0.48353   0.54288   0.00000  Uiso   1.00
C429   C     0.28784   0.41087   0.55160   0.00000  Uiso   1.00
C430   C     0.34799   0.34018   0.52427   0.00000  Uiso   1.00
C431   C     0.35371   0.28080   0.53813   0.00000  Uiso   1.00
C432   C     0.25996   0.54525   0.60966   0.00000  Uiso   1.00
C433   C     0.29667   0.58756   0.63114   0.00000  Uiso   1.00
C434   C     0.27893   0.64132   0.69386   0.00000  Uiso   1.00
C435   C     0.19836   0.50835   0.51753   0.00000  Uiso   1.00
C436   C     0.18327   0.51966   0.46156   0.00000  Uiso   1.00
C437   C     0.11366   0.54238   0.44673   0.00000  Uiso   1.00
H438   H     0.13313   0.51234   0.64702   0.00000  Uiso   1.00
H439   H     0.20023   0.37112   0.63602   0.00000  Uiso   1.00
H440   H     0.14891   0.61846   0.74287   0.00000  Uiso   1.00
H441   H     0.03553   0.55057   0.57331   0.00000  Uiso   1.00
H442   H     0.29781   0.20970   0.60632   0.00000  Uiso   1.00
H443   H     0.18960   0.73125   0.83160   0.00000  Uiso   1.00
H444   H     0.95051   0.58811   0.47406   0.00000  Uiso   1.00
H445   H     0.31175   0.47497   0.51193   0.00000  Uiso   1.00
H446   H     0.38865   0.33169   0.49351   0.00000  Uiso   1.00
H447   H     0.33734   0.57903   0.60036   0.00000  Uiso   1.00
H448   H     0.22396   0.51115   0.43081   0.00000  Uiso   1.00
H449   H     0.45075   0.17770   0.49066   0.00000  Uiso   1.00
H450   H     0.34253   0.69926   0.71594   0.00000  Uiso   1.00
H451   H     0.10345   0.55610   0.35840   0.00000  Uiso   1.00
O452   O     0.42166   0.10012   0.53883   0.00000  Uiso   1.00
O453   O     0.27967   0.78440   0.83439   0.00000  Uiso   1.00
O454   O     0.96600   0.59658   0.36531   0.00000  Uiso   1.00
N455   N     0.32325   0.22183   0.58161   0.00000  Uiso   1.00
N456   N     0.22208   0.70944   0.79224   0.00000  Uiso   1.00
N457   N     0.99855   0.57563   0.45798   0.00000  Uiso   1.00
N458   N     0.40554   0.20461   0.51938   0.00000  Uiso   1.00
N459   N     0.30437   0.69222   0.73001   0.00000  Uiso   1.00
N460   N     0.08084   0.55841   0.39574   0.00000  Uiso   1.00
C461   C     0.24002   0.85898   0.55226   0.00000  Uiso   1.00
C462   C     0.28759   0.89555   0.55799   0.00000  Uiso   1.00
C463   C     0.35063   0.87880   0.58607   0.00000  Uiso   1.00
C464   C     0.38635   0.91850   0.58654   0.00000  Uiso   1.00
C465   C     0.46421   0.96702   0.59952   0.00000  Uiso   1.00
C466   C     0.16677   0.92533   0.58369   0.00000  Uiso   1.00
C467   C     0.12824   0.93362   0.63337   0.00000  Uiso   1.00
C468   C     0.06225   0.99839   0.65547   0.00000  Uiso   1.00
C469   C     0.95252   0.09313   0.70831   0.00000  Uiso   1.00
C470   C     0.23234   0.82479   0.48146   0.00000  Uiso   1.00
C471   C     0.24891   0.74854   0.44519   0.00000  Uiso   1.00
C472   C     0.23811   0.72866   0.38123   0.00000  Uiso   1.00
C473   C     0.23019   0.66729   0.27536   0.00000  Uiso   1.00
C474   C     0.19135   0.95927   0.50317   0.00000  Uiso   1.00
C475   C     0.26115   0.95002   0.53133   0.00000  Uiso   1.00
C476   C     0.29678   0.98975   0.53175   0.00000  Uiso   1.00
C477   C     0.35987   0.97307   0.55983   0.00000  Uiso   1.00
C478   C     0.14034   0.97980   0.55702   0.00000  Uiso   1.00
C479   C     0.07439   0.04457   0.57905   0.00000  Uiso   1.00
C480   C     0.03576   0.05296   0.62875   0.00000  Uiso   1.00
C481   C     0.20591   0.87926   0.45480   0.00000  Uiso   1.00
C482   C     0.19507   0.85950   0.39088   0.00000  Uiso   1.00
C483   C     0.21163   0.78323   0.35452   0.00000  Uiso   1.00
H484   H     0.26060   0.81657   0.57302   0.00000  Uiso   1.00
H485   H     0.37107   0.83665   0.60670   0.00000  Uiso   1.00
H486   H     0.14870   0.89145   0.65399   0.00000  Uiso   1.00
H487   H     0.26937   0.70641   0.46584   0.00000  Uiso   1.00
H488   H     0.48187   0.88294   0.63231   0.00000  Uiso   1.00
H489   H     0.01300   0.99849   0.73199   0.00000  Uiso   1.00
H490   H     0.26744   0.60828   0.33526   0.00000  Uiso   1.00
H491   H     0.17077   0.00168   0.48241   0.00000  Uiso   1.00
H492   H     0.27631   0.03191   0.51112   0.00000  Uiso   1.00
H493   H     0.05395   0.08671   0.55840   0.00000  Uiso   1.00
H494   H     0.17461   0.90167   0.37026   0.00000  Uiso   1.00
H495   H     0.40497   0.04142   0.55473   0.00000  Uiso   1.00
H496   H     0.93609   0.15697   0.65442   0.00000  Uiso   1.00
H497   H     0.19053   0.76676   0.25768   0.00000  Uiso   1.00
O498   O     0.51446   0.97875   0.61406   0.00000  Uiso   1.00
O499   O     0.89931   0.13033   0.74484   0.00000  Uiso   1.00
O500   O     0.23314   0.61839   0.22433   0.00000  Uiso   1.00
N501   N     0.44930   0.91608   0.61010   0.00000  Uiso   1.00
N502   N     0.01093   0.02412   0.70331   0.00000  Uiso   1.00
N503   N     0.24880   0.65931   0.33240   0.00000  Uiso   1.00
N504   N     0.40791   0.00136   0.56835   0.00000  Uiso   1.00
N505   N     0.96955   0.10940   0.66156   0.00000  Uiso   1.00
N506   N     0.20741   0.74459   0.29065   0.00000  Uiso   1.00
C507   C     0.83396   0.94322   0.65727   0.00000  Uiso   1.00
C508   C     0.75813   0.98924   0.64486   0.00000  Uiso   1.00
C509   C     0.72000   0.06884   0.66779   0.00000  Uiso   1.00
C510   C     0.65135   0.09992   0.65110   0.00000  Uiso   1.00
C511   C     0.53806   0.17851   0.63767   0.00000  Uiso   1.00
C512   C     0.83071   0.89284   0.68677   0.00000  Uiso   1.00
C513   C     0.85362   0.89138   0.74493   0.00000  Uiso   1.00
C514   C     0.84608   0.84130   0.76351   0.00000  Uiso   1.00
C515   C     0.84552   0.77019   0.81512   0.00000  Uiso   1.00
C516   C     0.87596   0.88839   0.59194   0.00000  Uiso   1.00
C517   C     0.93692   0.88318   0.57036   0.00000  Uiso   1.00
C518   C     0.96748   0.82934   0.50910   0.00000  Uiso   1.00
C519   C     0.03718   0.75132   0.41347   0.00000  Uiso   1.00
C520   C     0.77985   0.85685   0.58685   0.00000  Uiso   1.00
C521   C     0.72874   0.94232   0.60661   0.00000  Uiso   1.00
C522   C     0.66013   0.97329   0.58988   0.00000  Uiso   1.00
C523   C     0.62190   0.05292   0.61278   0.00000  Uiso   1.00
C524   C     0.80132   0.84593   0.64852   0.00000  Uiso   1.00
C525   C     0.79375   0.79582   0.66702   0.00000  Uiso   1.00
C526   C     0.81663   0.79430   0.72519   0.00000  Uiso   1.00
C527   C     0.84657   0.84148   0.55368   0.00000  Uiso   1.00
C528   C     0.87704   0.78763   0.49245   0.00000  Uiso   1.00
C529   C     0.93804   0.78234   0.47078   0.00000  Uiso   1.00
H530   H     0.85685   0.97974   0.68706   0.00000  Uiso   1.00
H531   H     0.74277   0.10513   0.69740   0.00000  Uiso   1.00
H532   H     0.87637   0.92769   0.77452   0.00000  Uiso   1.00
H533   H     0.95965   0.91950   0.59997   0.00000  Uiso   1.00
H534   H     0.60331   0.22346   0.69201   0.00000  Uiso   1.00
H535   H     0.88504   0.84930   0.85462   0.00000  Uiso   1.00
H536   H     0.06067   0.83201   0.48656   0.00000  Uiso   1.00
H537   H     0.75696   0.82032   0.55707   0.00000  Uiso   1.00
H538   H     0.63740   0.93697   0.56028   0.00000  Uiso   1.00
H539   H     0.77100   0.75953   0.63740   0.00000  Uiso   1.00
H540   H     0.85428   0.75133   0.46286   0.00000  Uiso   1.00
H541   H     0.51779   0.08697   0.58072   0.00000  Uiso   1.00
H542   H     0.79952   0.71281   0.74333   0.00000  Uiso   1.00
H543   H     0.97514   0.69553   0.37527   0.00000  Uiso   1.00
O544   O     0.48369   0.23482   0.64084   0.00000  Uiso   1.00
O545   O     0.85332   0.74393   0.85416   0.00000  Uiso   1.00
O546   O     0.08373   0.72126   0.37128   0.00000  Uiso   1.00
N547   N     0.59960   0.17533   0.66537   0.00000  Uiso   1.00
N548   N     0.86299   0.82552   0.81740   0.00000  Uiso   1.00
N549   N     0.02719   0.80935   0.47330   0.00000  Uiso   1.00
N550   N     0.55358   0.10189   0.60549   0.00000  Uiso   1.00
N551   N     0.81697   0.75208   0.75752   0.00000  Uiso   1.00
N552   N     0.98118   0.73590   0.41342   0.00000  Uiso   1.00
