data_job_04213
_audit_creation_date              2018-12-19
_audit_creation_method            'Materials Studio'
_symmetry_space_group_name_H-M    'P1'
_symmetry_Int_Tables_number       1
_symmetry_cell_setting            triclinic
loop_
_symmetry_equiv_pos_as_xyz
  x,y,z
_cell_length_a                    12.8094
_cell_length_b                    12.8094
_cell_length_c                    77.7606
_cell_angle_alpha                 90.0000
_cell_angle_beta                  90.0000
_cell_angle_gamma                 120.0000
loop_
_atom_site_label
_atom_site_type_symbol
_atom_site_fract_x
_atom_site_fract_y
_atom_site_fract_z
_atom_site_U_iso_or_equiv
_atom_site_adp_type
_atom_site_occupancy
C1     C     0.45813   0.55663   0.19711   0.00000  Uiso   1.00
C2     C     0.39860   0.46718   0.21180   0.00000  Uiso   1.00
C3     C     0.34794   0.34305   0.21064   0.00000  Uiso   1.00
C4     C     0.29791   0.27692   0.22554   0.00000  Uiso   1.00
C5     C     0.20531   0.12949   0.24599   0.00000  Uiso   1.00
C6     C     0.39150   0.62715   0.19583   0.00000  Uiso   1.00
C7     C     0.33489   0.63751   0.18124   0.00000  Uiso   1.00
C8     C     0.27890   0.70605   0.18269   0.00000  Uiso   1.00
C9     C     0.17535   0.80704   0.17835   0.00000  Uiso   1.00
C10    C     0.58514   0.64635   0.20324   0.00000  Uiso   1.00
C11    C     0.69135   0.67290   0.19488   0.00000  Uiso   1.00
C12    C     0.79839   0.75763   0.20258   0.00000  Uiso   1.00
C13    C     0.99550   0.88844   0.20974   0.00000  Uiso   1.00
C14    C     0.45936   0.65994   0.22562   0.00000  Uiso   1.00
C15    C     0.39926   0.52330   0.22729   0.00000  Uiso   1.00
C16    C     0.34930   0.45734   0.24219   0.00000  Uiso   1.00
C17    C     0.29858   0.33313   0.24106   0.00000  Uiso   1.00
C18    C     0.39216   0.68326   0.21131   0.00000  Uiso   1.00
C19    C     0.33625   0.75181   0.21279   0.00000  Uiso   1.00
C20    C     0.27957   0.76227   0.19821   0.00000  Uiso   1.00
C21    C     0.58581   0.70247   0.21873   0.00000  Uiso   1.00
C22    C     0.69271   0.78719   0.22644   0.00000  Uiso   1.00
C23    C     0.79906   0.81385   0.21809   0.00000  Uiso   1.00
H24    H     0.45761   0.51295   0.18505   0.00000  Uiso   1.00
H25    H     0.34743   0.29965   0.19865   0.00000  Uiso   1.00
H26    H     0.33440   0.59409   0.16925   0.00000  Uiso   1.00
H27    H     0.69080   0.62946   0.18290   0.00000  Uiso   1.00
H28    H     0.22553   0.08792   0.22056   0.00000  Uiso   1.00
H29    H     0.19808   0.70878   0.15858   0.00000  Uiso   1.00
H30    H     0.94962   0.78337   0.18735   0.00000  Uiso   1.00
H31    H     0.45988   0.70363   0.23768   0.00000  Uiso   1.00
H32    H     0.34983   0.50079   0.25417   0.00000  Uiso   1.00
H33    H     0.33679   0.79522   0.22478   0.00000  Uiso   1.00
H34    H     0.69319   0.83059   0.23842   0.00000  Uiso   1.00
H35    H     0.22747   0.25117   0.26563   0.00000  Uiso   1.00
H36    H     0.20003   0.87203   0.20364   0.00000  Uiso   1.00
H37    H     0.95157   0.94662   0.23241   0.00000  Uiso   1.00
O38    O     0.15403   0.03267   0.25299   0.00000  Uiso   1.00
O39    O     0.11804   0.84723   0.17167   0.00000  Uiso   1.00
O40    O     0.10404   0.94508   0.20942   0.00000  Uiso   1.00
N41    N     0.24111   0.15418   0.22890   0.00000  Uiso   1.00
N42    N     0.21543   0.73463   0.17095   0.00000  Uiso   1.00
N43    N     0.91806   0.80439   0.19785   0.00000  Uiso   1.00
N44    N     0.24216   0.24202   0.25315   0.00000  Uiso   1.00
N45    N     0.21648   0.82247   0.19520   0.00000  Uiso   1.00
N46    N     0.91911   0.89223   0.22210   0.00000  Uiso   1.00
C47    C     0.44337   0.90150   0.86377   0.00000  Uiso   1.00
C48    C     0.53282   0.93141   0.87846   0.00000  Uiso   1.00
C49    C     0.65695   0.00489   0.87731   0.00000  Uiso   1.00
C50    C     0.72308   0.02099   0.89221   0.00000  Uiso   1.00
C51    C     0.87051   0.07582   0.91266   0.00000  Uiso   1.00
C52    C     0.37285   0.76435   0.86249   0.00000  Uiso   1.00
C53    C     0.36249   0.69738   0.84791   0.00000  Uiso   1.00
C54    C     0.29395   0.57284   0.84936   0.00000  Uiso   1.00
C55    C     0.19296   0.36831   0.84501   0.00000  Uiso   1.00
C56    C     0.35365   0.93878   0.86991   0.00000  Uiso   1.00
C57    C     0.32710   0.01845   0.86155   0.00000  Uiso   1.00
C58    C     0.24237   0.04076   0.86924   0.00000  Uiso   1.00
C59    C     0.11156   0.10706   0.87641   0.00000  Uiso   1.00
C60    C     0.34006   0.79943   0.89229   0.00000  Uiso   1.00
C61    C     0.47670   0.87596   0.89395   0.00000  Uiso   1.00
C62    C     0.54266   0.89196   0.90886   0.00000  Uiso   1.00
C63    C     0.66687   0.96545   0.90772   0.00000  Uiso   1.00
C64    C     0.31674   0.70891   0.87798   0.00000  Uiso   1.00
C65    C     0.24819   0.58444   0.87946   0.00000  Uiso   1.00
C66    C     0.23773   0.51730   0.86488   0.00000  Uiso   1.00
C67    C     0.29753   0.88334   0.88539   0.00000  Uiso   1.00
C68    C     0.21281   0.90552   0.89310   0.00000  Uiso   1.00
C69    C     0.18615   0.98521   0.88476   0.00000  Uiso   1.00
H70    H     0.48705   0.94466   0.85171   0.00000  Uiso   1.00
H71    H     0.70035   0.04777   0.86532   0.00000  Uiso   1.00
H72    H     0.40591   0.74031   0.83592   0.00000  Uiso   1.00
H73    H     0.37054   0.06134   0.84957   0.00000  Uiso   1.00
H74    H     0.91208   0.13761   0.88723   0.00000  Uiso   1.00
H75    H     0.29122   0.48930   0.82524   0.00000  Uiso   1.00
H76    H     0.21663   0.16625   0.85401   0.00000  Uiso   1.00
H77    H     0.29637   0.75626   0.90435   0.00000  Uiso   1.00
H78    H     0.49921   0.84904   0.92084   0.00000  Uiso   1.00
H79    H     0.20478   0.54157   0.89144   0.00000  Uiso   1.00
H80    H     0.16941   0.86260   0.90509   0.00000  Uiso   1.00
H81    H     0.74883   0.97630   0.93229   0.00000  Uiso   1.00
H82    H     0.12797   0.32800   0.87031   0.00000  Uiso   1.00
H83    H     0.05338   0.00495   0.89908   0.00000  Uiso   1.00
O84    O     0.96733   0.12136   0.91966   0.00000  Uiso   1.00
O85    O     0.15277   0.27081   0.83834   0.00000  Uiso   1.00
O86    O     0.05492   0.15895   0.87608   0.00000  Uiso   1.00
N87    N     0.84582   0.08693   0.89557   0.00000  Uiso   1.00
N88    N     0.26537   0.48080   0.83762   0.00000  Uiso   1.00
N89    N     0.19561   0.11367   0.86452   0.00000  Uiso   1.00
N90    N     0.75798   0.00014   0.91982   0.00000  Uiso   1.00
N91    N     0.17753   0.39401   0.86187   0.00000  Uiso   1.00
N92    N     0.10777   0.02687   0.88876   0.00000  Uiso   1.00
C93    C     0.09850   0.54187   0.53044   0.00000  Uiso   1.00
C94    C     0.06859   0.60140   0.54513   0.00000  Uiso   1.00
C95    C     0.99511   0.65206   0.54397   0.00000  Uiso   1.00
C96    C     0.97901   0.70209   0.55887   0.00000  Uiso   1.00
C97    C     0.92418   0.79469   0.57932   0.00000  Uiso   1.00
C98    C     0.23565   0.60850   0.52916   0.00000  Uiso   1.00
C99    C     0.30262   0.66511   0.51457   0.00000  Uiso   1.00
C100   C     0.42716   0.72110   0.51603   0.00000  Uiso   1.00
C101   C     0.63169   0.82465   0.51168   0.00000  Uiso   1.00
C102   C     0.06122   0.41486   0.53657   0.00000  Uiso   1.00
C103   C     0.98155   0.30865   0.52822   0.00000  Uiso   1.00
C104   C     0.95924   0.20161   0.53591   0.00000  Uiso   1.00
C105   C     0.89294   0.00450   0.54307   0.00000  Uiso   1.00
C106   C     0.20057   0.54064   0.55896   0.00000  Uiso   1.00
C107   C     0.12404   0.60074   0.56062   0.00000  Uiso   1.00
C108   C     0.10804   0.65070   0.57552   0.00000  Uiso   1.00
C109   C     0.03455   0.70142   0.57439   0.00000  Uiso   1.00
C110   C     0.29109   0.60784   0.54465   0.00000  Uiso   1.00
C111   C     0.41556   0.66375   0.54612   0.00000  Uiso   1.00
C112   C     0.48270   0.72043   0.53154   0.00000  Uiso   1.00
C113   C     0.11666   0.41419   0.55206   0.00000  Uiso   1.00
C114   C     0.09448   0.30729   0.55977   0.00000  Uiso   1.00
C115   C     0.01479   0.20094   0.55143   0.00000  Uiso   1.00
H116   H     0.05534   0.54239   0.51838   0.00000  Uiso   1.00
H117   H     0.95223   0.65257   0.53198   0.00000  Uiso   1.00
H118   H     0.25969   0.66560   0.50259   0.00000  Uiso   1.00
H119   H     0.93866   0.30920   0.51623   0.00000  Uiso   1.00
H120   H     0.86239   0.77447   0.55389   0.00000  Uiso   1.00
H121   H     0.51070   0.80192   0.49191   0.00000  Uiso   1.00
H122   H     0.83375   0.05038   0.52068   0.00000  Uiso   1.00
H123   H     0.24374   0.54012   0.57102   0.00000  Uiso   1.00
H124   H     0.15096   0.65017   0.58751   0.00000  Uiso   1.00
H125   H     0.45843   0.66321   0.55811   0.00000  Uiso   1.00
H126   H     0.13740   0.30681   0.57175   0.00000  Uiso   1.00
H127   H     0.02370   0.77253   0.59896   0.00000  Uiso   1.00
H128   H     0.67200   0.79997   0.53697   0.00000  Uiso   1.00
H129   H     0.99505   0.04843   0.56574   0.00000  Uiso   1.00
O130   O     0.87864   0.84597   0.58632   0.00000  Uiso   1.00
O131   O     0.72919   0.88196   0.50500   0.00000  Uiso   1.00
O132   O     0.84105   0.89596   0.54275   0.00000  Uiso   1.00
N133   N     0.91307   0.75889   0.56224   0.00000  Uiso   1.00
N134   N     0.51920   0.78457   0.50429   0.00000  Uiso   1.00
N135   N     0.88633   0.08194   0.53118   0.00000  Uiso   1.00
N136   N     0.99986   0.75784   0.58649   0.00000  Uiso   1.00
N137   N     0.60599   0.78352   0.52854   0.00000  Uiso   1.00
N138   N     0.97313   0.08089   0.55543   0.00000  Uiso   1.00
C139   C     0.54187   0.44337   0.69711   0.00000  Uiso   1.00
C140   C     0.60140   0.53282   0.71180   0.00000  Uiso   1.00
C141   C     0.65206   0.65695   0.71064   0.00000  Uiso   1.00
C142   C     0.70209   0.72308   0.72554   0.00000  Uiso   1.00
C143   C     0.79469   0.87051   0.74599   0.00000  Uiso   1.00
C144   C     0.60850   0.37285   0.69583   0.00000  Uiso   1.00
C145   C     0.66511   0.36249   0.68124   0.00000  Uiso   1.00
C146   C     0.72110   0.29395   0.68269   0.00000  Uiso   1.00
C147   C     0.82465   0.19296   0.67835   0.00000  Uiso   1.00
C148   C     0.41486   0.35365   0.70324   0.00000  Uiso   1.00
C149   C     0.30865   0.32710   0.69488   0.00000  Uiso   1.00
C150   C     0.20161   0.24237   0.70258   0.00000  Uiso   1.00
C151   C     0.00450   0.11156   0.70974   0.00000  Uiso   1.00
C152   C     0.54064   0.34006   0.72562   0.00000  Uiso   1.00
C153   C     0.60074   0.47670   0.72729   0.00000  Uiso   1.00
C154   C     0.65070   0.54266   0.74219   0.00000  Uiso   1.00
C155   C     0.70142   0.66687   0.74106   0.00000  Uiso   1.00
C156   C     0.60784   0.31674   0.71131   0.00000  Uiso   1.00
C157   C     0.66375   0.24819   0.71279   0.00000  Uiso   1.00
C158   C     0.72043   0.23773   0.69821   0.00000  Uiso   1.00
C159   C     0.41419   0.29753   0.71873   0.00000  Uiso   1.00
C160   C     0.30729   0.21281   0.72644   0.00000  Uiso   1.00
C161   C     0.20094   0.18615   0.71809   0.00000  Uiso   1.00
H162   H     0.54239   0.48705   0.68505   0.00000  Uiso   1.00
H163   H     0.65257   0.70035   0.69865   0.00000  Uiso   1.00
H164   H     0.66560   0.40591   0.66925   0.00000  Uiso   1.00
H165   H     0.30920   0.37054   0.68290   0.00000  Uiso   1.00
H166   H     0.77447   0.91208   0.72056   0.00000  Uiso   1.00
H167   H     0.80192   0.29122   0.65858   0.00000  Uiso   1.00
H168   H     0.05038   0.21663   0.68735   0.00000  Uiso   1.00
H169   H     0.54012   0.29637   0.73768   0.00000  Uiso   1.00
H170   H     0.65017   0.49921   0.75417   0.00000  Uiso   1.00
H171   H     0.66321   0.20478   0.72478   0.00000  Uiso   1.00
H172   H     0.30681   0.16941   0.73842   0.00000  Uiso   1.00
H173   H     0.77253   0.74883   0.76563   0.00000  Uiso   1.00
H174   H     0.79997   0.12797   0.70364   0.00000  Uiso   1.00
H175   H     0.04843   0.05338   0.73241   0.00000  Uiso   1.00
O176   O     0.84597   0.96733   0.75299   0.00000  Uiso   1.00
O177   O     0.88196   0.15277   0.67167   0.00000  Uiso   1.00
O178   O     0.89596   0.05492   0.70942   0.00000  Uiso   1.00
N179   N     0.75889   0.84582   0.72890   0.00000  Uiso   1.00
N180   N     0.78457   0.26537   0.67095   0.00000  Uiso   1.00
N181   N     0.08194   0.19561   0.69785   0.00000  Uiso   1.00
N182   N     0.75784   0.75798   0.75315   0.00000  Uiso   1.00
N183   N     0.78352   0.17753   0.69520   0.00000  Uiso   1.00
N184   N     0.08089   0.10777   0.72210   0.00000  Uiso   1.00
C185   C     0.55663   0.09850   0.36377   0.00000  Uiso   1.00
C186   C     0.46718   0.06859   0.37846   0.00000  Uiso   1.00
C187   C     0.34305   0.99511   0.37731   0.00000  Uiso   1.00
C188   C     0.27692   0.97901   0.39221   0.00000  Uiso   1.00
C189   C     0.12949   0.92418   0.41266   0.00000  Uiso   1.00
C190   C     0.62715   0.23565   0.36249   0.00000  Uiso   1.00
C191   C     0.63751   0.30262   0.34791   0.00000  Uiso   1.00
C192   C     0.70605   0.42716   0.34936   0.00000  Uiso   1.00
C193   C     0.80704   0.63169   0.34501   0.00000  Uiso   1.00
C194   C     0.64635   0.06122   0.36991   0.00000  Uiso   1.00
C195   C     0.67290   0.98155   0.36155   0.00000  Uiso   1.00
C196   C     0.75763   0.95924   0.36924   0.00000  Uiso   1.00
C197   C     0.88844   0.89294   0.37641   0.00000  Uiso   1.00
C198   C     0.65994   0.20057   0.39229   0.00000  Uiso   1.00
C199   C     0.52330   0.12404   0.39395   0.00000  Uiso   1.00
C200   C     0.45734   0.10804   0.40886   0.00000  Uiso   1.00
C201   C     0.33313   0.03455   0.40772   0.00000  Uiso   1.00
C202   C     0.68326   0.29109   0.37798   0.00000  Uiso   1.00
C203   C     0.75181   0.41556   0.37946   0.00000  Uiso   1.00
C204   C     0.76227   0.48270   0.36488   0.00000  Uiso   1.00
C205   C     0.70247   0.11666   0.38539   0.00000  Uiso   1.00
C206   C     0.78719   0.09448   0.39310   0.00000  Uiso   1.00
C207   C     0.81385   0.01479   0.38476   0.00000  Uiso   1.00
H208   H     0.51295   0.05534   0.35171   0.00000  Uiso   1.00
H209   H     0.29965   0.95223   0.36532   0.00000  Uiso   1.00
H210   H     0.59409   0.25969   0.33592   0.00000  Uiso   1.00
H211   H     0.62946   0.93866   0.34957   0.00000  Uiso   1.00
H212   H     0.08792   0.86239   0.38723   0.00000  Uiso   1.00
H213   H     0.70878   0.51070   0.32524   0.00000  Uiso   1.00
H214   H     0.78337   0.83375   0.35401   0.00000  Uiso   1.00
H215   H     0.70363   0.24374   0.40435   0.00000  Uiso   1.00
H216   H     0.50079   0.15096   0.42084   0.00000  Uiso   1.00
H217   H     0.79522   0.45843   0.39144   0.00000  Uiso   1.00
H218   H     0.83059   0.13740   0.40509   0.00000  Uiso   1.00
H219   H     0.25117   0.02370   0.43229   0.00000  Uiso   1.00
H220   H     0.87203   0.67200   0.37031   0.00000  Uiso   1.00
H221   H     0.94662   0.99505   0.39908   0.00000  Uiso   1.00
O222   O     0.03267   0.87864   0.41966   0.00000  Uiso   1.00
O223   O     0.84723   0.72919   0.33834   0.00000  Uiso   1.00
O224   O     0.94508   0.84105   0.37608   0.00000  Uiso   1.00
N225   N     0.15418   0.91307   0.39557   0.00000  Uiso   1.00
N226   N     0.73463   0.51920   0.33762   0.00000  Uiso   1.00
N227   N     0.80439   0.88633   0.36452   0.00000  Uiso   1.00
N228   N     0.24202   0.99986   0.41982   0.00000  Uiso   1.00
N229   N     0.82247   0.60599   0.36187   0.00000  Uiso   1.00
N230   N     0.89223   0.97313   0.38876   0.00000  Uiso   1.00
C231   C     0.90150   0.45813   0.03044   0.00000  Uiso   1.00
C232   C     0.93141   0.39860   0.04513   0.00000  Uiso   1.00
C233   C     0.00489   0.34794   0.04397   0.00000  Uiso   1.00
C234   C     0.02099   0.29791   0.05887   0.00000  Uiso   1.00
C235   C     0.07582   0.20531   0.07932   0.00000  Uiso   1.00
C236   C     0.76435   0.39150   0.02916   0.00000  Uiso   1.00
C237   C     0.69738   0.33489   0.01457   0.00000  Uiso   1.00
C238   C     0.57284   0.27890   0.01603   0.00000  Uiso   1.00
C239   C     0.36831   0.17535   0.01168   0.00000  Uiso   1.00
C240   C     0.93878   0.58514   0.03657   0.00000  Uiso   1.00
C241   C     0.01845   0.69135   0.02822   0.00000  Uiso   1.00
C242   C     0.04076   0.79839   0.03591   0.00000  Uiso   1.00
C243   C     0.10706   0.99550   0.04307   0.00000  Uiso   1.00
C244   C     0.79943   0.45936   0.05896   0.00000  Uiso   1.00
C245   C     0.87596   0.39926   0.06062   0.00000  Uiso   1.00
C246   C     0.89196   0.34930   0.07552   0.00000  Uiso   1.00
C247   C     0.96545   0.29858   0.07439   0.00000  Uiso   1.00
C248   C     0.70891   0.39216   0.04465   0.00000  Uiso   1.00
C249   C     0.58444   0.33625   0.04612   0.00000  Uiso   1.00
C250   C     0.51730   0.27957   0.03154   0.00000  Uiso   1.00
C251   C     0.88334   0.58581   0.05206   0.00000  Uiso   1.00
C252   C     0.90552   0.69271   0.05977   0.00000  Uiso   1.00
C253   C     0.98521   0.79906   0.05143   0.00000  Uiso   1.00
H254   H     0.94466   0.45761   0.01838   0.00000  Uiso   1.00
H255   H     0.04777   0.34743   0.03198   0.00000  Uiso   1.00
H256   H     0.74031   0.33440   0.00259   0.00000  Uiso   1.00
H257   H     0.06134   0.69080   0.01623   0.00000  Uiso   1.00
H258   H     0.13761   0.22553   0.05389   0.00000  Uiso   1.00
H259   H     0.48930   0.19808   0.99191   0.00000  Uiso   1.00
H260   H     0.16625   0.94962   0.02068   0.00000  Uiso   1.00
H261   H     0.75626   0.45988   0.07102   0.00000  Uiso   1.00
H262   H     0.84904   0.34983   0.08751   0.00000  Uiso   1.00
H263   H     0.54157   0.33679   0.05811   0.00000  Uiso   1.00
H264   H     0.86260   0.69319   0.07175   0.00000  Uiso   1.00
H265   H     0.97630   0.22747   0.09896   0.00000  Uiso   1.00
H266   H     0.32800   0.20003   0.03697   0.00000  Uiso   1.00
H267   H     0.00495   0.95157   0.06574   0.00000  Uiso   1.00
O268   O     0.12136   0.15403   0.08632   0.00000  Uiso   1.00
O269   O     0.27081   0.11804   0.00500   0.00000  Uiso   1.00
O270   O     0.15895   0.10404   0.04275   0.00000  Uiso   1.00
N271   N     0.08693   0.24111   0.06224   0.00000  Uiso   1.00
N272   N     0.48080   0.21543   0.00429   0.00000  Uiso   1.00
N273   N     0.11367   0.91806   0.03118   0.00000  Uiso   1.00
N274   N     0.00014   0.24216   0.08649   0.00000  Uiso   1.00
N275   N     0.39401   0.21648   0.02854   0.00000  Uiso   1.00
N276   N     0.02687   0.91911   0.05543   0.00000  Uiso   1.00
C277   C     0.55663   0.45813   0.46956   0.00000  Uiso   1.00
C278   C     0.46718   0.39860   0.45487   0.00000  Uiso   1.00
C279   C     0.34305   0.34794   0.45603   0.00000  Uiso   1.00
C280   C     0.27692   0.29791   0.44113   0.00000  Uiso   1.00
C281   C     0.12949   0.20531   0.42068   0.00000  Uiso   1.00
C282   C     0.62715   0.39150   0.47084   0.00000  Uiso   1.00
C283   C     0.63751   0.33489   0.48543   0.00000  Uiso   1.00
C284   C     0.70605   0.27890   0.48397   0.00000  Uiso   1.00
C285   C     0.80704   0.17535   0.48832   0.00000  Uiso   1.00
C286   C     0.64635   0.58514   0.46343   0.00000  Uiso   1.00
C287   C     0.67290   0.69135   0.47178   0.00000  Uiso   1.00
C288   C     0.75763   0.79839   0.46409   0.00000  Uiso   1.00
C289   C     0.88844   0.99550   0.45693   0.00000  Uiso   1.00
C290   C     0.65994   0.45936   0.44104   0.00000  Uiso   1.00
C291   C     0.52330   0.39926   0.43938   0.00000  Uiso   1.00
C292   C     0.45734   0.34930   0.42448   0.00000  Uiso   1.00
C293   C     0.33313   0.29858   0.42561   0.00000  Uiso   1.00
C294   C     0.68326   0.39216   0.45535   0.00000  Uiso   1.00
C295   C     0.75181   0.33625   0.45388   0.00000  Uiso   1.00
C296   C     0.76227   0.27957   0.46846   0.00000  Uiso   1.00
C297   C     0.70247   0.58581   0.44794   0.00000  Uiso   1.00
C298   C     0.78719   0.69271   0.44023   0.00000  Uiso   1.00
C299   C     0.81385   0.79906   0.44857   0.00000  Uiso   1.00
H300   H     0.51295   0.45761   0.48162   0.00000  Uiso   1.00
H301   H     0.29965   0.34743   0.46802   0.00000  Uiso   1.00
H302   H     0.59409   0.33440   0.49741   0.00000  Uiso   1.00
H303   H     0.62946   0.69080   0.48377   0.00000  Uiso   1.00
H304   H     0.08792   0.22553   0.44611   0.00000  Uiso   1.00
H305   H     0.70878   0.19808   0.50809   0.00000  Uiso   1.00
H306   H     0.78337   0.94962   0.47932   0.00000  Uiso   1.00
H307   H     0.70363   0.45988   0.42898   0.00000  Uiso   1.00
H308   H     0.50079   0.34983   0.41249   0.00000  Uiso   1.00
H309   H     0.79522   0.33679   0.44189   0.00000  Uiso   1.00
H310   H     0.83059   0.69319   0.42825   0.00000  Uiso   1.00
H311   H     0.25117   0.22747   0.40104   0.00000  Uiso   1.00
H312   H     0.87203   0.20003   0.46303   0.00000  Uiso   1.00
H313   H     0.94662   0.95157   0.43426   0.00000  Uiso   1.00
O314   O     0.03267   0.15403   0.41368   0.00000  Uiso   1.00
O315   O     0.84723   0.11804   0.49500   0.00000  Uiso   1.00
O316   O     0.94508   0.10404   0.45725   0.00000  Uiso   1.00
N317   N     0.15418   0.24111   0.43776   0.00000  Uiso   1.00
N318   N     0.73463   0.21543   0.49571   0.00000  Uiso   1.00
N319   N     0.80439   0.91806   0.46882   0.00000  Uiso   1.00
N320   N     0.24202   0.24216   0.41351   0.00000  Uiso   1.00
N321   N     0.82247   0.21648   0.47146   0.00000  Uiso   1.00
N322   N     0.89223   0.91911   0.44457   0.00000  Uiso   1.00
C323   C     0.90150   0.44337   0.80289   0.00000  Uiso   1.00
C324   C     0.93141   0.53282   0.78820   0.00000  Uiso   1.00
C325   C     0.00489   0.65695   0.78936   0.00000  Uiso   1.00
C326   C     0.02099   0.72308   0.77446   0.00000  Uiso   1.00
C327   C     0.07582   0.87051   0.75401   0.00000  Uiso   1.00
C328   C     0.76435   0.37285   0.80417   0.00000  Uiso   1.00
C329   C     0.69738   0.36249   0.81876   0.00000  Uiso   1.00
C330   C     0.57284   0.29395   0.81731   0.00000  Uiso   1.00
C331   C     0.36831   0.19296   0.82165   0.00000  Uiso   1.00
C332   C     0.93878   0.35365   0.79676   0.00000  Uiso   1.00
C333   C     0.01845   0.32710   0.80512   0.00000  Uiso   1.00
C334   C     0.04076   0.24237   0.79742   0.00000  Uiso   1.00
C335   C     0.10706   0.11156   0.79026   0.00000  Uiso   1.00
C336   C     0.79943   0.34006   0.77438   0.00000  Uiso   1.00
C337   C     0.87596   0.47670   0.77271   0.00000  Uiso   1.00
C338   C     0.89196   0.54266   0.75781   0.00000  Uiso   1.00
C339   C     0.96545   0.66687   0.75894   0.00000  Uiso   1.00
C340   C     0.70891   0.31674   0.78869   0.00000  Uiso   1.00
C341   C     0.58444   0.24819   0.78721   0.00000  Uiso   1.00
C342   C     0.51730   0.23773   0.80179   0.00000  Uiso   1.00
C343   C     0.88334   0.29753   0.78127   0.00000  Uiso   1.00
C344   C     0.90552   0.21281   0.77356   0.00000  Uiso   1.00
C345   C     0.98521   0.18615   0.78191   0.00000  Uiso   1.00
H346   H     0.94466   0.48705   0.81495   0.00000  Uiso   1.00
H347   H     0.04777   0.70035   0.80135   0.00000  Uiso   1.00
H348   H     0.74031   0.40591   0.83075   0.00000  Uiso   1.00
H349   H     0.06134   0.37054   0.81710   0.00000  Uiso   1.00
H350   H     0.13761   0.91208   0.77944   0.00000  Uiso   1.00
H351   H     0.48930   0.29122   0.84142   0.00000  Uiso   1.00
H352   H     0.16625   0.21663   0.81265   0.00000  Uiso   1.00
H353   H     0.75626   0.29637   0.76232   0.00000  Uiso   1.00
H354   H     0.84904   0.49921   0.74583   0.00000  Uiso   1.00
H355   H     0.54157   0.20478   0.77522   0.00000  Uiso   1.00
H356   H     0.86260   0.16941   0.76158   0.00000  Uiso   1.00
H357   H     0.97630   0.74883   0.73437   0.00000  Uiso   1.00
H358   H     0.32800   0.12797   0.79636   0.00000  Uiso   1.00
H359   H     0.00495   0.05338   0.76759   0.00000  Uiso   1.00
O360   O     0.12136   0.96733   0.74701   0.00000  Uiso   1.00
O361   O     0.27081   0.15277   0.82833   0.00000  Uiso   1.00
O362   O     0.15895   0.05492   0.79058   0.00000  Uiso   1.00
N363   N     0.08693   0.84582   0.77110   0.00000  Uiso   1.00
N364   N     0.48080   0.26537   0.82905   0.00000  Uiso   1.00
N365   N     0.11367   0.19561   0.80215   0.00000  Uiso   1.00
N366   N     0.00014   0.75798   0.74685   0.00000  Uiso   1.00
N367   N     0.39401   0.17753   0.80480   0.00000  Uiso   1.00
N368   N     0.02687   0.10777   0.77790   0.00000  Uiso   1.00
C369   C     0.54187   0.09850   0.13623   0.00000  Uiso   1.00
C370   C     0.60140   0.06859   0.12154   0.00000  Uiso   1.00
C371   C     0.65206   0.99511   0.12269   0.00000  Uiso   1.00
C372   C     0.70209   0.97901   0.10779   0.00000  Uiso   1.00
C373   C     0.79469   0.92418   0.08734   0.00000  Uiso   1.00
C374   C     0.60850   0.23565   0.13751   0.00000  Uiso   1.00
C375   C     0.66511   0.30262   0.15209   0.00000  Uiso   1.00
C376   C     0.72110   0.42716   0.15064   0.00000  Uiso   1.00
C377   C     0.82465   0.63169   0.15499   0.00000  Uiso   1.00
C378   C     0.41486   0.06122   0.13009   0.00000  Uiso   1.00
C379   C     0.30865   0.98155   0.13845   0.00000  Uiso   1.00
C380   C     0.20161   0.95924   0.13076   0.00000  Uiso   1.00
C381   C     0.00450   0.89294   0.12359   0.00000  Uiso   1.00
C382   C     0.54064   0.20057   0.10771   0.00000  Uiso   1.00
C383   C     0.60074   0.12404   0.10605   0.00000  Uiso   1.00
C384   C     0.65070   0.10804   0.09114   0.00000  Uiso   1.00
C385   C     0.70142   0.03455   0.09228   0.00000  Uiso   1.00
C386   C     0.60784   0.29109   0.12202   0.00000  Uiso   1.00
C387   C     0.66375   0.41556   0.12054   0.00000  Uiso   1.00
C388   C     0.72043   0.48270   0.13512   0.00000  Uiso   1.00
C389   C     0.41419   0.11666   0.11461   0.00000  Uiso   1.00
C390   C     0.30729   0.09448   0.10690   0.00000  Uiso   1.00
C391   C     0.20094   0.01479   0.11524   0.00000  Uiso   1.00
H392   H     0.54239   0.05534   0.14829   0.00000  Uiso   1.00
H393   H     0.65257   0.95223   0.13468   0.00000  Uiso   1.00
H394   H     0.66560   0.25969   0.16408   0.00000  Uiso   1.00
H395   H     0.30920   0.93866   0.15043   0.00000  Uiso   1.00
H396   H     0.77447   0.86239   0.11277   0.00000  Uiso   1.00
H397   H     0.80192   0.51070   0.17476   0.00000  Uiso   1.00
H398   H     0.05038   0.83375   0.14599   0.00000  Uiso   1.00
H399   H     0.54012   0.24374   0.09565   0.00000  Uiso   1.00
H400   H     0.65017   0.15096   0.07916   0.00000  Uiso   1.00
H401   H     0.66321   0.45843   0.10856   0.00000  Uiso   1.00
H402   H     0.30681   0.13740   0.09491   0.00000  Uiso   1.00
H403   H     0.77253   0.02370   0.06771   0.00000  Uiso   1.00
H404   H     0.79997   0.67200   0.12969   0.00000  Uiso   1.00
H405   H     0.04843   0.99505   0.10092   0.00000  Uiso   1.00
O406   O     0.84597   0.87864   0.08034   0.00000  Uiso   1.00
O407   O     0.88196   0.72919   0.16166   0.00000  Uiso   1.00
O408   O     0.89596   0.84105   0.12392   0.00000  Uiso   1.00
N409   N     0.75889   0.91307   0.10443   0.00000  Uiso   1.00
N410   N     0.78457   0.51920   0.16238   0.00000  Uiso   1.00
N411   N     0.08194   0.88633   0.13548   0.00000  Uiso   1.00
N412   N     0.75784   0.99986   0.08018   0.00000  Uiso   1.00
N413   N     0.78352   0.60599   0.13813   0.00000  Uiso   1.00
N414   N     0.08089   0.97313   0.11124   0.00000  Uiso   1.00
C415   C     0.44337   0.54187   0.96956   0.00000  Uiso   1.00
C416   C     0.53282   0.60140   0.95487   0.00000  Uiso   1.00
C417   C     0.65695   0.65206   0.95603   0.00000  Uiso   1.00
C418   C     0.72308   0.70209   0.94113   0.00000  Uiso   1.00
C419   C     0.87051   0.79469   0.92068   0.00000  Uiso   1.00
C420   C     0.37285   0.60850   0.97084   0.00000  Uiso   1.00
C421   C     0.36249   0.66511   0.98543   0.00000  Uiso   1.00
C422   C     0.29395   0.72110   0.98397   0.00000  Uiso   1.00
C423   C     0.19296   0.82465   0.98832   0.00000  Uiso   1.00
C424   C     0.35365   0.41486   0.96343   0.00000  Uiso   1.00
C425   C     0.32710   0.30865   0.97178   0.00000  Uiso   1.00
C426   C     0.24237   0.20161   0.96409   0.00000  Uiso   1.00
C427   C     0.11156   0.00450   0.95693   0.00000  Uiso   1.00
C428   C     0.34006   0.54064   0.94104   0.00000  Uiso   1.00
C429   C     0.47670   0.60074   0.93938   0.00000  Uiso   1.00
C430   C     0.54266   0.65070   0.92448   0.00000  Uiso   1.00
C431   C     0.66687   0.70142   0.92561   0.00000  Uiso   1.00
C432   C     0.31674   0.60784   0.95535   0.00000  Uiso   1.00
C433   C     0.24819   0.66375   0.95388   0.00000  Uiso   1.00
C434   C     0.23773   0.72043   0.96846   0.00000  Uiso   1.00
C435   C     0.29753   0.41419   0.94794   0.00000  Uiso   1.00
C436   C     0.21281   0.30729   0.94023   0.00000  Uiso   1.00
C437   C     0.18615   0.20094   0.94857   0.00000  Uiso   1.00
H438   H     0.48705   0.54239   0.98162   0.00000  Uiso   1.00
H439   H     0.70035   0.65257   0.96802   0.00000  Uiso   1.00
H440   H     0.40591   0.66560   0.99741   0.00000  Uiso   1.00
H441   H     0.37054   0.30920   0.98377   0.00000  Uiso   1.00
H442   H     0.91208   0.77447   0.94611   0.00000  Uiso   1.00
H443   H     0.29122   0.80192   0.00809   0.00000  Uiso   1.00
H444   H     0.21663   0.05038   0.97932   0.00000  Uiso   1.00
H445   H     0.29637   0.54012   0.92898   0.00000  Uiso   1.00
H446   H     0.49921   0.65017   0.91249   0.00000  Uiso   1.00
H447   H     0.20478   0.66321   0.94189   0.00000  Uiso   1.00
H448   H     0.16941   0.30681   0.92825   0.00000  Uiso   1.00
H449   H     0.74883   0.77253   0.90104   0.00000  Uiso   1.00
H450   H     0.12797   0.79997   0.96303   0.00000  Uiso   1.00
H451   H     0.05338   0.04843   0.93426   0.00000  Uiso   1.00
O452   O     0.96733   0.84597   0.91368   0.00000  Uiso   1.00
O453   O     0.15277   0.88196   0.99500   0.00000  Uiso   1.00
O454   O     0.05492   0.89596   0.95725   0.00000  Uiso   1.00
N455   N     0.84582   0.75889   0.93776   0.00000  Uiso   1.00
N456   N     0.26537   0.78457   0.99571   0.00000  Uiso   1.00
N457   N     0.19561   0.08194   0.96882   0.00000  Uiso   1.00
N458   N     0.75798   0.75784   0.91351   0.00000  Uiso   1.00
N459   N     0.17753   0.78352   0.97146   0.00000  Uiso   1.00
N460   N     0.10777   0.08089   0.94457   0.00000  Uiso   1.00
C461   C     0.09850   0.55663   0.30289   0.00000  Uiso   1.00
C462   C     0.06859   0.46718   0.28820   0.00000  Uiso   1.00
C463   C     0.99511   0.34305   0.28936   0.00000  Uiso   1.00
C464   C     0.97901   0.27692   0.27446   0.00000  Uiso   1.00
C465   C     0.92418   0.12949   0.25401   0.00000  Uiso   1.00
C466   C     0.23565   0.62715   0.30417   0.00000  Uiso   1.00
C467   C     0.30262   0.63751   0.31876   0.00000  Uiso   1.00
C468   C     0.42716   0.70605   0.31731   0.00000  Uiso   1.00
C469   C     0.63169   0.80704   0.32165   0.00000  Uiso   1.00
C470   C     0.06122   0.64635   0.29676   0.00000  Uiso   1.00
C471   C     0.98155   0.67290   0.30512   0.00000  Uiso   1.00
C472   C     0.95924   0.75763   0.29742   0.00000  Uiso   1.00
C473   C     0.89294   0.88844   0.29026   0.00000  Uiso   1.00
C474   C     0.20057   0.65994   0.27438   0.00000  Uiso   1.00
C475   C     0.12404   0.52330   0.27271   0.00000  Uiso   1.00
C476   C     0.10804   0.45734   0.25781   0.00000  Uiso   1.00
C477   C     0.03455   0.33313   0.25894   0.00000  Uiso   1.00
C478   C     0.29109   0.68326   0.28869   0.00000  Uiso   1.00
C479   C     0.41556   0.75181   0.28721   0.00000  Uiso   1.00
C480   C     0.48270   0.76227   0.30179   0.00000  Uiso   1.00
C481   C     0.11666   0.70247   0.28127   0.00000  Uiso   1.00
C482   C     0.09448   0.78719   0.27356   0.00000  Uiso   1.00
C483   C     0.01479   0.81385   0.28191   0.00000  Uiso   1.00
H484   H     0.05534   0.51295   0.31495   0.00000  Uiso   1.00
H485   H     0.95223   0.29965   0.30135   0.00000  Uiso   1.00
H486   H     0.25969   0.59409   0.33075   0.00000  Uiso   1.00
H487   H     0.93866   0.62946   0.31710   0.00000  Uiso   1.00
H488   H     0.86239   0.08792   0.27944   0.00000  Uiso   1.00
H489   H     0.51070   0.70878   0.34142   0.00000  Uiso   1.00
H490   H     0.83375   0.78337   0.31265   0.00000  Uiso   1.00
H491   H     0.24374   0.70363   0.26232   0.00000  Uiso   1.00
H492   H     0.15096   0.50079   0.24583   0.00000  Uiso   1.00
H493   H     0.45843   0.79522   0.27522   0.00000  Uiso   1.00
H494   H     0.13740   0.83059   0.26158   0.00000  Uiso   1.00
H495   H     0.02370   0.25117   0.23437   0.00000  Uiso   1.00
H496   H     0.67200   0.87203   0.29636   0.00000  Uiso   1.00
H497   H     0.99505   0.94662   0.26759   0.00000  Uiso   1.00
O498   O     0.87864   0.03267   0.24701   0.00000  Uiso   1.00
O499   O     0.72919   0.84723   0.32833   0.00000  Uiso   1.00
O500   O     0.84105   0.94508   0.29058   0.00000  Uiso   1.00
N501   N     0.91307   0.15418   0.27110   0.00000  Uiso   1.00
N502   N     0.51920   0.73463   0.32905   0.00000  Uiso   1.00
N503   N     0.88633   0.80439   0.30215   0.00000  Uiso   1.00
N504   N     0.99986   0.24202   0.24685   0.00000  Uiso   1.00
N505   N     0.60599   0.82247   0.30480   0.00000  Uiso   1.00
N506   N     0.97313   0.89223   0.27790   0.00000  Uiso   1.00
C507   C     0.45813   0.90150   0.63623   0.00000  Uiso   1.00
C508   C     0.39860   0.93141   0.62154   0.00000  Uiso   1.00
C509   C     0.34794   0.00489   0.62269   0.00000  Uiso   1.00
C510   C     0.29791   0.02099   0.60779   0.00000  Uiso   1.00
C511   C     0.20531   0.07582   0.58734   0.00000  Uiso   1.00
C512   C     0.39150   0.76435   0.63751   0.00000  Uiso   1.00
C513   C     0.33489   0.69738   0.65209   0.00000  Uiso   1.00
C514   C     0.27890   0.57284   0.65064   0.00000  Uiso   1.00
C515   C     0.17535   0.36831   0.65499   0.00000  Uiso   1.00
C516   C     0.58514   0.93878   0.63009   0.00000  Uiso   1.00
C517   C     0.69135   0.01845   0.63845   0.00000  Uiso   1.00
C518   C     0.79839   0.04076   0.63076   0.00000  Uiso   1.00
C519   C     0.99550   0.10706   0.62359   0.00000  Uiso   1.00
C520   C     0.45936   0.79943   0.60771   0.00000  Uiso   1.00
C521   C     0.39926   0.87596   0.60605   0.00000  Uiso   1.00
C522   C     0.34930   0.89196   0.59114   0.00000  Uiso   1.00
C523   C     0.29858   0.96545   0.59228   0.00000  Uiso   1.00
C524   C     0.39216   0.70891   0.62202   0.00000  Uiso   1.00
C525   C     0.33625   0.58444   0.62054   0.00000  Uiso   1.00
C526   C     0.27957   0.51730   0.63512   0.00000  Uiso   1.00
C527   C     0.58581   0.88334   0.61461   0.00000  Uiso   1.00
C528   C     0.69271   0.90552   0.60690   0.00000  Uiso   1.00
C529   C     0.79906   0.98521   0.61524   0.00000  Uiso   1.00
H530   H     0.45761   0.94466   0.64829   0.00000  Uiso   1.00
H531   H     0.34743   0.04777   0.63468   0.00000  Uiso   1.00
H532   H     0.33440   0.74031   0.66408   0.00000  Uiso   1.00
H533   H     0.69080   0.06134   0.65043   0.00000  Uiso   1.00
H534   H     0.22553   0.13761   0.61277   0.00000  Uiso   1.00
H535   H     0.19808   0.48930   0.67476   0.00000  Uiso   1.00
H536   H     0.94962   0.16625   0.64599   0.00000  Uiso   1.00
H537   H     0.45988   0.75626   0.59565   0.00000  Uiso   1.00
H538   H     0.34983   0.84904   0.57916   0.00000  Uiso   1.00
H539   H     0.33679   0.54157   0.60856   0.00000  Uiso   1.00
H540   H     0.69319   0.86260   0.59491   0.00000  Uiso   1.00
H541   H     0.22747   0.97630   0.56771   0.00000  Uiso   1.00
H542   H     0.20003   0.32800   0.62969   0.00000  Uiso   1.00
H543   H     0.95157   0.00495   0.60092   0.00000  Uiso   1.00
O544   O     0.15403   0.12136   0.58034   0.00000  Uiso   1.00
O545   O     0.11804   0.27081   0.66166   0.00000  Uiso   1.00
O546   O     0.10404   0.15895   0.62392   0.00000  Uiso   1.00
N547   N     0.24111   0.08693   0.60443   0.00000  Uiso   1.00
N548   N     0.21543   0.48080   0.66238   0.00000  Uiso   1.00
N549   N     0.91806   0.11367   0.63548   0.00000  Uiso   1.00
N550   N     0.24216   0.00014   0.58018   0.00000  Uiso   1.00
N551   N     0.21648   0.39401   0.63813   0.00000  Uiso   1.00
N552   N     0.91911   0.02687   0.61124   0.00000  Uiso   1.00
