data_job_06469
_audit_creation_date              2018-12-19
_audit_creation_method            'Materials Studio'
_symmetry_space_group_name_H-M    'P1'
_symmetry_Int_Tables_number       1
_symmetry_cell_setting            triclinic
loop_
_symmetry_equiv_pos_as_xyz
  x,y,z
_cell_length_a                    20.3352
_cell_length_b                    20.4997
_cell_length_c                    21.0430
_cell_angle_alpha                 112.2348
_cell_angle_beta                  97.3532
_cell_angle_gamma                 68.7168
loop_
_atom_site_label
_atom_site_type_symbol
_atom_site_fract_x
_atom_site_fract_y
_atom_site_fract_z
_atom_site_U_iso_or_equiv
_atom_site_adp_type
_atom_site_occupancy
C1     C     0.53182   0.06827   0.22021   0.00000  Uiso   1.00
C2     C     0.57066   0.08948   0.28771   0.00000  Uiso   1.00
C3     C     0.58533   0.05360   0.33475   0.00000  Uiso   1.00
C4     C     0.62139   0.08154   0.39340   0.00000  Uiso   1.00
C5     C     0.67853   0.10514   0.49654   0.00000  Uiso   1.00
C6     C     0.46947   0.13872   0.22279   0.00000  Uiso   1.00
C7     C     0.39906   0.14423   0.21524   0.00000  Uiso   1.00
C8     C     0.34994   0.21363   0.21924   0.00000  Uiso   1.00
C9     C     0.24999   0.31365   0.22154   0.00000  Uiso   1.00
C10    C     0.58134   0.05433   0.16419   0.00000  Uiso   1.00
C11    C     0.60498   0.98889   0.10735   0.00000  Uiso   1.00
C12    C     0.65003   0.98724   0.06200   0.00000  Uiso   1.00
C13    C     0.72377   0.95624   0.97331   0.00000  Uiso   1.00
C14    C     0.56979   0.18170   0.24074   0.00000  Uiso   1.00
C15    C     0.59128   0.15110   0.29886   0.00000  Uiso   1.00
C16    C     0.62733   0.17910   0.35746   0.00000  Uiso   1.00
C17    C     0.64205   0.14327   0.40458   0.00000  Uiso   1.00
C18    C     0.49009   0.20034   0.23395   0.00000  Uiso   1.00
C19    C     0.44106   0.26974   0.23795   0.00000  Uiso   1.00
C20    C     0.37060   0.27535   0.23041   0.00000  Uiso   1.00
C21    C     0.60196   0.11595   0.17534   0.00000  Uiso   1.00
C22    C     0.64698   0.11440   0.13007   0.00000  Uiso   1.00
C23    C     0.67069   0.04897   0.07317   0.00000  Uiso   1.00
H24    H     0.51576   0.02030   0.21152   0.00000  Uiso   1.00
H25    H     0.56936   0.00592   0.32610   0.00000  Uiso   1.00
H26    H     0.38312   0.09654   0.20660   0.00000  Uiso   1.00
H27    H     0.58901   0.94123   0.09873   0.00000  Uiso   1.00
H28    H     0.63784   0.01717   0.45806   0.00000  Uiso   1.00
H29    H     0.24516   0.20824   0.20606   0.00000  Uiso   1.00
H30    H     0.67931   0.88073   0.97860   0.00000  Uiso   1.00
H31    H     0.58584   0.22968   0.24942   0.00000  Uiso   1.00
H32    H     0.64328   0.22679   0.36608   0.00000  Uiso   1.00
H33    H     0.45704   0.31740   0.24658   0.00000  Uiso   1.00
H34    H     0.66293   0.16209   0.13872   0.00000  Uiso   1.00
H35    H     0.69784   0.19643   0.49051   0.00000  Uiso   1.00
H36    H     0.30515   0.38750   0.23851   0.00000  Uiso   1.00
H37    H     0.73931   0.05999   0.01106   0.00000  Uiso   1.00
O38    O     0.70434   0.10114   0.55035   0.00000  Uiso   1.00
O39    O     0.18915   0.35180   0.21973   0.00000  Uiso   1.00
O40    O     0.75875   0.92212   0.92132   0.00000  Uiso   1.00
N41    N     0.64409   0.05975   0.44968   0.00000  Uiso   1.00
N42    N     0.27695   0.23839   0.21409   0.00000  Uiso   1.00
N43    N     0.68283   0.93220   0.00143   0.00000  Uiso   1.00
N44    N     0.67638   0.15621   0.46714   0.00000  Uiso   1.00
N45    N     0.30924   0.33484   0.23155   0.00000  Uiso   1.00
N46    N     0.71512   0.02866   0.01889   0.00000  Uiso   1.00
C47    C     0.51043   0.39337   0.60833   0.00000  Uiso   1.00
C48    C     0.49800   0.32282   0.60409   0.00000  Uiso   1.00
C49    C     0.54983   0.25739   0.60661   0.00000  Uiso   1.00
C50    C     0.52770   0.19914   0.60189   0.00000  Uiso   1.00
C51    C     0.51927   0.08851   0.59634   0.00000  Uiso   1.00
C52    C     0.47808   0.40894   0.54380   0.00000  Uiso   1.00
C53    C     0.51317   0.41594   0.49564   0.00000  Uiso   1.00
C54    C     0.47426   0.43020   0.44017   0.00000  Uiso   1.00
C55    C     0.43490   0.45334   0.34104   0.00000  Uiso   1.00
C56    C     0.46510   0.45717   0.66827   0.00000  Uiso   1.00
C57    C     0.48926   0.50474   0.72475   0.00000  Uiso   1.00
C58    C     0.43941   0.55961   0.77407   0.00000  Uiso   1.00
C59    C     0.37989   0.65764   0.86820   0.00000  Uiso   1.00
C60    C     0.37895   0.40626   0.59546   0.00000  Uiso   1.00
C61    C     0.42659   0.32982   0.59710   0.00000  Uiso   1.00
C62    C     0.40437   0.27165   0.59238   0.00000  Uiso   1.00
C63    C     0.45616   0.20615   0.59489   0.00000  Uiso   1.00
C64    C     0.40667   0.41594   0.53681   0.00000  Uiso   1.00
C65    C     0.36770   0.43020   0.48140   0.00000  Uiso   1.00
C66    C     0.40272   0.43721   0.43316   0.00000  Uiso   1.00
C67    C     0.39368   0.46417   0.66128   0.00000  Uiso   1.00
C68    C     0.34379   0.51899   0.71052   0.00000  Uiso   1.00
C69    C     0.36787   0.56663   0.76707   0.00000  Uiso   1.00
H70    H     0.56603   0.38792   0.61376   0.00000  Uiso   1.00
H71    H     0.60510   0.25199   0.61201   0.00000  Uiso   1.00
H72    H     0.56843   0.41053   0.50106   0.00000  Uiso   1.00
H73    H     0.54452   0.49930   0.73014   0.00000  Uiso   1.00
H74    H     0.61692   0.10437   0.60696   0.00000  Uiso   1.00
H75    H     0.53961   0.43868   0.37303   0.00000  Uiso   1.00
H76    H     0.48919   0.62588   0.85609   0.00000  Uiso   1.00
H77    H     0.32335   0.41171   0.59002   0.00000  Uiso   1.00
H78    H     0.34910   0.27708   0.58697   0.00000  Uiso   1.00
H79    H     0.31244   0.43562   0.47601   0.00000  Uiso   1.00
H80    H     0.28853   0.52439   0.70509   0.00000  Uiso   1.00
H81    H     0.40915   0.12473   0.58663   0.00000  Uiso   1.00
H82    H     0.33183   0.45904   0.35270   0.00000  Uiso   1.00
H83    H     0.28142   0.64624   0.83576   0.00000  Uiso   1.00
O84    O     0.53435   0.02555   0.59520   0.00000  Uiso   1.00
O85    O     0.43292   0.46416   0.28829   0.00000  Uiso   1.00
O86    O     0.36678   0.70976   0.92206   0.00000  Uiso   1.00
N87    N     0.56449   0.12764   0.60261   0.00000  Uiso   1.00
N88    N     0.49220   0.44019   0.38389   0.00000  Uiso   1.00
N89    N     0.44507   0.61522   0.83550   0.00000  Uiso   1.00
N90    N     0.45268   0.13860   0.59167   0.00000  Uiso   1.00
N91    N     0.38040   0.45114   0.37295   0.00000  Uiso   1.00
N92    N     0.33327   0.62617   0.82456   0.00000  Uiso   1.00
C93    C     0.14996   0.22382   0.46525   0.00000  Uiso   1.00
C94    C     0.20601   0.15353   0.42016   0.00000  Uiso   1.00
C95    C     0.26347   0.10661   0.44347   0.00000  Uiso   1.00
C96    C     0.30873   0.04516   0.39404   0.00000  Uiso   1.00
C97    C     0.39758   0.93816   0.33472   0.00000  Uiso   1.00
C98    C     0.14958   0.28771   0.44462   0.00000  Uiso   1.00
C99    C     0.15960   0.35359   0.48851   0.00000  Uiso   1.00
C100   C     0.15735   0.40510   0.45967   0.00000  Uiso   1.00
C101   C     0.15855   0.50643   0.43833   0.00000  Uiso   1.00
C102   C     0.07933   0.21263   0.44238   0.00000  Uiso   1.00
C103   C     0.03027   0.21542   0.48439   0.00000  Uiso   1.00
C104   C     0.96887   0.20373   0.45366   0.00000  Uiso   1.00
C105   C     0.86100   0.18850   0.42885   0.00000  Uiso   1.00
C106   C     0.12814   0.19814   0.33600   0.00000  Uiso   1.00
C107   C     0.19416   0.13958   0.34996   0.00000  Uiso   1.00
C108   C     0.23934   0.07819   0.30048   0.00000  Uiso   1.00
C109   C     0.29686   0.03118   0.32371   0.00000  Uiso   1.00
C110   C     0.13774   0.27376   0.37443   0.00000  Uiso   1.00
C111   C     0.13547   0.32518   0.34551   0.00000  Uiso   1.00
C112   C     0.14548   0.39112   0.38934   0.00000  Uiso   1.00
C113   C     0.06749   0.19868   0.37218   0.00000  Uiso   1.00
C114   C     0.00614   0.18700   0.34139   0.00000  Uiso   1.00
C115   C     0.95700   0.18976   0.38333   0.00000  Uiso   1.00
H116   H     0.15918   0.23469   0.51990   0.00000  Uiso   1.00
H117   H     0.27262   0.11743   0.49781   0.00000  Uiso   1.00
H118   H     0.16876   0.36438   0.54283   0.00000  Uiso   1.00
H119   H     0.03946   0.22622   0.53871   0.00000  Uiso   1.00
H120   H     0.39319   0.98128   0.44235   0.00000  Uiso   1.00
H121   H     0.17416   0.50200   0.53730   0.00000  Uiso   1.00
H122   H     0.90150   0.21067   0.52860   0.00000  Uiso   1.00
H123   H     0.11892   0.18728   0.28135   0.00000  Uiso   1.00
H124   H     0.23016   0.06741   0.24616   0.00000  Uiso   1.00
H125   H     0.12629   0.31436   0.29119   0.00000  Uiso   1.00
H126   H     0.99699   0.17620   0.28706   0.00000  Uiso   1.00
H127   H     0.35872   0.94068   0.23811   0.00000  Uiso   1.00
H128   H     0.13969   0.46141   0.33305   0.00000  Uiso   1.00
H129   H     0.86703   0.17007   0.32436   0.00000  Uiso   1.00
O130   O     0.44987   0.88300   0.32139   0.00000  Uiso   1.00
O131   O     0.16250   0.56617   0.44596   0.00000  Uiso   1.00
O132   O     0.80478   0.18394   0.43455   0.00000  Uiso   1.00
N133   N     0.36980   0.98817   0.39911   0.00000  Uiso   1.00
N134   N     0.16503   0.47501   0.48788   0.00000  Uiso   1.00
N135   N     0.91011   0.20265   0.47975   0.00000  Uiso   1.00
N136   N     0.35126   0.96632   0.28921   0.00000  Uiso   1.00
N137   N     0.14649   0.45316   0.37797   0.00000  Uiso   1.00
N138   N     0.89157   0.18081   0.36985   0.00000  Uiso   1.00
C139   C     0.31193   0.13568   0.96808   0.00000  Uiso   1.00
C140   C     0.30089   0.06230   0.92288   0.00000  Uiso   1.00
C141   C     0.29095   0.01149   0.94605   0.00000  Uiso   1.00
C142   C     0.28177   0.94768   0.89653   0.00000  Uiso   1.00
C143   C     0.26449   0.83565   0.83703   0.00000  Uiso   1.00
C144   C     0.25439   0.19721   0.94859   0.00000  Uiso   1.00
C145   C     0.20535   0.25983   0.99338   0.00000  Uiso   1.00
C146   C     0.15702   0.30959   0.96551   0.00000  Uiso   1.00
C147   C     0.06756   0.40704   0.94593   0.00000  Uiso   1.00
C148   C     0.38145   0.13180   0.94426   0.00000  Uiso   1.00
C149   C     0.43924   0.13944   0.98541   0.00000  Uiso   1.00
C150   C     0.49789   0.13415   0.95390   0.00000  Uiso   1.00
C151   C     0.60571   0.13004   0.92759   0.00000  Uiso   1.00
C152   C     0.31331   0.11271   0.83895   0.00000  Uiso   1.00
C153   C     0.30164   0.04983   0.85274   0.00000  Uiso   1.00
C154   C     0.29247   0.98607   0.80318   0.00000  Uiso   1.00
C155   C     0.28252   0.93517   0.82627   0.00000  Uiso   1.00
C156   C     0.25513   0.18474   0.87846   0.00000  Uiso   1.00
C157   C     0.20687   0.23442   0.85051   0.00000  Uiso   1.00
C158   C     0.15777   0.29709   0.89524   0.00000  Uiso   1.00
C159   C     0.38220   0.11932   0.87412   0.00000  Uiso   1.00
C160   C     0.44076   0.11402   0.84254   0.00000  Uiso   1.00
C161   C     0.49864   0.12165   0.88363   0.00000  Uiso   1.00
H162   H     0.31135   0.14540   0.02268   0.00000  Uiso   1.00
H163   H     0.29037   0.02116   0.00033   0.00000  Uiso   1.00
H164   H     0.20479   0.26947   0.04765   0.00000  Uiso   1.00
H165   H     0.43865   0.14909   0.03968   0.00000  Uiso   1.00
H166   H     0.26742   0.87794   0.94462   0.00000  Uiso   1.00
H167   H     0.08698   0.40152   0.04441   0.00000  Uiso   1.00
H168   H     0.58011   0.14769   0.02761   0.00000  Uiso   1.00
H169   H     0.31388   0.10300   0.78434   0.00000  Uiso   1.00
H170   H     0.29305   0.97644   0.74891   0.00000  Uiso   1.00
H171   H     0.20746   0.22475   0.79623   0.00000  Uiso   1.00
H172   H     0.44132   0.10437   0.78826   0.00000  Uiso   1.00
H173   H     0.26959   0.84164   0.74056   0.00000  Uiso   1.00
H174   H     0.08915   0.36523   0.84035   0.00000  Uiso   1.00
H175   H     0.58228   0.11139   0.82354   0.00000  Uiso   1.00
O176   O     0.25473   0.77731   0.82358   0.00000  Uiso   1.00
O177   O     0.01801   0.46424   0.95451   0.00000  Uiso   1.00
O178   O     0.66498   0.13120   0.93246   0.00000  Uiso   1.00
N179   N     0.27081   0.88676   0.90146   0.00000  Uiso   1.00
N180   N     0.10209   0.37627   0.99475   0.00000  Uiso   1.00
N181   N     0.56312   0.13898   0.97905   0.00000  Uiso   1.00
N182   N     0.27198   0.86723   0.79165   0.00000  Uiso   1.00
N183   N     0.10326   0.35674   0.88495   0.00000  Uiso   1.00
N184   N     0.56429   0.11944   0.86924   0.00000  Uiso   1.00
C185   C     0.99505   0.00774   0.70870   0.00000  Uiso   1.00
C186   C     0.94631   0.02926   0.76818   0.00000  Uiso   1.00
C187   C     0.96556   0.00857   0.82536   0.00000  Uiso   1.00
C188   C     0.91324   0.03397   0.87409   0.00000  Uiso   1.00
C189   C     0.84808   0.06066   0.96771   0.00000  Uiso   1.00
C190   C     0.99115   0.08131   0.70362   0.00000  Uiso   1.00
C191   C     0.04810   0.10438   0.70651   0.00000  Uiso   1.00
C192   C     0.03352   0.17359   0.70089   0.00000  Uiso   1.00
C193   C     0.03797   0.28106   0.69424   0.00000  Uiso   1.00
C194   C     0.96056   0.96878   0.64394   0.00000  Uiso   1.00
C195   C     0.99179   0.89723   0.59664   0.00000  Uiso   1.00
C196   C     0.95146   0.87171   0.54076   0.00000  Uiso   1.00
C197   C     0.90842   0.80445   0.44144   0.00000  Uiso   1.00
C198   C     0.86790   0.08964   0.69357   0.00000  Uiso   1.00
C199   C     0.87725   0.07375   0.75996   0.00000  Uiso   1.00
C200   C     0.82489   0.09919   0.80862   0.00000  Uiso   1.00
C201   C     0.84406   0.07854   0.86586   0.00000  Uiso   1.00
C202   C     0.92209   0.12580   0.69541   0.00000  Uiso   1.00
C203   C     0.90743   0.19499   0.68978   0.00000  Uiso   1.00
C204   C     0.96434   0.21816   0.69266   0.00000  Uiso   1.00
C205   C     0.89150   0.01327   0.63572   0.00000  Uiso   1.00
C206   C     0.85112   0.98785   0.57991   0.00000  Uiso   1.00
C207   C     0.88228   0.91628   0.53253   0.00000  Uiso   1.00
H208   H     0.04881   0.97311   0.71510   0.00000  Uiso   1.00
H209   H     0.01901   0.97415   0.83170   0.00000  Uiso   1.00
H210   H     0.10153   0.06994   0.71287   0.00000  Uiso   1.00
H211   H     0.04523   0.86283   0.60302   0.00000  Uiso   1.00
H212   H     0.95552   0.99494   0.95736   0.00000  Uiso   1.00
H213   H     0.12953   0.19691   0.70677   0.00000  Uiso   1.00
H214   H     0.01080   0.76017   0.47512   0.00000  Uiso   1.00
H215   H     0.81414   0.12428   0.68718   0.00000  Uiso   1.00
H216   H     0.77145   0.13362   0.80225   0.00000  Uiso   1.00
H217   H     0.85398   0.22940   0.68341   0.00000  Uiso   1.00
H218   H     0.79768   0.02229   0.57356   0.00000  Uiso   1.00
H219   H     0.75460   0.12438   0.93346   0.00000  Uiso   1.00
H220   H     0.92860   0.32634   0.68287   0.00000  Uiso   1.00
H221   H     0.80988   0.88960   0.45122   0.00000  Uiso   1.00
O222   O     0.83122   0.06309   0.02162   0.00000  Uiso   1.00
O223   O     0.05951   0.32805   0.69284   0.00000  Uiso   1.00
O224   O     0.90375   0.75506   0.38893   0.00000  Uiso   1.00
N225   N     0.91409   0.02411   0.93594   0.00000  Uiso   1.00
N226   N     0.07677   0.21294   0.70166   0.00000  Uiso   1.00
N227   N     0.96578   0.80463   0.48508   0.00000  Uiso   1.00
N228   N     0.80597   0.09376   0.92307   0.00000  Uiso   1.00
N229   N     0.96865   0.28258   0.68880   0.00000  Uiso   1.00
N230   N     0.85767   0.87428   0.47222   0.00000  Uiso   1.00
C231   C     0.75272   0.36145   0.02600   0.00000  Uiso   1.00
C232   C     0.81808   0.31817   0.05660   0.00000  Uiso   1.00
C233   C     0.83114   0.24838   0.06028   0.00000  Uiso   1.00
C234   C     0.89403   0.21820   0.09015   0.00000  Uiso   1.00
C235   C     0.98822   0.14515   0.13379   0.00000  Uiso   1.00
C236   C     0.77965   0.37699   0.97070   0.00000  Uiso   1.00
C237   C     0.76038   0.35667   0.90216   0.00000  Uiso   1.00
C238   C     0.79090   0.37601   0.85974   0.00000  Uiso   1.00
C239   C     0.82538   0.39433   0.77003   0.00000  Uiso   1.00
C240   C     0.72106   0.43750   0.08258   0.00000  Uiso   1.00
C241   C     0.65253   0.46807   0.10809   0.00000  Uiso   1.00
C242   C     0.63372   0.53837   0.15985   0.00000  Uiso   1.00
C243   C     0.57724   0.65064   0.24384   0.00000  Uiso   1.00
C244   C     0.84118   0.43195   0.07252   0.00000  Uiso   1.00
C245   C     0.86613   0.35646   0.08186   0.00000  Uiso   1.00
C246   C     0.92901   0.32638   0.11175   0.00000  Uiso   1.00
C247   C     0.94216   0.25656   0.11547   0.00000  Uiso   1.00
C248   C     0.82769   0.41528   0.99597   0.00000  Uiso   1.00
C249   C     0.85824   0.43466   0.95364   0.00000  Uiso   1.00
C250   C     0.83904   0.41437   0.88505   0.00000  Uiso   1.00
C251   C     0.76911   0.47579   0.10785   0.00000  Uiso   1.00
C252   C     0.75040   0.54606   0.15957   0.00000  Uiso   1.00
C253   C     0.68185   0.57673   0.18516   0.00000  Uiso   1.00
H254   H     0.71532   0.33164   0.00632   0.00000  Uiso   1.00
H255   H     0.79395   0.21877   0.04071   0.00000  Uiso   1.00
H256   H     0.72320   0.32704   0.88263   0.00000  Uiso   1.00
H257   H     0.61537   0.43842   0.08853   0.00000  Uiso   1.00
H258   H     0.90233   0.11049   0.08995   0.00000  Uiso   1.00
H259   H     0.75312   0.33882   0.75663   0.00000  Uiso   1.00
H260   H     0.52574   0.57369   0.19081   0.00000  Uiso   1.00
H261   H     0.87858   0.46176   0.09219   0.00000  Uiso   1.00
H262   H     0.96617   0.35602   0.13130   0.00000  Uiso   1.00
H263   H     0.89542   0.46429   0.97321   0.00000  Uiso   1.00
H264   H     0.78759   0.57567   0.17911   0.00000  Uiso   1.00
H265   H     0.04211   0.22189   0.16347   0.00000  Uiso   1.00
H266   H     0.89290   0.45022   0.83015   0.00000  Uiso   1.00
H267   H     0.66552   0.68509   0.26433   0.00000  Uiso   1.00
O268   O     0.02691   0.09428   0.15087   0.00000  Uiso   1.00
O269   O     0.83114   0.39384   0.71357   0.00000  Uiso   1.00
O270   O     0.53282   0.70199   0.28320   0.00000  Uiso   1.00
N271   N     0.92320   0.15123   0.10190   0.00000  Uiso   1.00
N272   N     0.78371   0.36469   0.79027   0.00000  Uiso   1.00
N273   N     0.57112   0.58429   0.19617   0.00000  Uiso   1.00
N274   N     0.99842   0.21117   0.14147   0.00000  Uiso   1.00
N275   N     0.85892   0.42463   0.82983   0.00000  Uiso   1.00
N276   N     0.64633   0.64423   0.23574   0.00000  Uiso   1.00
C277   C     0.58450   0.86889   0.84398   0.00000  Uiso   1.00
C278   C     0.54468   0.86606   0.77701   0.00000  Uiso   1.00
C279   C     0.53882   0.91175   0.74041   0.00000  Uiso   1.00
C280   C     0.50013   0.90035   0.68033   0.00000  Uiso   1.00
C281   C     0.44314   0.90432   0.57976   0.00000  Uiso   1.00
C282   C     0.63779   0.79014   0.83082   0.00000  Uiso   1.00
C283   C     0.71023   0.77200   0.83948   0.00000  Uiso   1.00
C284   C     0.74991   0.69669   0.82470   0.00000  Uiso   1.00
C285   C     0.83748   0.58281   0.80773   0.00000  Uiso   1.00
C286   C     0.53108   0.88091   0.89558   0.00000  Uiso   1.00
C287   C     0.51380   0.93907   0.95870   0.00000  Uiso   1.00
C288   C     0.46365   0.94017   0.99846   0.00000  Uiso   1.00
C289   C     0.38553   0.96722   0.08204   0.00000  Uiso   1.00
C290   C     0.52618   0.76741   0.80236   0.00000  Uiso   1.00
C291   C     0.51300   0.81094   0.75440   0.00000  Uiso   1.00
C292   C     0.47430   0.79947   0.69436   0.00000  Uiso   1.00
C293   C     0.46839   0.84513   0.65768   0.00000  Uiso   1.00
C294   C     0.60612   0.73502   0.80822   0.00000  Uiso   1.00
C295   C     0.64570   0.65973   0.79343   0.00000  Uiso   1.00
C296   C     0.71818   0.64147   0.80206   0.00000  Uiso   1.00
C297   C     0.49940   0.82579   0.87298   0.00000  Uiso   1.00
C298   C     0.44927   0.82680   0.91265   0.00000  Uiso   1.00
C299   C     0.43192   0.88495   0.97582   0.00000  Uiso   1.00
H300   H     0.60917   0.91180   0.86158   0.00000  Uiso   1.00
H301   H     0.56335   0.95440   0.75792   0.00000  Uiso   1.00
H302   H     0.73473   0.81467   0.85698   0.00000  Uiso   1.00
H303   H     0.53832   0.98172   0.97618   0.00000  Uiso   1.00
H304   H     0.49861   0.97729   0.63301   0.00000  Uiso   1.00
H305   H     0.85996   0.68268   0.84190   0.00000  Uiso   1.00
H306   H     0.44581   0.03493   0.09327   0.00000  Uiso   1.00
H307   H     0.50152   0.72449   0.78476   0.00000  Uiso   1.00
H308   H     0.44979   0.75681   0.67688   0.00000  Uiso   1.00
H309   H     0.62117   0.61709   0.77594   0.00000  Uiso   1.00
H310   H     0.42477   0.78413   0.89514   0.00000  Uiso   1.00
H311   H     0.40644   0.81693   0.56723   0.00000  Uiso   1.00
H312   H     0.76779   0.52231   0.77613   0.00000  Uiso   1.00
H313   H     0.35364   0.87456   0.02749   0.00000  Uiso   1.00
O314   O     0.42046   0.92173   0.53053   0.00000  Uiso   1.00
O315   O     0.89453   0.53522   0.80460   0.00000  Uiso   1.00
O316   O     0.35118   0.99736   0.13438   0.00000  Uiso   1.00
N317   N     0.48400   0.93513   0.63234   0.00000  Uiso   1.00
N318   N     0.82185   0.65968   0.82763   0.00000  Uiso   1.00
N319   N     0.43467   0.98899   0.06265   0.00000  Uiso   1.00
N320   N     0.43441   0.84883   0.59695   0.00000  Uiso   1.00
N321   N     0.77225   0.57339   0.79224   0.00000  Uiso   1.00
N322   N     0.38507   0.90270   0.02725   0.00000  Uiso   1.00
C323   C     0.60720   0.57497   0.41233   0.00000  Uiso   1.00
C324   C     0.64749   0.62485   0.41233   0.00000  Uiso   1.00
C325   C     0.61758   0.69922   0.41739   0.00000  Uiso   1.00
C326   C     0.66346   0.73514   0.41645   0.00000  Uiso   1.00
C327   C     0.71490   0.81827   0.41736   0.00000  Uiso   1.00
C328   C     0.63737   0.54667   0.47098   0.00000  Uiso   1.00
C329   C     0.59895   0.55530   0.52535   0.00000  Uiso   1.00
C330   C     0.63631   0.52541   0.57378   0.00000  Uiso   1.00
C331   C     0.67202   0.48711   0.66572   0.00000  Uiso   1.00
C332   C     0.62902   0.50647   0.34638   0.00000  Uiso   1.00
C333   C     0.58358   0.48127   0.29599   0.00000  Uiso   1.00
C334   C     0.61391   0.41751   0.23952   0.00000  Uiso   1.00
C335   C     0.63667   0.31680   0.13800   0.00000  Uiso   1.00
C336   C     0.74186   0.50652   0.40166   0.00000  Uiso   1.00
C337   C     0.72063   0.58767   0.40653   0.00000  Uiso   1.00
C338   C     0.76657   0.62349   0.40558   0.00000  Uiso   1.00
C339   C     0.73674   0.69790   0.41064   0.00000  Uiso   1.00
C340   C     0.71051   0.50950   0.46518   0.00000  Uiso   1.00
C341   C     0.74793   0.47957   0.51354   0.00000  Uiso   1.00
C342   C     0.70958   0.48816   0.56797   0.00000  Uiso   1.00
C343   C     0.70217   0.46929   0.34058   0.00000  Uiso   1.00
C344   C     0.73257   0.40555   0.28418   0.00000  Uiso   1.00
C345   C     0.68719   0.38027   0.23371   0.00000  Uiso   1.00
H346   H     0.55026   0.60391   0.41685   0.00000  Uiso   1.00
H347   H     0.56098   0.72797   0.42189   0.00000  Uiso   1.00
H348   H     0.54234   0.58407   0.52983   0.00000  Uiso   1.00
H349   H     0.52698   0.51006   0.30050   0.00000  Uiso   1.00
H350   H     0.60512   0.84913   0.42494   0.00000  Uiso   1.00
H351   H     0.56583   0.54569   0.65252   0.00000  Uiso   1.00
H352   H     0.53344   0.38962   0.16894   0.00000  Uiso   1.00
H353   H     0.79881   0.47757   0.39714   0.00000  Uiso   1.00
H354   H     0.82317   0.59470   0.40109   0.00000  Uiso   1.00
H355   H     0.80454   0.45080   0.50903   0.00000  Uiso   1.00
H356   H     0.78918   0.37679   0.27971   0.00000  Uiso   1.00
H357   H     0.81793   0.74097   0.40806   0.00000  Uiso   1.00
H358   H     0.77863   0.43752   0.63564   0.00000  Uiso   1.00
H359   H     0.74624   0.28145   0.15206   0.00000  Uiso   1.00
O360   O     0.72307   0.87439   0.41948   0.00000  Uiso   1.00
O361   O     0.67151   0.47627   0.71805   0.00000  Uiso   1.00
O362   O     0.62902   0.27152   0.08360   0.00000  Uiso   1.00
N363   N     0.65186   0.80759   0.42041   0.00000  Uiso   1.00
N364   N     0.61513   0.52390   0.63319   0.00000  Uiso   1.00
N365   N     0.58484   0.37798   0.18109   0.00000  Uiso   1.00
N366   N     0.76637   0.74939   0.41133   0.00000  Uiso   1.00
N367   N     0.72964   0.46570   0.62411   0.00000  Uiso   1.00
N368   N     0.69935   0.31978   0.17201   0.00000  Uiso   1.00
C369   C     0.95226   0.69802   0.59531   0.00000  Uiso   1.00
C370   C     0.89709   0.76790   0.64196   0.00000  Uiso   1.00
C371   C     0.84118   0.81806   0.62048   0.00000  Uiso   1.00
C372   C     0.79651   0.87849   0.67113   0.00000  Uiso   1.00
C373   C     0.70916   0.98548   0.73298   0.00000  Uiso   1.00
C374   C     0.94979   0.63249   0.61156   0.00000  Uiso   1.00
C375   C     0.93819   0.56879   0.56452   0.00000  Uiso   1.00
C376   C     0.93789   0.51523   0.58958   0.00000  Uiso   1.00
C377   C     0.93241   0.41196   0.60423   0.00000  Uiso   1.00
C378   C     0.02368   0.70609   0.62023   0.00000  Uiso   1.00
C379   C     0.07422   0.70426   0.58047   0.00000  Uiso   1.00
C380   C     0.13614   0.71266   0.61283   0.00000  Uiso   1.00
C381   C     0.24538   0.72367   0.64093   0.00000  Uiso   1.00
C382   C     0.97236   0.71615   0.72347   0.00000  Uiso   1.00
C383   C     0.90801   0.77775   0.71157   0.00000  Uiso   1.00
C384   C     0.86341   0.83812   0.76227   0.00000  Uiso   1.00
C385   C     0.80744   0.88836   0.74087   0.00000  Uiso   1.00
C386   C     0.96070   0.64233   0.68117   0.00000  Uiso   1.00
C387   C     0.96043   0.58885   0.70631   0.00000  Uiso   1.00
C388   C     0.94883   0.52509   0.65932   0.00000  Uiso   1.00
C389   C     0.03459   0.71594   0.68984   0.00000  Uiso   1.00
C390   C     0.09645   0.72433   0.72227   0.00000  Uiso   1.00
C391   C     0.14707   0.72252   0.68257   0.00000  Uiso   1.00
H392   H     0.94376   0.69035   0.54111   0.00000  Uiso   1.00
H393   H     0.83274   0.81041   0.56660   0.00000  Uiso   1.00
H394   H     0.92975   0.56118   0.51065   0.00000  Uiso   1.00
H395   H     0.06575   0.69664   0.52661   0.00000  Uiso   1.00
H396   H     0.71446   0.94786   0.62556   0.00000  Uiso   1.00
H397   H     0.91903   0.42232   0.50758   0.00000  Uiso   1.00
H398   H     0.20581   0.70797   0.54122   0.00000  Uiso   1.00
H399   H     0.98086   0.72382   0.77766   0.00000  Uiso   1.00
H400   H     0.87187   0.84573   0.81613   0.00000  Uiso   1.00
H401   H     0.96888   0.59649   0.76018   0.00000  Uiso   1.00
H402   H     0.10488   0.73195   0.77614   0.00000  Uiso   1.00
H403   H     0.74621   0.97652   0.82809   0.00000  Uiso   1.00
H404   H     0.95079   0.45098   0.71010   0.00000  Uiso   1.00
H405   H     0.23757   0.73663   0.74375   0.00000  Uiso   1.00
O406   O     0.65796   0.04177   0.74786   0.00000  Uiso   1.00
O407   O     0.92636   0.35228   0.59307   0.00000  Uiso   1.00
O408   O     0.30261   0.72704   0.63721   0.00000  Uiso   1.00
N409   N     0.73690   0.93788   0.66794   0.00000  Uiso   1.00
N410   N     0.92814   0.44654   0.55764   0.00000  Uiso   1.00
N411   N     0.19627   0.71357   0.58909   0.00000  Uiso   1.00
N412   N     0.75398   0.95331   0.77692   0.00000  Uiso   1.00
N413   N     0.94523   0.46197   0.66662   0.00000  Uiso   1.00
N414   N     0.21336   0.72900   0.69807   0.00000  Uiso   1.00
C415   C     0.77053   0.78367   0.10188   0.00000  Uiso   1.00
C416   C     0.78248   0.85658   0.14703   0.00000  Uiso   1.00
C417   C     0.79635   0.90530   0.12379   0.00000  Uiso   1.00
C418   C     0.80571   0.96903   0.17328   0.00000  Uiso   1.00
C419   C     0.82498   0.08001   0.23272   0.00000  Uiso   1.00
C420   C     0.82486   0.72224   0.12400   0.00000  Uiso   1.00
C421   C     0.87435   0.65801   0.08139   0.00000  Uiso   1.00
C422   C     0.91938   0.60864   0.11149   0.00000  Uiso   1.00
C423   C     0.00439   0.51104   0.13516   0.00000  Uiso   1.00
C424   C     0.69875   0.79039   0.12316   0.00000  Uiso   1.00
C425   C     0.64220   0.78343   0.07984   0.00000  Uiso   1.00
C426   C     0.58105   0.79142   0.10923   0.00000  Uiso   1.00
C427   C     0.47026   0.79963   0.13159   0.00000  Uiso   1.00
C428   C     0.76250   0.81021   0.23111   0.00000  Uiso   1.00
C429   C     0.77812   0.87099   0.21723   0.00000  Uiso   1.00
C430   C     0.78746   0.93466   0.26677   0.00000  Uiso   1.00
C431   C     0.80134   0.98347   0.24360   0.00000  Uiso   1.00
C432   C     0.82050   0.73665   0.19419   0.00000  Uiso   1.00
C433   C     0.86546   0.68737   0.22437   0.00000  Uiso   1.00
C434   C     0.91501   0.62308   0.18181   0.00000  Uiso   1.00
C435   C     0.69438   0.80480   0.19336   0.00000  Uiso   1.00
C436   C     0.63331   0.81280   0.22282   0.00000  Uiso   1.00
C437   C     0.57668   0.80586   0.17955   0.00000  Uiso   1.00
H438   H     0.77393   0.77245   0.04723   0.00000  Uiso   1.00
H439   H     0.79973   0.89412   0.06946   0.00000  Uiso   1.00
H440   H     0.87771   0.64687   0.02707   0.00000  Uiso   1.00
H441   H     0.64560   0.77228   0.02552   0.00000  Uiso   1.00
H442   H     0.82644   0.03536   0.12506   0.00000  Uiso   1.00
H443   H     0.99084   0.51400   0.03567   0.00000  Uiso   1.00
H444   H     0.50139   0.77845   0.03240   0.00000  Uiso   1.00
H445   H     0.75910   0.82143   0.28576   0.00000  Uiso   1.00
H446   H     0.78408   0.94580   0.32108   0.00000  Uiso   1.00
H447   H     0.86207   0.69854   0.27869   0.00000  Uiso   1.00
H448   H     0.62995   0.82395   0.27714   0.00000  Uiso   1.00
H449   H     0.81374   0.07730   0.32929   0.00000  Uiso   1.00
H450   H     0.97815   0.55593   0.23989   0.00000  Uiso   1.00
H451   H     0.48869   0.82039   0.23663   0.00000  Uiso   1.00
O452   O     0.83682   0.13725   0.24611   0.00000  Uiso   1.00
O453   O     0.05250   0.45323   0.12882   0.00000  Uiso   1.00
O454   O     0.41035   0.80019   0.12454   0.00000  Uiso   1.00
N455   N     0.82001   0.02817   0.16828   0.00000  Uiso   1.00
N456   N     0.97372   0.54073   0.08470   0.00000  Uiso   1.00
N457   N     0.51613   0.78795   0.08165   0.00000  Uiso   1.00
N458   N     0.81317   0.05074   0.27817   0.00000  Uiso   1.00
N459   N     0.96689   0.56330   0.19460   0.00000  Uiso   1.00
N460   N     0.50930   0.81052   0.19154   0.00000  Uiso   1.00
C461   C     0.10715   0.91353   0.34267   0.00000  Uiso   1.00
C462   C     0.14979   0.90186   0.28227   0.00000  Uiso   1.00
C463   C     0.12438   0.93277   0.23184   0.00000  Uiso   1.00
C464   C     0.17175   0.91529   0.18092   0.00000  Uiso   1.00
C465   C     0.22726   0.90423   0.08718   0.00000  Uiso   1.00
C466   C     0.11365   0.83540   0.33810   0.00000  Uiso   1.00
C467   C     0.05786   0.81044   0.33462   0.00000  Uiso   1.00
C468   C     0.07481   0.73702   0.33070   0.00000  Uiso   1.00
C469   C     0.07421   0.62280   0.32369   0.00000  Uiso   1.00
C470   C     0.14663   0.94440   0.40713   0.00000  Uiso   1.00
C471   C     0.11857   0.01108   0.46169   0.00000  Uiso   1.00
C472   C     0.16329   0.02943   0.51590   0.00000  Uiso   1.00
C473   C     0.21391   0.08446   0.61606   0.00000  Uiso   1.00
C474   C     0.23647   0.82753   0.34194   0.00000  Uiso   1.00
C475   C     0.22002   0.85514   0.28187   0.00000  Uiso   1.00
C476   C     0.26745   0.83761   0.23102   0.00000  Uiso   1.00
C477   C     0.24212   0.86849   0.18052   0.00000  Uiso   1.00
C478   C     0.18388   0.78868   0.33770   0.00000  Uiso   1.00
C479   C     0.20093   0.71529   0.33380   0.00000  Uiso   1.00
C480   C     0.14518   0.69022   0.33030   0.00000  Uiso   1.00
C481   C     0.21687   0.89769   0.40673   0.00000  Uiso   1.00
C482   C     0.26164   0.91593   0.46087   0.00000  Uiso   1.00
C483   C     0.23366   0.98263   0.51550   0.00000  Uiso   1.00
H484   H     0.05247   0.94990   0.34298   0.00000  Uiso   1.00
H485   H     0.07002   0.96891   0.23216   0.00000  Uiso   1.00
H486   H     0.00351   0.84660   0.33493   0.00000  Uiso   1.00
H487   H     0.06422   0.04722   0.46198   0.00000  Uiso   1.00
H488   H     0.12045   0.96937   0.10910   0.00000  Uiso   1.00
H489   H     0.98020   0.71148   0.32583   0.00000  Uiso   1.00
H490   H     0.10821   0.13452   0.59373   0.00000  Uiso   1.00
H491   H     0.29115   0.79116   0.34162   0.00000  Uiso   1.00
H492   H     0.32180   0.80146   0.23072   0.00000  Uiso   1.00
H493   H     0.25529   0.67915   0.33350   0.00000  Uiso   1.00
H494   H     0.31599   0.87977   0.46054   0.00000  Uiso   1.00
H495   H     0.32480   0.83345   0.10793   0.00000  Uiso   1.00
H496   H     0.18455   0.57557   0.32466   0.00000  Uiso   1.00
H497   H     0.31257   0.99861   0.59257   0.00000  Uiso   1.00
O498   O     0.23847   0.91103   0.03558   0.00000  Uiso   1.00
O499   O     0.05448   0.57271   0.31993   0.00000  Uiso   1.00
O500   O     0.22243   0.12772   0.67141   0.00000  Uiso   1.00
N501   N     0.16434   0.93598   0.12405   0.00000  Uiso   1.00
N502   N     0.03322   0.69487   0.32667   0.00000  Uiso   1.00
N503   N     0.15289   0.09036   0.57715   0.00000  Uiso   1.00
N504   N     0.27430   0.86285   0.12343   0.00000  Uiso   1.00
N505   N     0.14318   0.62174   0.32604   0.00000  Uiso   1.00
N506   N     0.26285   0.01723   0.57652   0.00000  Uiso   1.00
C507   C     0.24495   0.57814   0.95220   0.00000  Uiso   1.00
C508   C     0.18721   0.65269   0.95771   0.00000  Uiso   1.00
C509   C     0.19791   0.71712   0.96133   0.00000  Uiso   1.00
C510   C     0.13820   0.77956   0.96617   0.00000  Uiso   1.00
C511   C     0.05889   0.89562   0.97457   0.00000  Uiso   1.00
C512   C     0.23298   0.55970   0.01257   0.00000  Uiso   1.00
C513   C     0.28216   0.54594   0.06231   0.00000  Uiso   1.00
C514   C     0.26097   0.53008   0.11333   0.00000  Uiso   1.00
C515   C     0.25273   0.50172   0.20688   0.00000  Uiso   1.00
C516   C     0.22895   0.51951   0.88781   0.00000  Uiso   1.00
C517   C     0.27474   0.47194   0.83265   0.00000  Uiso   1.00
C518   C     0.25017   0.42223   0.77863   0.00000  Uiso   1.00
C519   C     0.23566   0.33148   0.67847   0.00000  Uiso   1.00
C520   C     0.11988   0.57444   0.95435   0.00000  Uiso   1.00
C521   C     0.11928   0.65068   0.95887   0.00000  Uiso   1.00
C522   C     0.05954   0.71303   0.96370   0.00000  Uiso   1.00
C523   C     0.07015   0.77754   0.96733   0.00000  Uiso   1.00
C524   C     0.16505   0.55769   0.01374   0.00000  Uiso   1.00
C525   C     0.14379   0.54184   0.06469   0.00000  Uiso   1.00
C526   C     0.19292   0.52807   0.11450   0.00000  Uiso   1.00
C527   C     0.16101   0.51750   0.88897   0.00000  Uiso   1.00
C528   C     0.13637   0.46785   0.83503   0.00000  Uiso   1.00
C529   C     0.18212   0.42022   0.77980   0.00000  Uiso   1.00
H530   H     0.29783   0.57971   0.95130   0.00000  Uiso   1.00
H531   H     0.25049   0.71866   0.96043   0.00000  Uiso   1.00
H532   H     0.33472   0.54749   0.06139   0.00000  Uiso   1.00
H533   H     0.32730   0.47351   0.83177   0.00000  Uiso   1.00
H534   H     0.16804   0.87183   0.97110   0.00000  Uiso   1.00
H535   H     0.34566   0.51089   0.18397   0.00000  Uiso   1.00
H536   H     0.33002   0.35489   0.69976   0.00000  Uiso   1.00
H537   H     0.06700   0.57288   0.95526   0.00000  Uiso   1.00
H538   H     0.00698   0.71146   0.96460   0.00000  Uiso   1.00
H539   H     0.09122   0.54029   0.06557   0.00000  Uiso   1.00
H540   H     0.08380   0.46631   0.83595   0.00000  Uiso   1.00
H541   H     0.97040   0.86599   0.97449   0.00000  Uiso   1.00
H542   H     0.14803   0.50504   0.18736   0.00000  Uiso   1.00
H543   H     0.13238   0.34905   0.70315   0.00000  Uiso   1.00
O544   O     0.03391   0.96020   0.97890   0.00000  Uiso   1.00
O545   O     0.26695   0.48665   0.25816   0.00000  Uiso   1.00
O546   O     0.24642   0.28198   0.62290   0.00000  Uiso   1.00
N547   N     0.12976   0.85143   0.97060   0.00000  Uiso   1.00
N548   N     0.29583   0.51399   0.16963   0.00000  Uiso   1.00
N549   N     0.28121   0.36812   0.71694   0.00000  Uiso   1.00
N550   N     0.02342   0.84829   0.97242   0.00000  Uiso   1.00
N551   N     0.18948   0.51084   0.17145   0.00000  Uiso   1.00
N552   N     0.17486   0.36498   0.71876   0.00000  Uiso   1.00
