data_job_04814
_audit_creation_date              2018-12-19
_audit_creation_method            'Materials Studio'
_symmetry_space_group_name_H-M    'P1'
_symmetry_Int_Tables_number       1
_symmetry_cell_setting            triclinic
loop_
_symmetry_equiv_pos_as_xyz
  x,y,z
_cell_length_a                    14.9926
_cell_length_b                    8.3182
_cell_length_c                    28.3914
_cell_angle_alpha                 90.0000
_cell_angle_beta                  137.9959
_cell_angle_gamma                 90.0000
loop_
_atom_site_label
_atom_site_type_symbol
_atom_site_fract_x
_atom_site_fract_y
_atom_site_fract_z
_atom_site_U_iso_or_equiv
_atom_site_adp_type
_atom_site_occupancy
C1     C     0.47173   0.36811   0.35941   0.00000  Uiso   1.00
C2     C     0.35803   0.37411   0.35040   0.00000  Uiso   1.00
C3     C     0.31286   0.51072   0.35574   0.00000  Uiso   1.00
C4     C     0.20771   0.49111   0.34575   0.00000  Uiso   1.00
C5     C     0.04000   0.52336   0.33404   0.00000  Uiso   1.00
C6     C     0.57099   0.24531   0.41734   0.00000  Uiso   1.00
C7     C     0.70487   0.27363   0.47896   0.00000  Uiso   1.00
C8     C     0.77898   0.14558   0.52531   0.00000  Uiso   1.00
C9     C     0.94191   0.97784   0.61750   0.00000  Uiso   1.00
C10    C     0.41325   0.29456   0.29182   0.00000  Uiso   1.00
C11    C     0.41453   0.36425   0.24791   0.00000  Uiso   1.00
C12    C     0.35587   0.27764   0.18859   0.00000  Uiso   1.00
C13    C     0.27389   0.18636   0.08589   0.00000  Uiso   1.00
C14    C     0.36532   0.09035   0.33215   0.00000  Uiso   1.00
C15    C     0.30024   0.22324   0.33559   0.00000  Uiso   1.00
C16    C     0.19512   0.20341   0.32558   0.00000  Uiso   1.00
C17    C     0.14980   0.33996   0.33091   0.00000  Uiso   1.00
C18    C     0.51320   0.09445   0.40253   0.00000  Uiso   1.00
C19    C     0.58713   0.96632   0.44880   0.00000  Uiso   1.00
C20    C     0.72108   0.99444   0.51047   0.00000  Uiso   1.00
C21    C     0.35545   0.14369   0.27701   0.00000  Uiso   1.00
C22    C     0.29679   0.05694   0.21774   0.00000  Uiso   1.00
C23    C     0.29797   0.12650   0.17375   0.00000  Uiso   1.00
H24    H     0.51674   0.48557   0.37094   0.00000  Uiso   1.00
H25    H     0.35762   0.62746   0.36721   0.00000  Uiso   1.00
H26    H     0.74957   0.39039   0.49040   0.00000  Uiso   1.00
H27    H     0.45927   0.48101   0.25939   0.00000  Uiso   1.00
H28    H     0.15576   0.71822   0.35657   0.00000  Uiso   1.00
H29    H     0.98221   0.21835   0.61631   0.00000  Uiso   1.00
H30    H     0.37006   0.40942   0.12917   0.00000  Uiso   1.00
H31    H     0.32032   0.97288   0.32062   0.00000  Uiso   1.00
H32    H     0.15042   0.08664   0.31412   0.00000  Uiso   1.00
H33    H     0.54237   0.84958   0.43732   0.00000  Uiso   1.00
H34    H     0.25207   0.94019   0.20630   0.00000  Uiso   1.00
H35    H     0.98759   0.27927   0.31349   0.00000  Uiso   1.00
H36    H     0.81404   0.77940   0.57323   0.00000  Uiso   1.00
H37    H     0.20189   0.97047   0.08609   0.00000  Uiso   1.00
O38    O     0.96348   0.58282   0.33169   0.00000  Uiso   1.00
O39    O     0.04775   0.92701   0.67245   0.00000  Uiso   1.00
O40    O     0.24463   0.17769   0.03333   0.00000  Uiso   1.00
N41    N     0.13948   0.59931   0.34731   0.00000  Uiso   1.00
N42    N     0.91215   0.13197   0.59016   0.00000  Uiso   1.00
N43    N     0.33988   0.31059   0.13473   0.00000  Uiso   1.00
N44    N     0.04898   0.36311   0.32412   0.00000  Uiso   1.00
N45    N     0.82166   0.89577   0.56697   0.00000  Uiso   1.00
N46    N     0.24939   0.07439   0.11155   0.00000  Uiso   1.00
C47    C     0.52827   0.86811   0.14059   0.00000  Uiso   1.00
C48    C     0.64197   0.87411   0.14960   0.00000  Uiso   1.00
C49    C     0.68714   0.01072   0.14426   0.00000  Uiso   1.00
C50    C     0.79229   0.99111   0.15425   0.00000  Uiso   1.00
C51    C     0.96000   0.02336   0.16596   0.00000  Uiso   1.00
C52    C     0.42901   0.74531   0.08266   0.00000  Uiso   1.00
C53    C     0.29513   0.77363   0.02104   0.00000  Uiso   1.00
C54    C     0.22102   0.64558   0.97469   0.00000  Uiso   1.00
C55    C     0.05809   0.47784   0.88250   0.00000  Uiso   1.00
C56    C     0.58675   0.79456   0.20818   0.00000  Uiso   1.00
C57    C     0.58547   0.86425   0.25209   0.00000  Uiso   1.00
C58    C     0.64413   0.77764   0.31141   0.00000  Uiso   1.00
C59    C     0.72611   0.68636   0.41411   0.00000  Uiso   1.00
C60    C     0.63468   0.59035   0.16785   0.00000  Uiso   1.00
C61    C     0.69976   0.72324   0.16441   0.00000  Uiso   1.00
C62    C     0.80488   0.70341   0.17442   0.00000  Uiso   1.00
C63    C     0.85020   0.83996   0.16909   0.00000  Uiso   1.00
C64    C     0.48680   0.59445   0.09747   0.00000  Uiso   1.00
C65    C     0.41287   0.46632   0.05120   0.00000  Uiso   1.00
C66    C     0.27892   0.49444   0.98953   0.00000  Uiso   1.00
C67    C     0.64455   0.64369   0.22299   0.00000  Uiso   1.00
C68    C     0.70321   0.55694   0.28226   0.00000  Uiso   1.00
C69    C     0.70203   0.62650   0.32625   0.00000  Uiso   1.00
H70    H     0.48326   0.98557   0.12906   0.00000  Uiso   1.00
H71    H     0.64238   0.12746   0.13279   0.00000  Uiso   1.00
H72    H     0.25043   0.89039   0.00960   0.00000  Uiso   1.00
H73    H     0.54073   0.98101   0.24061   0.00000  Uiso   1.00
H74    H     0.84424   0.21822   0.14343   0.00000  Uiso   1.00
H75    H     0.01779   0.71835   0.88369   0.00000  Uiso   1.00
H76    H     0.62994   0.90942   0.37083   0.00000  Uiso   1.00
H77    H     0.67968   0.47288   0.17938   0.00000  Uiso   1.00
H78    H     0.84958   0.58664   0.18588   0.00000  Uiso   1.00
H79    H     0.45763   0.34958   0.06268   0.00000  Uiso   1.00
H80    H     0.74793   0.44019   0.29370   0.00000  Uiso   1.00
H81    H     0.01241   0.77927   0.18651   0.00000  Uiso   1.00
H82    H     0.18596   0.27940   0.92677   0.00000  Uiso   1.00
H83    H     0.79811   0.47047   0.41391   0.00000  Uiso   1.00
O84    O     0.03652   0.08282   0.16831   0.00000  Uiso   1.00
O85    O     0.95225   0.42701   0.82755   0.00000  Uiso   1.00
O86    O     0.75537   0.67769   0.46667   0.00000  Uiso   1.00
N87    N     0.86052   0.09931   0.15269   0.00000  Uiso   1.00
N88    N     0.08785   0.63197   0.90984   0.00000  Uiso   1.00
N89    N     0.66012   0.81059   0.36527   0.00000  Uiso   1.00
N90    N     0.95102   0.86311   0.17588   0.00000  Uiso   1.00
N91    N     0.17834   0.39577   0.93303   0.00000  Uiso   1.00
N92    N     0.75061   0.57439   0.38845   0.00000  Uiso   1.00
C93    C     0.52827   0.63189   0.64059   0.00000  Uiso   1.00
C94    C     0.64197   0.62589   0.64960   0.00000  Uiso   1.00
C95    C     0.68714   0.48928   0.64426   0.00000  Uiso   1.00
C96    C     0.79229   0.50889   0.65425   0.00000  Uiso   1.00
C97    C     0.96000   0.47664   0.66596   0.00000  Uiso   1.00
C98    C     0.42901   0.75469   0.58266   0.00000  Uiso   1.00
C99    C     0.29513   0.72637   0.52104   0.00000  Uiso   1.00
C100   C     0.22102   0.85442   0.47469   0.00000  Uiso   1.00
C101   C     0.05809   0.02216   0.38250   0.00000  Uiso   1.00
C102   C     0.58675   0.70544   0.70818   0.00000  Uiso   1.00
C103   C     0.58547   0.63575   0.75209   0.00000  Uiso   1.00
C104   C     0.64413   0.72236   0.81141   0.00000  Uiso   1.00
C105   C     0.72611   0.81364   0.91411   0.00000  Uiso   1.00
C106   C     0.63468   0.90965   0.66785   0.00000  Uiso   1.00
C107   C     0.69976   0.77676   0.66441   0.00000  Uiso   1.00
C108   C     0.80488   0.79659   0.67442   0.00000  Uiso   1.00
C109   C     0.85020   0.66004   0.66909   0.00000  Uiso   1.00
C110   C     0.48680   0.90555   0.59747   0.00000  Uiso   1.00
C111   C     0.41287   0.03368   0.55120   0.00000  Uiso   1.00
C112   C     0.27892   0.00556   0.48953   0.00000  Uiso   1.00
C113   C     0.64455   0.85631   0.72299   0.00000  Uiso   1.00
C114   C     0.70321   0.94306   0.78226   0.00000  Uiso   1.00
C115   C     0.70203   0.87350   0.82625   0.00000  Uiso   1.00
H116   H     0.48326   0.51443   0.62906   0.00000  Uiso   1.00
H117   H     0.64238   0.37254   0.63279   0.00000  Uiso   1.00
H118   H     0.25043   0.60961   0.50960   0.00000  Uiso   1.00
H119   H     0.54073   0.51899   0.74061   0.00000  Uiso   1.00
H120   H     0.84424   0.28178   0.64343   0.00000  Uiso   1.00
H121   H     0.01779   0.78165   0.38369   0.00000  Uiso   1.00
H122   H     0.62994   0.59058   0.87083   0.00000  Uiso   1.00
H123   H     0.67968   0.02712   0.67938   0.00000  Uiso   1.00
H124   H     0.84958   0.91336   0.68588   0.00000  Uiso   1.00
H125   H     0.45763   0.15042   0.56268   0.00000  Uiso   1.00
H126   H     0.74793   0.05981   0.79370   0.00000  Uiso   1.00
H127   H     0.01241   0.72073   0.68651   0.00000  Uiso   1.00
H128   H     0.18596   0.22060   0.42677   0.00000  Uiso   1.00
H129   H     0.79811   0.02953   0.91391   0.00000  Uiso   1.00
O130   O     0.03652   0.41718   0.66831   0.00000  Uiso   1.00
O131   O     0.95225   0.07299   0.32755   0.00000  Uiso   1.00
O132   O     0.75537   0.82231   0.96667   0.00000  Uiso   1.00
N133   N     0.86052   0.40069   0.65269   0.00000  Uiso   1.00
N134   N     0.08785   0.86803   0.40984   0.00000  Uiso   1.00
N135   N     0.66012   0.68941   0.86527   0.00000  Uiso   1.00
N136   N     0.95102   0.63689   0.67588   0.00000  Uiso   1.00
N137   N     0.17834   0.10423   0.43303   0.00000  Uiso   1.00
N138   N     0.75061   0.92561   0.88845   0.00000  Uiso   1.00
C139   C     0.47173   0.13189   0.85941   0.00000  Uiso   1.00
C140   C     0.35803   0.12589   0.85040   0.00000  Uiso   1.00
C141   C     0.31286   0.98928   0.85574   0.00000  Uiso   1.00
C142   C     0.20771   0.00889   0.84575   0.00000  Uiso   1.00
C143   C     0.04000   0.97664   0.83404   0.00000  Uiso   1.00
C144   C     0.57099   0.25469   0.91734   0.00000  Uiso   1.00
C145   C     0.70487   0.22637   0.97896   0.00000  Uiso   1.00
C146   C     0.77898   0.35442   0.02531   0.00000  Uiso   1.00
C147   C     0.94191   0.52216   0.11750   0.00000  Uiso   1.00
C148   C     0.41325   0.20544   0.79182   0.00000  Uiso   1.00
C149   C     0.41453   0.13575   0.74791   0.00000  Uiso   1.00
C150   C     0.35587   0.22236   0.68859   0.00000  Uiso   1.00
C151   C     0.27389   0.31364   0.58589   0.00000  Uiso   1.00
C152   C     0.36532   0.40965   0.83215   0.00000  Uiso   1.00
C153   C     0.30024   0.27676   0.83559   0.00000  Uiso   1.00
C154   C     0.19512   0.29659   0.82558   0.00000  Uiso   1.00
C155   C     0.14980   0.16004   0.83091   0.00000  Uiso   1.00
C156   C     0.51320   0.40555   0.90253   0.00000  Uiso   1.00
C157   C     0.58713   0.53368   0.94880   0.00000  Uiso   1.00
C158   C     0.72108   0.50556   0.01047   0.00000  Uiso   1.00
C159   C     0.35545   0.35631   0.77701   0.00000  Uiso   1.00
C160   C     0.29679   0.44306   0.71774   0.00000  Uiso   1.00
C161   C     0.29797   0.37350   0.67375   0.00000  Uiso   1.00
H162   H     0.51674   0.01443   0.87094   0.00000  Uiso   1.00
H163   H     0.35762   0.87254   0.86721   0.00000  Uiso   1.00
H164   H     0.74957   0.10961   0.99040   0.00000  Uiso   1.00
H165   H     0.45927   0.01899   0.75939   0.00000  Uiso   1.00
H166   H     0.15576   0.78178   0.85657   0.00000  Uiso   1.00
H167   H     0.98221   0.28165   0.11631   0.00000  Uiso   1.00
H168   H     0.37006   0.09058   0.62917   0.00000  Uiso   1.00
H169   H     0.32032   0.52712   0.82062   0.00000  Uiso   1.00
H170   H     0.15042   0.41336   0.81412   0.00000  Uiso   1.00
H171   H     0.54237   0.65042   0.93732   0.00000  Uiso   1.00
H172   H     0.25207   0.55981   0.70630   0.00000  Uiso   1.00
H173   H     0.98759   0.22073   0.81349   0.00000  Uiso   1.00
H174   H     0.81404   0.72060   0.07323   0.00000  Uiso   1.00
H175   H     0.20189   0.52953   0.58609   0.00000  Uiso   1.00
O176   O     0.96348   0.91718   0.83169   0.00000  Uiso   1.00
O177   O     0.04775   0.57299   0.17245   0.00000  Uiso   1.00
O178   O     0.24463   0.32231   0.53333   0.00000  Uiso   1.00
N179   N     0.13948   0.90069   0.84731   0.00000  Uiso   1.00
N180   N     0.91215   0.36803   0.09016   0.00000  Uiso   1.00
N181   N     0.33988   0.18941   0.63473   0.00000  Uiso   1.00
N182   N     0.04898   0.13689   0.82412   0.00000  Uiso   1.00
N183   N     0.82166   0.60423   0.06697   0.00000  Uiso   1.00
N184   N     0.24939   0.42561   0.61155   0.00000  Uiso   1.00
