data_job_06336
_audit_creation_date              2018-12-19
_audit_creation_method            'Materials Studio'
_symmetry_space_group_name_H-M    'P1'
_symmetry_Int_Tables_number       1
_symmetry_cell_setting            triclinic
loop_
_symmetry_equiv_pos_as_xyz
  x,y,z
_cell_length_a                    13.6901
_cell_length_b                    18.5439
_cell_length_c                    19.2964
_cell_angle_alpha                 114.2830
_cell_angle_beta                  74.8650
_cell_angle_gamma                 80.1924
loop_
_atom_site_label
_atom_site_type_symbol
_atom_site_fract_x
_atom_site_fract_y
_atom_site_fract_z
_atom_site_U_iso_or_equiv
_atom_site_adp_type
_atom_site_occupancy
C1     C     0.21576   0.60306   0.10712   0.00000  Uiso   1.00
C2     C     0.21478   0.60303   0.18631   0.00000  Uiso   1.00
C3     C     0.24207   0.53278   0.19547   0.00000  Uiso   1.00
C4     C     0.23595   0.54591   0.27291   0.00000  Uiso   1.00
C5     C     0.23929   0.53361   0.38587   0.00000  Uiso   1.00
C6     C     0.10354   0.65434   0.12582   0.00000  Uiso   1.00
C7     C     0.03731   0.62723   0.08410   0.00000  Uiso   1.00
C8     C     0.93756   0.68357   0.11062   0.00000  Uiso   1.00
C9     C     0.76822   0.75095   0.12962   0.00000  Uiso   1.00
C10    C     0.28825   0.65341   0.09232   0.00000  Uiso   1.00
C11    C     0.37732   0.62554   0.02242   0.00000  Uiso   1.00
C12    C     0.43306   0.68110   0.02072   0.00000  Uiso   1.00
C13    C     0.55051   0.74704   0.98771   0.00000  Uiso   1.00
C14    C     0.15636   0.75131   0.22836   0.00000  Uiso   1.00
C15    C     0.18251   0.68355   0.25217   0.00000  Uiso   1.00
C16    C     0.17636   0.69680   0.32961   0.00000  Uiso   1.00
C17    C     0.20364   0.62658   0.33888   0.00000  Uiso   1.00
C18    C     0.07128   0.73486   0.19167   0.00000  Uiso   1.00
C19    C     0.97160   0.79126   0.21825   0.00000  Uiso   1.00
C20    C     0.90523   0.76424   0.17659   0.00000  Uiso   1.00
C21    C     0.25599   0.73394   0.15817   0.00000  Uiso   1.00
C22    C     0.31160   0.78956   0.15657   0.00000  Uiso   1.00
C23    C     0.40074   0.76177   0.08670   0.00000  Uiso   1.00
H24    H     0.24087   0.54037   0.05585   0.00000  Uiso   1.00
H25    H     0.26703   0.47047   0.14449   0.00000  Uiso   1.00
H26    H     0.06231   0.56492   0.03314   0.00000  Uiso   1.00
H27    H     0.40226   0.56322   0.97148   0.00000  Uiso   1.00
H28    H     0.28176   0.42848   0.27182   0.00000  Uiso   1.00
H29    H     0.85011   0.62764   0.03701   0.00000  Uiso   1.00
H30    H     0.56696   0.62406   0.90697   0.00000  Uiso   1.00
H31    H     0.13124   0.81401   0.27964   0.00000  Uiso   1.00
H32    H     0.15139   0.75912   0.38056   0.00000  Uiso   1.00
H33    H     0.94666   0.85357   0.26921   0.00000  Uiso   1.00
H34    H     0.28661   0.85187   0.20755   0.00000  Uiso   1.00
H35    H     0.18789   0.66277   0.46343   0.00000  Uiso   1.00
H36    H     0.75624   0.86192   0.22861   0.00000  Uiso   1.00
H37    H     0.47310   0.85834   0.09858   0.00000  Uiso   1.00
O38    O     0.25002   0.50458   0.42998   0.00000  Uiso   1.00
O39    O     0.68372   0.76587   0.12191   0.00000  Uiso   1.00
O40    O     0.62422   0.76117   0.95131   0.00000  Uiso   1.00
N41    N     0.25693   0.49115   0.30306   0.00000  Uiso   1.00
N42    N     0.85335   0.67735   0.08353   0.00000  Uiso   1.00
N43    N     0.52353   0.67401   0.96195   0.00000  Uiso   1.00
N44    N     0.20642   0.61722   0.40616   0.00000  Uiso   1.00
N45    N     0.80284   0.80341   0.18663   0.00000  Uiso   1.00
N46    N     0.47303   0.80007   0.06505   0.00000  Uiso   1.00
C47    C     0.33044   0.89056   0.50115   0.00000  Uiso   1.00
C48    C     0.40691   0.81222   0.42343   0.00000  Uiso   1.00
C49    C     0.44552   0.80538   0.34622   0.00000  Uiso   1.00
C50    C     0.51470   0.72836   0.28302   0.00000  Uiso   1.00
C51    C     0.62891   0.61700   0.16027   0.00000  Uiso   1.00
C52    C     0.23528   0.86614   0.53482   0.00000  Uiso   1.00
C53    C     0.12959   0.90465   0.55128   0.00000  Uiso   1.00
C54    C     0.05428   0.87303   0.58185   0.00000  Uiso   1.00
C55    C     0.90203   0.84543   0.63210   0.00000  Uiso   1.00
C56    C     0.38627   0.90790   0.56236   0.00000  Uiso   1.00
C57    C     0.40750   0.98153   0.60198   0.00000  Uiso   1.00
C58    C     0.45930   0.98507   0.65575   0.00000  Uiso   1.00
C59    C     0.54148   0.02231   0.74875   0.00000  Uiso   1.00
C60    C     0.38464   0.76593   0.52621   0.00000  Uiso   1.00
C61    C     0.43634   0.74452   0.43705   0.00000  Uiso   1.00
C62    C     0.50548   0.66749   0.37394   0.00000  Uiso   1.00
C63    C     0.54419   0.66055   0.29665   0.00000  Uiso   1.00
C64    C     0.26471   0.79845   0.54843   0.00000  Uiso   1.00
C65    C     0.18955   0.76677   0.57900   0.00000  Uiso   1.00
C66    C     0.08377   0.80521   0.59549   0.00000  Uiso   1.00
C67    C     0.41571   0.84021   0.57597   0.00000  Uiso   1.00
C68    C     0.46747   0.84364   0.62970   0.00000  Uiso   1.00
C69    C     0.48879   0.91726   0.66939   0.00000  Uiso   1.00
H70    H     0.30752   0.94326   0.49055   0.00000  Uiso   1.00
H71    H     0.42272   0.85778   0.33571   0.00000  Uiso   1.00
H72    H     0.10683   0.95704   0.54074   0.00000  Uiso   1.00
H73    H     0.38471   0.03390   0.59143   0.00000  Uiso   1.00
H74    H     0.56338   0.73315   0.17004   0.00000  Uiso   1.00
H75    H     0.89732   0.94247   0.60238   0.00000  Uiso   1.00
H76    H     0.48328   0.10455   0.70928   0.00000  Uiso   1.00
H77    H     0.40755   0.71323   0.53680   0.00000  Uiso   1.00
H78    H     0.52825   0.61512   0.38449   0.00000  Uiso   1.00
H79    H     0.21236   0.71438   0.58953   0.00000  Uiso   1.00
H80    H     0.49024   0.79125   0.64022   0.00000  Uiso   1.00
H81    H     0.64903   0.53620   0.20963   0.00000  Uiso   1.00
H82    H     0.98296   0.74552   0.64198   0.00000  Uiso   1.00
H83    H     0.56893   0.90760   0.74887   0.00000  Uiso   1.00
O84    O     0.68377   0.57428   0.08880   0.00000  Uiso   1.00
O85    O     0.80991   0.84891   0.65604   0.00000  Uiso   1.00
O86    O     0.57869   0.06155   0.79627   0.00000  Uiso   1.00
N87    N     0.56699   0.70026   0.20026   0.00000  Uiso   1.00
N88    N     0.94426   0.89596   0.60447   0.00000  Uiso   1.00
N89    N     0.49207   0.04750   0.70442   0.00000  Uiso   1.00
N90    N     0.61308   0.59429   0.22156   0.00000  Uiso   1.00
N91    N     0.99035   0.78998   0.62577   0.00000  Uiso   1.00
N92    N     0.53815   0.94152   0.72572   0.00000  Uiso   1.00
C93    C     0.82975   0.48965   0.38878   0.00000  Uiso   1.00
C94    C     0.83261   0.57110   0.38785   0.00000  Uiso   1.00
C95    C     0.79575   0.64933   0.45610   0.00000  Uiso   1.00
C96    C     0.80549   0.71607   0.44237   0.00000  Uiso   1.00
C97    C     0.80303   0.84425   0.45296   0.00000  Uiso   1.00
C98    C     0.76890   0.45223   0.33455   0.00000  Uiso   1.00
C99    C     0.67849   0.43052   0.35799   0.00000  Uiso   1.00
C100   C     0.63462   0.39720   0.29938   0.00000  Uiso   1.00
C101   C     0.53330   0.34078   0.22720   0.00000  Uiso   1.00
C102   C     0.94451   0.43151   0.34406   0.00000  Uiso   1.00
C103   C     0.00175   0.39234   0.37549   0.00000  Uiso   1.00
C104   C     0.10573   0.34155   0.32489   0.00000  Uiso   1.00
C105   C     0.27708   0.25295   0.26748   0.00000  Uiso   1.00
C106   C     0.91261   0.46907   0.24302   0.00000  Uiso   1.00
C107   C     0.87761   0.55992   0.30867   0.00000  Uiso   1.00
C108   C     0.88742   0.62657   0.29483   0.00000  Uiso   1.00
C109   C     0.85058   0.70488   0.36306   0.00000  Uiso   1.00
C110   C     0.81390   0.44106   0.25538   0.00000  Uiso   1.00
C111   C     0.77016   0.40776   0.19672   0.00000  Uiso   1.00
C112   C     0.67970   0.38600   0.22007   0.00000  Uiso   1.00
C113   C     0.98952   0.42033   0.26489   0.00000  Uiso   1.00
C114   C     0.09343   0.36958   0.21422   0.00000  Uiso   1.00
C115   C     0.15082   0.33035   0.24557   0.00000  Uiso   1.00
H116   H     0.79471   0.49834   0.45042   0.00000  Uiso   1.00
H117   H     0.76091   0.65795   0.51737   0.00000  Uiso   1.00
H118   H     0.64369   0.43917   0.41926   0.00000  Uiso   1.00
H119   H     0.96690   0.40100   0.43676   0.00000  Uiso   1.00
H120   H     0.74326   0.82998   0.55667   0.00000  Uiso   1.00
H121   H     0.49610   0.36864   0.34980   0.00000  Uiso   1.00
H122   H     0.17766   0.28815   0.38671   0.00000  Uiso   1.00
H123   H     0.94765   0.46037   0.18137   0.00000  Uiso   1.00
H124   H     0.92225   0.61790   0.23356   0.00000  Uiso   1.00
H125   H     0.80502   0.39911   0.13545   0.00000  Uiso   1.00
H126   H     0.12823   0.36095   0.15296   0.00000  Uiso   1.00
H127   H     0.87420   0.79748   0.32632   0.00000  Uiso   1.00
H128   H     0.62704   0.33612   0.11945   0.00000  Uiso   1.00
H129   H     0.30860   0.25565   0.15636   0.00000  Uiso   1.00
O130   O     0.78922   0.91804   0.48067   0.00000  Uiso   1.00
O131   O     0.46498   0.31276   0.20927   0.00000  Uiso   1.00
O132   O     0.35916   0.20718   0.25769   0.00000  Uiso   1.00
N133   N     0.77758   0.80071   0.49529   0.00000  Uiso   1.00
N134   N     0.54649   0.36939   0.30189   0.00000  Uiso   1.00
N135   N     0.18368   0.29413   0.33639   0.00000  Uiso   1.00
N136   N     0.84804   0.78322   0.37135   0.00000  Uiso   1.00
N137   N     0.61695   0.35190   0.17794   0.00000  Uiso   1.00
N138   N     0.25414   0.27664   0.21244   0.00000  Uiso   1.00
C139   C     0.78424   0.39694   0.89288   0.00000  Uiso   1.00
C140   C     0.78522   0.39697   0.81369   0.00000  Uiso   1.00
C141   C     0.75793   0.46722   0.80453   0.00000  Uiso   1.00
C142   C     0.76405   0.45409   0.72709   0.00000  Uiso   1.00
C143   C     0.76071   0.46639   0.61413   0.00000  Uiso   1.00
C144   C     0.89646   0.34566   0.87418   0.00000  Uiso   1.00
C145   C     0.96269   0.37277   0.91590   0.00000  Uiso   1.00
C146   C     0.06244   0.31643   0.88938   0.00000  Uiso   1.00
C147   C     0.23178   0.24905   0.87038   0.00000  Uiso   1.00
C148   C     0.71175   0.34659   0.90768   0.00000  Uiso   1.00
C149   C     0.62268   0.37446   0.97757   0.00000  Uiso   1.00
C150   C     0.56694   0.31890   0.97928   0.00000  Uiso   1.00
C151   C     0.44949   0.25296   0.01229   0.00000  Uiso   1.00
C152   C     0.84364   0.24869   0.77164   0.00000  Uiso   1.00
C153   C     0.81749   0.31645   0.74783   0.00000  Uiso   1.00
C154   C     0.82364   0.30320   0.67039   0.00000  Uiso   1.00
C155   C     0.79636   0.37342   0.66112   0.00000  Uiso   1.00
C156   C     0.92872   0.26514   0.80833   0.00000  Uiso   1.00
C157   C     0.02840   0.20874   0.78175   0.00000  Uiso   1.00
C158   C     0.09477   0.23576   0.82341   0.00000  Uiso   1.00
C159   C     0.74401   0.26606   0.84183   0.00000  Uiso   1.00
C160   C     0.68840   0.21044   0.84343   0.00000  Uiso   1.00
C161   C     0.59926   0.23823   0.91330   0.00000  Uiso   1.00
H162   H     0.75912   0.45963   0.94415   0.00000  Uiso   1.00
H163   H     0.73297   0.52953   0.85551   0.00000  Uiso   1.00
H164   H     0.93769   0.43508   0.96686   0.00000  Uiso   1.00
H165   H     0.59774   0.43678   0.02852   0.00000  Uiso   1.00
H166   H     0.71824   0.57152   0.72818   0.00000  Uiso   1.00
H167   H     0.14989   0.37236   0.96299   0.00000  Uiso   1.00
H168   H     0.43303   0.37594   0.09303   0.00000  Uiso   1.00
H169   H     0.86876   0.18599   0.72036   0.00000  Uiso   1.00
H170   H     0.84861   0.24088   0.61944   0.00000  Uiso   1.00
H171   H     0.05334   0.14643   0.73079   0.00000  Uiso   1.00
H172   H     0.71339   0.14813   0.79245   0.00000  Uiso   1.00
H173   H     0.81211   0.33723   0.53657   0.00000  Uiso   1.00
H174   H     0.24376   0.13808   0.77139   0.00000  Uiso   1.00
H175   H     0.52690   0.14166   0.90142   0.00000  Uiso   1.00
O176   O     0.74998   0.49542   0.57002   0.00000  Uiso   1.00
O177   O     0.31628   0.23413   0.87809   0.00000  Uiso   1.00
O178   O     0.37578   0.23883   0.04869   0.00000  Uiso   1.00
N179   N     0.74307   0.50884   0.69694   0.00000  Uiso   1.00
N180   N     0.14665   0.32265   0.91647   0.00000  Uiso   1.00
N181   N     0.47647   0.32599   0.03805   0.00000  Uiso   1.00
N182   N     0.79358   0.38278   0.59384   0.00000  Uiso   1.00
N183   N     0.19716   0.19659   0.81337   0.00000  Uiso   1.00
N184   N     0.52697   0.19993   0.93495   0.00000  Uiso   1.00
C185   C     0.66956   0.10944   0.49885   0.00000  Uiso   1.00
C186   C     0.59309   0.18778   0.57657   0.00000  Uiso   1.00
C187   C     0.55448   0.19462   0.65378   0.00000  Uiso   1.00
C188   C     0.48530   0.27164   0.71698   0.00000  Uiso   1.00
C189   C     0.37109   0.38300   0.83973   0.00000  Uiso   1.00
C190   C     0.76472   0.13386   0.46518   0.00000  Uiso   1.00
C191   C     0.87041   0.09535   0.44872   0.00000  Uiso   1.00
C192   C     0.94572   0.12697   0.41815   0.00000  Uiso   1.00
C193   C     0.09797   0.15457   0.36790   0.00000  Uiso   1.00
C194   C     0.61373   0.09210   0.43764   0.00000  Uiso   1.00
C195   C     0.59249   0.01847   0.39802   0.00000  Uiso   1.00
C196   C     0.54070   0.01493   0.34425   0.00000  Uiso   1.00
C197   C     0.45852   0.97769   0.25125   0.00000  Uiso   1.00
C198   C     0.61536   0.23407   0.47379   0.00000  Uiso   1.00
C199   C     0.56366   0.25547   0.56295   0.00000  Uiso   1.00
C200   C     0.49452   0.33251   0.62606   0.00000  Uiso   1.00
C201   C     0.45581   0.33945   0.70335   0.00000  Uiso   1.00
C202   C     0.73529   0.20155   0.45157   0.00000  Uiso   1.00
C203   C     0.81045   0.23323   0.42100   0.00000  Uiso   1.00
C204   C     0.91623   0.19479   0.40451   0.00000  Uiso   1.00
C205   C     0.58429   0.15979   0.42403   0.00000  Uiso   1.00
C206   C     0.53253   0.15636   0.37030   0.00000  Uiso   1.00
C207   C     0.51121   0.08274   0.33061   0.00000  Uiso   1.00
H208   H     0.69248   0.05674   0.50945   0.00000  Uiso   1.00
H209   H     0.57728   0.14222   0.66429   0.00000  Uiso   1.00
H210   H     0.89317   0.04296   0.45926   0.00000  Uiso   1.00
H211   H     0.61529   0.96610   0.40857   0.00000  Uiso   1.00
H212   H     0.43662   0.26685   0.82996   0.00000  Uiso   1.00
H213   H     0.10268   0.05753   0.39762   0.00000  Uiso   1.00
H214   H     0.51672   0.89545   0.29072   0.00000  Uiso   1.00
H215   H     0.59245   0.28677   0.46320   0.00000  Uiso   1.00
H216   H     0.47175   0.38488   0.61551   0.00000  Uiso   1.00
H217   H     0.78764   0.28562   0.41047   0.00000  Uiso   1.00
H218   H     0.50976   0.20875   0.35978   0.00000  Uiso   1.00
H219   H     0.35097   0.46380   0.79037   0.00000  Uiso   1.00
H220   H     0.01704   0.25448   0.35802   0.00000  Uiso   1.00
H221   H     0.43107   0.09240   0.25113   0.00000  Uiso   1.00
O222   O     0.31623   0.42572   0.91120   0.00000  Uiso   1.00
O223   O     0.19009   0.15109   0.34396   0.00000  Uiso   1.00
O224   O     0.42131   0.93845   0.20373   0.00000  Uiso   1.00
N225   N     0.43300   0.29973   0.79974   0.00000  Uiso   1.00
N226   N     0.05574   0.10404   0.39553   0.00000  Uiso   1.00
N227   N     0.50793   0.95250   0.29558   0.00000  Uiso   1.00
N228   N     0.38692   0.40571   0.77844   0.00000  Uiso   1.00
N229   N     0.00965   0.21002   0.37423   0.00000  Uiso   1.00
N230   N     0.46185   0.05848   0.27428   0.00000  Uiso   1.00
C231   C     0.17025   0.51035   0.61122   0.00000  Uiso   1.00
C232   C     0.16739   0.42890   0.61215   0.00000  Uiso   1.00
C233   C     0.20425   0.35067   0.54390   0.00000  Uiso   1.00
C234   C     0.19451   0.28392   0.55763   0.00000  Uiso   1.00
C235   C     0.19697   0.15575   0.54704   0.00000  Uiso   1.00
C236   C     0.23110   0.54777   0.66545   0.00000  Uiso   1.00
C237   C     0.32151   0.56948   0.64201   0.00000  Uiso   1.00
C238   C     0.36538   0.60280   0.70062   0.00000  Uiso   1.00
C239   C     0.46670   0.65922   0.77280   0.00000  Uiso   1.00
C240   C     0.05549   0.56849   0.65594   0.00000  Uiso   1.00
C241   C     0.99825   0.60766   0.62451   0.00000  Uiso   1.00
C242   C     0.89427   0.65845   0.67511   0.00000  Uiso   1.00
C243   C     0.72292   0.74705   0.73252   0.00000  Uiso   1.00
C244   C     0.08739   0.53093   0.75698   0.00000  Uiso   1.00
C245   C     0.12239   0.44008   0.69133   0.00000  Uiso   1.00
C246   C     0.11258   0.37343   0.70517   0.00000  Uiso   1.00
C247   C     0.14942   0.29512   0.63694   0.00000  Uiso   1.00
C248   C     0.18610   0.55894   0.74462   0.00000  Uiso   1.00
C249   C     0.22984   0.59224   0.80328   0.00000  Uiso   1.00
C250   C     0.32030   0.61400   0.77993   0.00000  Uiso   1.00
C251   C     0.01048   0.57967   0.73511   0.00000  Uiso   1.00
C252   C     0.90657   0.63042   0.78578   0.00000  Uiso   1.00
C253   C     0.84918   0.66965   0.75443   0.00000  Uiso   1.00
H254   H     0.20529   0.50166   0.54958   0.00000  Uiso   1.00
H255   H     0.23909   0.34205   0.48263   0.00000  Uiso   1.00
H256   H     0.35631   0.56083   0.58074   0.00000  Uiso   1.00
H257   H     0.03310   0.59900   0.56324   0.00000  Uiso   1.00
H258   H     0.25674   0.17002   0.44333   0.00000  Uiso   1.00
H259   H     0.50390   0.63136   0.65020   0.00000  Uiso   1.00
H260   H     0.82234   0.71185   0.61329   0.00000  Uiso   1.00
H261   H     0.05235   0.53963   0.81863   0.00000  Uiso   1.00
H262   H     0.07775   0.38210   0.76644   0.00000  Uiso   1.00
H263   H     0.19498   0.60089   0.86455   0.00000  Uiso   1.00
H264   H     0.87177   0.63905   0.84704   0.00000  Uiso   1.00
H265   H     0.12580   0.20252   0.67368   0.00000  Uiso   1.00
H266   H     0.37296   0.66388   0.88055   0.00000  Uiso   1.00
H267   H     0.69140   0.74435   0.84364   0.00000  Uiso   1.00
O268   O     0.21078   0.08196   0.51933   0.00000  Uiso   1.00
O269   O     0.53502   0.68724   0.79073   0.00000  Uiso   1.00
O270   O     0.64084   0.79282   0.74231   0.00000  Uiso   1.00
N271   N     0.22242   0.19929   0.50470   0.00000  Uiso   1.00
N272   N     0.45351   0.63061   0.69811   0.00000  Uiso   1.00
N273   N     0.81632   0.70587   0.66361   0.00000  Uiso   1.00
N274   N     0.15196   0.21678   0.62865   0.00000  Uiso   1.00
N275   N     0.38305   0.64810   0.82206   0.00000  Uiso   1.00
N276   N     0.74586   0.72336   0.78756   0.00000  Uiso   1.00
