data_job_02681
_audit_creation_date              2018-12-19
_audit_creation_method            'Materials Studio'
_symmetry_space_group_name_H-M    'P1'
_symmetry_Int_Tables_number       1
_symmetry_cell_setting            triclinic
loop_
_symmetry_equiv_pos_as_xyz
  x,y,z
_cell_length_a                    10.7269
_cell_length_b                    19.0081
_cell_length_c                    12.4804
_cell_angle_alpha                 90.0000
_cell_angle_beta                  90.0000
_cell_angle_gamma                 90.0000
loop_
_atom_site_label
_atom_site_type_symbol
_atom_site_fract_x
_atom_site_fract_y
_atom_site_fract_z
_atom_site_U_iso_or_equiv
_atom_site_adp_type
_atom_site_occupancy
C1     C     0.10269   0.79792   0.47311   0.00000  Uiso   1.00
C2     C     0.00022   0.82115   0.39617   0.00000  Uiso   1.00
C3     C     0.96270   0.78529   0.30484   0.00000  Uiso   1.00
C4     C     0.86733   0.81524   0.24504   0.00000  Uiso   1.00
C5     C     0.71675   0.84167   0.12089   0.00000  Uiso   1.00
C6     C     0.19531   0.85869   0.47815   0.00000  Uiso   1.00
C7     C     0.32181   0.85439   0.45577   0.00000  Uiso   1.00
C8     C     0.39066   0.91594   0.46501   0.00000  Uiso   1.00
C9     C     0.54297   0.00064   0.46822   0.00000  Uiso   1.00
C10    C     0.04221   0.79407   0.58353   0.00000  Uiso   1.00
C11    C     0.04002   0.73544   0.64977   0.00000  Uiso   1.00
C12    C     0.98001   0.74259   0.74774   0.00000  Uiso   1.00
C13    C     0.89462   0.72696   0.91456   0.00000  Uiso   1.00
C14    C     0.00005   0.91489   0.52932   0.00000  Uiso   1.00
C15    C     0.94447   0.88469   0.42670   0.00000  Uiso   1.00
C16    C     0.84913   0.91470   0.36703   0.00000  Uiso   1.00
C17    C     0.81147   0.87888   0.27563   0.00000  Uiso   1.00
C18    C     0.13956   0.92222   0.50868   0.00000  Uiso   1.00
C19    C     0.20824   0.98380   0.51796   0.00000  Uiso   1.00
C20    C     0.33481   0.97959   0.49560   0.00000  Uiso   1.00
C21    C     0.98646   0.85760   0.61406   0.00000  Uiso   1.00
C22    C     0.92645   0.86485   0.71195   0.00000  Uiso   1.00
C23    C     0.92416   0.80624   0.77832   0.00000  Uiso   1.00
H24    H     0.14610   0.74846   0.44934   0.00000  Uiso   1.00
H25    H     0.00588   0.73613   0.28123   0.00000  Uiso   1.00
H26    H     0.36493   0.80521   0.43216   0.00000  Uiso   1.00
H27    H     0.08318   0.68629   0.62611   0.00000  Uiso   1.00
H28    H     0.82585   0.75048   0.10829   0.00000  Uiso   1.00
H29    H     0.58294   0.89615   0.42656   0.00000  Uiso   1.00
H30    H     0.98882   0.64537   0.83556   0.00000  Uiso   1.00
H31    H     0.95664   0.96435   0.55310   0.00000  Uiso   1.00
H32    H     0.80601   0.96386   0.39068   0.00000  Uiso   1.00
H33    H     0.16507   0.03295   0.54160   0.00000  Uiso   1.00
H34    H     0.88332   0.91402   0.73555   0.00000  Uiso   1.00
H35    H     0.66363   0.93533   0.19712   0.00000  Uiso   1.00
H36    H     0.42073   0.08099   0.51539   0.00000  Uiso   1.00
H37    H     0.82661   0.83021   0.92439   0.00000  Uiso   1.00
O38    O     0.64910   0.83870   0.04397   0.00000  Uiso   1.00
O39    O     0.64238   0.02981   0.46155   0.00000  Uiso   1.00
O40    O     0.86290   0.70078   0.99814   0.00000  Uiso   1.00
N41    N     0.80833   0.79405   0.15150   0.00000  Uiso   1.00
N42    N     0.51616   0.93024   0.44905   0.00000  Uiso   1.00
N43    N     0.96074   0.69578   0.83144   0.00000  Uiso   1.00
N44    N     0.72104   0.89351   0.19930   0.00000  Uiso   1.00
N45    N     0.42887   0.02970   0.49684   0.00000  Uiso   1.00
N46    N     0.87345   0.79524   0.87923   0.00000  Uiso   1.00
C47    C     0.89731   0.20208   0.97311   0.00000  Uiso   1.00
C48    C     0.99978   0.17885   0.89617   0.00000  Uiso   1.00
C49    C     0.03730   0.21471   0.80484   0.00000  Uiso   1.00
C50    C     0.13267   0.18476   0.74504   0.00000  Uiso   1.00
C51    C     0.28325   0.15833   0.62089   0.00000  Uiso   1.00
C52    C     0.80469   0.14131   0.97815   0.00000  Uiso   1.00
C53    C     0.67819   0.14561   0.95577   0.00000  Uiso   1.00
C54    C     0.60934   0.08406   0.96501   0.00000  Uiso   1.00
C55    C     0.45703   0.99936   0.96822   0.00000  Uiso   1.00
C56    C     0.95779   0.20593   0.08353   0.00000  Uiso   1.00
C57    C     0.95998   0.26456   0.14977   0.00000  Uiso   1.00
C58    C     0.01999   0.25741   0.24774   0.00000  Uiso   1.00
C59    C     0.10538   0.27304   0.41456   0.00000  Uiso   1.00
C60    C     0.99995   0.08511   0.02932   0.00000  Uiso   1.00
C61    C     0.05553   0.11531   0.92670   0.00000  Uiso   1.00
C62    C     0.15087   0.08530   0.86703   0.00000  Uiso   1.00
C63    C     0.18853   0.12112   0.77563   0.00000  Uiso   1.00
C64    C     0.86044   0.07778   0.00868   0.00000  Uiso   1.00
C65    C     0.79176   0.01620   0.01796   0.00000  Uiso   1.00
C66    C     0.66519   0.02041   0.99560   0.00000  Uiso   1.00
C67    C     0.01354   0.14240   0.11406   0.00000  Uiso   1.00
C68    C     0.07355   0.13515   0.21195   0.00000  Uiso   1.00
C69    C     0.07584   0.19376   0.27832   0.00000  Uiso   1.00
H70    H     0.85390   0.25154   0.94934   0.00000  Uiso   1.00
H71    H     0.99412   0.26387   0.78123   0.00000  Uiso   1.00
H72    H     0.63507   0.19479   0.93216   0.00000  Uiso   1.00
H73    H     0.91682   0.31371   0.12611   0.00000  Uiso   1.00
H74    H     0.17415   0.24952   0.60829   0.00000  Uiso   1.00
H75    H     0.41706   0.10385   0.92656   0.00000  Uiso   1.00
H76    H     0.01118   0.35463   0.33556   0.00000  Uiso   1.00
H77    H     0.04336   0.03565   0.05310   0.00000  Uiso   1.00
H78    H     0.19399   0.03614   0.89068   0.00000  Uiso   1.00
H79    H     0.83493   0.96705   0.04160   0.00000  Uiso   1.00
H80    H     0.11668   0.08598   0.23555   0.00000  Uiso   1.00
H81    H     0.33637   0.06467   0.69712   0.00000  Uiso   1.00
H82    H     0.57927   0.91901   0.01539   0.00000  Uiso   1.00
H83    H     0.17339   0.16979   0.42439   0.00000  Uiso   1.00
O84    O     0.35090   0.16130   0.54397   0.00000  Uiso   1.00
O85    O     0.35762   0.97019   0.96155   0.00000  Uiso   1.00
O86    O     0.13710   0.29922   0.49814   0.00000  Uiso   1.00
N87    N     0.19167   0.20595   0.65150   0.00000  Uiso   1.00
N88    N     0.48384   0.06976   0.94905   0.00000  Uiso   1.00
N89    N     0.03926   0.30422   0.33144   0.00000  Uiso   1.00
N90    N     0.27896   0.10649   0.69930   0.00000  Uiso   1.00
N91    N     0.57113   0.97030   0.99684   0.00000  Uiso   1.00
N92    N     0.12655   0.20476   0.37923   0.00000  Uiso   1.00
C93    C     0.60269   0.70208   0.47311   0.00000  Uiso   1.00
C94    C     0.50022   0.67885   0.39617   0.00000  Uiso   1.00
C95    C     0.46270   0.71471   0.30484   0.00000  Uiso   1.00
C96    C     0.36733   0.68476   0.24504   0.00000  Uiso   1.00
C97    C     0.21675   0.65833   0.12089   0.00000  Uiso   1.00
C98    C     0.69531   0.64131   0.47815   0.00000  Uiso   1.00
C99    C     0.82181   0.64561   0.45577   0.00000  Uiso   1.00
C100   C     0.89066   0.58406   0.46501   0.00000  Uiso   1.00
C101   C     0.04297   0.49936   0.46822   0.00000  Uiso   1.00
C102   C     0.54221   0.70593   0.58353   0.00000  Uiso   1.00
C103   C     0.54002   0.76456   0.64977   0.00000  Uiso   1.00
C104   C     0.48001   0.75741   0.74774   0.00000  Uiso   1.00
C105   C     0.39462   0.77304   0.91456   0.00000  Uiso   1.00
C106   C     0.50005   0.58511   0.52932   0.00000  Uiso   1.00
C107   C     0.44447   0.61531   0.42670   0.00000  Uiso   1.00
C108   C     0.34913   0.58530   0.36703   0.00000  Uiso   1.00
C109   C     0.31147   0.62112   0.27563   0.00000  Uiso   1.00
C110   C     0.63956   0.57778   0.50868   0.00000  Uiso   1.00
C111   C     0.70824   0.51620   0.51796   0.00000  Uiso   1.00
C112   C     0.83481   0.52041   0.49560   0.00000  Uiso   1.00
C113   C     0.48646   0.64240   0.61406   0.00000  Uiso   1.00
C114   C     0.42645   0.63515   0.71195   0.00000  Uiso   1.00
C115   C     0.42416   0.69376   0.77832   0.00000  Uiso   1.00
H116   H     0.64610   0.75154   0.44934   0.00000  Uiso   1.00
H117   H     0.50588   0.76387   0.28123   0.00000  Uiso   1.00
H118   H     0.86493   0.69479   0.43216   0.00000  Uiso   1.00
H119   H     0.58318   0.81371   0.62611   0.00000  Uiso   1.00
H120   H     0.32585   0.74952   0.10829   0.00000  Uiso   1.00
H121   H     0.08294   0.60385   0.42656   0.00000  Uiso   1.00
H122   H     0.48882   0.85463   0.83556   0.00000  Uiso   1.00
H123   H     0.45664   0.53565   0.55310   0.00000  Uiso   1.00
H124   H     0.30601   0.53614   0.39068   0.00000  Uiso   1.00
H125   H     0.66507   0.46705   0.54160   0.00000  Uiso   1.00
H126   H     0.38332   0.58598   0.73555   0.00000  Uiso   1.00
H127   H     0.16363   0.56467   0.19712   0.00000  Uiso   1.00
H128   H     0.92073   0.41901   0.51539   0.00000  Uiso   1.00
H129   H     0.32661   0.66979   0.92439   0.00000  Uiso   1.00
O130   O     0.14910   0.66130   0.04397   0.00000  Uiso   1.00
O131   O     0.14238   0.47019   0.46155   0.00000  Uiso   1.00
O132   O     0.36290   0.79922   0.99814   0.00000  Uiso   1.00
N133   N     0.30833   0.70595   0.15150   0.00000  Uiso   1.00
N134   N     0.01616   0.56976   0.44905   0.00000  Uiso   1.00
N135   N     0.46074   0.80422   0.83144   0.00000  Uiso   1.00
N136   N     0.22104   0.60649   0.19930   0.00000  Uiso   1.00
N137   N     0.92887   0.47030   0.49684   0.00000  Uiso   1.00
N138   N     0.37345   0.70476   0.87923   0.00000  Uiso   1.00
C139   C     0.39731   0.29792   0.97311   0.00000  Uiso   1.00
C140   C     0.49978   0.32115   0.89617   0.00000  Uiso   1.00
C141   C     0.53730   0.28529   0.80484   0.00000  Uiso   1.00
C142   C     0.63267   0.31524   0.74504   0.00000  Uiso   1.00
C143   C     0.78325   0.34167   0.62089   0.00000  Uiso   1.00
C144   C     0.30469   0.35869   0.97815   0.00000  Uiso   1.00
C145   C     0.17819   0.35439   0.95577   0.00000  Uiso   1.00
C146   C     0.10934   0.41594   0.96501   0.00000  Uiso   1.00
C147   C     0.95703   0.50064   0.96822   0.00000  Uiso   1.00
C148   C     0.45779   0.29407   0.08353   0.00000  Uiso   1.00
C149   C     0.45998   0.23544   0.14977   0.00000  Uiso   1.00
C150   C     0.51999   0.24259   0.24774   0.00000  Uiso   1.00
C151   C     0.60538   0.22696   0.41456   0.00000  Uiso   1.00
C152   C     0.49995   0.41489   0.02932   0.00000  Uiso   1.00
C153   C     0.55553   0.38469   0.92670   0.00000  Uiso   1.00
C154   C     0.65087   0.41470   0.86703   0.00000  Uiso   1.00
C155   C     0.68853   0.37888   0.77563   0.00000  Uiso   1.00
C156   C     0.36044   0.42222   0.00868   0.00000  Uiso   1.00
C157   C     0.29176   0.48380   0.01796   0.00000  Uiso   1.00
C158   C     0.16519   0.47959   0.99560   0.00000  Uiso   1.00
C159   C     0.51354   0.35760   0.11406   0.00000  Uiso   1.00
C160   C     0.57355   0.36485   0.21195   0.00000  Uiso   1.00
C161   C     0.57584   0.30624   0.27832   0.00000  Uiso   1.00
H162   H     0.35390   0.24846   0.94934   0.00000  Uiso   1.00
H163   H     0.49412   0.23613   0.78123   0.00000  Uiso   1.00
H164   H     0.13507   0.30521   0.93216   0.00000  Uiso   1.00
H165   H     0.41682   0.18629   0.12611   0.00000  Uiso   1.00
H166   H     0.67415   0.25048   0.60829   0.00000  Uiso   1.00
H167   H     0.91706   0.39615   0.92656   0.00000  Uiso   1.00
H168   H     0.51118   0.14537   0.33556   0.00000  Uiso   1.00
H169   H     0.54336   0.46435   0.05310   0.00000  Uiso   1.00
H170   H     0.69399   0.46386   0.89068   0.00000  Uiso   1.00
H171   H     0.33493   0.53295   0.04160   0.00000  Uiso   1.00
H172   H     0.61668   0.41402   0.23555   0.00000  Uiso   1.00
H173   H     0.83637   0.43533   0.69712   0.00000  Uiso   1.00
H174   H     0.07927   0.58099   0.01539   0.00000  Uiso   1.00
H175   H     0.67339   0.33021   0.42439   0.00000  Uiso   1.00
O176   O     0.85090   0.33870   0.54397   0.00000  Uiso   1.00
O177   O     0.85762   0.52981   0.96155   0.00000  Uiso   1.00
O178   O     0.63710   0.20078   0.49814   0.00000  Uiso   1.00
N179   N     0.69167   0.29405   0.65150   0.00000  Uiso   1.00
N180   N     0.98384   0.43024   0.94905   0.00000  Uiso   1.00
N181   N     0.53926   0.19578   0.33144   0.00000  Uiso   1.00
N182   N     0.77896   0.39351   0.69930   0.00000  Uiso   1.00
N183   N     0.07113   0.52970   0.99684   0.00000  Uiso   1.00
N184   N     0.62655   0.29524   0.37923   0.00000  Uiso   1.00
