data_job_06883
_audit_creation_date              2018-12-19
_audit_creation_method            'Materials Studio'
_symmetry_space_group_name_H-M    'P1'
_symmetry_Int_Tables_number       1
_symmetry_cell_setting            triclinic
loop_
_symmetry_equiv_pos_as_xyz
  x,y,z
_cell_length_a                    19.1896
_cell_length_b                    19.2606
_cell_length_c                    24.6766
_cell_angle_alpha                 103.5183
_cell_angle_beta                  103.3371
_cell_angle_gamma                 65.2783
loop_
_atom_site_label
_atom_site_type_symbol
_atom_site_fract_x
_atom_site_fract_y
_atom_site_fract_z
_atom_site_U_iso_or_equiv
_atom_site_adp_type
_atom_site_occupancy
C1     C     0.03619   0.62618   0.70171   0.00000  Uiso   1.00
C2     C     0.10696   0.55058   0.69558   0.00000  Uiso   1.00
C3     C     0.13640   0.49562   0.73136   0.00000  Uiso   1.00
C4     C     0.20163   0.43037   0.71853   0.00000  Uiso   1.00
C5     C     0.30630   0.31450   0.71617   0.00000  Uiso   1.00
C6     C     0.06406   0.69039   0.70400   0.00000  Uiso   1.00
C7     C     0.05742   0.75299   0.74687   0.00000  Uiso   1.00
C8     C     0.08653   0.80544   0.74112   0.00000  Uiso   1.00
C9     C     0.12454   0.90666   0.75181   0.00000  Uiso   1.00
C10    C     0.98105   0.62513   0.64634   0.00000  Uiso   1.00
C11    C     0.90461   0.63288   0.64071   0.00000  Uiso   1.00
C12    C     0.86382   0.63040   0.58641   0.00000  Uiso   1.00
C13    C     0.77295   0.63029   0.50756   0.00000  Uiso   1.00
C14    C     0.09967   0.60802   0.61529   0.00000  Uiso   1.00
C15    C     0.14145   0.54072   0.64864   0.00000  Uiso   1.00
C16    C     0.20664   0.47553   0.63575   0.00000  Uiso   1.00
C17    C     0.23618   0.42048   0.67151   0.00000  Uiso   1.00
C18    C     0.09854   0.68053   0.65707   0.00000  Uiso   1.00
C19    C     0.12766   0.73290   0.65125   0.00000  Uiso   1.00
C20    C     0.12107   0.79556   0.69410   0.00000  Uiso   1.00
C21    C     0.01553   0.61526   0.59939   0.00000  Uiso   1.00
C22    C     0.97485   0.61278   0.54509   0.00000  Uiso   1.00
C23    C     0.89836   0.62052   0.53938   0.00000  Uiso   1.00
H24    H     0.00934   0.63387   0.73826   0.00000  Uiso   1.00
H25    H     0.10971   0.50328   0.76769   0.00000  Uiso   1.00
H26    H     0.03073   0.76062   0.78318   0.00000  Uiso   1.00
H27    H     0.87794   0.64051   0.67704   0.00000  Uiso   1.00
H28    H     0.23620   0.35417   0.77963   0.00000  Uiso   1.00
H29    H     0.06965   0.89678   0.81229   0.00000  Uiso   1.00
H30    H     0.74747   0.64353   0.58847   0.00000  Uiso   1.00
H31    H     0.12652   0.60034   0.57875   0.00000  Uiso   1.00
H32    H     0.23332   0.46791   0.59942   0.00000  Uiso   1.00
H33    H     0.15434   0.72524   0.61492   0.00000  Uiso   1.00
H34    H     0.00155   0.60514   0.50878   0.00000  Uiso   1.00
H35    H     0.33653   0.32546   0.64306   0.00000  Uiso   1.00
H36    H     0.16997   0.86808   0.67572   0.00000  Uiso   1.00
H37    H     0.84780   0.61482   0.45190   0.00000  Uiso   1.00
O38    O     0.35452   0.25332   0.72784   0.00000  Uiso   1.00
O39    O     0.13599   0.96521   0.77068   0.00000  Uiso   1.00
O40    O     0.71330   0.63294   0.47703   0.00000  Uiso   1.00
N41    N     0.24515   0.36558   0.74464   0.00000  Uiso   1.00
N42    N     0.08944   0.87288   0.77519   0.00000  Uiso   1.00
N43    N     0.78822   0.63613   0.56593   0.00000  Uiso   1.00
N44    N     0.29913   0.35013   0.67116   0.00000  Uiso   1.00
N45    N     0.14343   0.85743   0.70170   0.00000  Uiso   1.00
N46    N     0.84221   0.62069   0.49245   0.00000  Uiso   1.00
C47    C     0.63743   0.99431   0.61605   0.00000  Uiso   1.00
C48    C     0.55439   0.00368   0.61568   0.00000  Uiso   1.00
C49    C     0.49327   0.07293   0.62892   0.00000  Uiso   1.00
C50    C     0.42173   0.06931   0.62608   0.00000  Uiso   1.00
C51    C     0.29432   0.09456   0.62788   0.00000  Uiso   1.00
C52    C     0.68876   0.93619   0.65569   0.00000  Uiso   1.00
C53    C     0.74063   0.94869   0.70258   0.00000  Uiso   1.00
C54    C     0.78221   0.88824   0.73341   0.00000  Uiso   1.00
C55    C     0.86344   0.80869   0.79732   0.00000  Uiso   1.00
C56    C     0.65656   0.95428   0.55718   0.00000  Uiso   1.00
C57    C     0.68137   0.98197   0.52125   0.00000  Uiso   1.00
C58    C     0.69586   0.93675   0.46914   0.00000  Uiso   1.00
C59    C     0.72710   0.88528   0.38010   0.00000  Uiso   1.00
C60    C     0.61906   0.86475   0.58743   0.00000  Uiso   1.00
C61    C     0.54441   0.93331   0.60013   0.00000  Uiso   1.00
C62    C     0.47295   0.92958   0.59726   0.00000  Uiso   1.00
C63    C     0.41174   0.99881   0.61050   0.00000  Uiso   1.00
C64    C     0.67878   0.86582   0.64015   0.00000  Uiso   1.00
C65    C     0.72030   0.80534   0.67091   0.00000  Uiso   1.00
C66    C     0.77221   0.81774   0.71784   0.00000  Uiso   1.00
C67    C     0.64658   0.88390   0.54164   0.00000  Uiso   1.00
C68    C     0.66104   0.83863   0.48958   0.00000  Uiso   1.00
C69    C     0.68586   0.86625   0.45357   0.00000  Uiso   1.00
H70    H     0.64520   0.04910   0.62816   0.00000  Uiso   1.00
H71    H     0.50102   0.12738   0.64096   0.00000  Uiso   1.00
H72    H     0.74834   0.00315   0.71459   0.00000  Uiso   1.00
H73    H     0.68909   0.03644   0.53329   0.00000  Uiso   1.00
H74    H     0.33677   0.18313   0.64831   0.00000  Uiso   1.00
H75    H     0.85828   0.92118   0.80357   0.00000  Uiso   1.00
H76    H     0.73334   0.99136   0.42126   0.00000  Uiso   1.00
H77    H     0.61129   0.80995   0.57533   0.00000  Uiso   1.00
H78    H     0.46524   0.87511   0.58523   0.00000  Uiso   1.00
H79    H     0.71257   0.75088   0.65887   0.00000  Uiso   1.00
H80    H     0.65331   0.78417   0.47756   0.00000  Uiso   1.00
H81    H     0.30774   0.97838   0.60308   0.00000  Uiso   1.00
H82    H     0.82925   0.71642   0.75834   0.00000  Uiso   1.00
H83    H     0.70430   0.78661   0.37603   0.00000  Uiso   1.00
O84    O     0.22680   0.12793   0.63318   0.00000  Uiso   1.00
O85    O     0.91100   0.78425   0.83687   0.00000  Uiso   1.00
O86    O     0.74708   0.87634   0.33528   0.00000  Uiso   1.00
N87    N     0.34998   0.12600   0.63630   0.00000  Uiso   1.00
N88    N     0.83755   0.88109   0.78146   0.00000  Uiso   1.00
N89    N     0.72076   0.94670   0.42404   0.00000  Uiso   1.00
N90    N     0.33435   0.01582   0.61196   0.00000  Uiso   1.00
N91    N     0.82192   0.77092   0.75712   0.00000  Uiso   1.00
N92    N     0.70513   0.83653   0.39970   0.00000  Uiso   1.00
C93    C     0.00838   0.13602   0.66441   0.00000  Uiso   1.00
C94    C     0.94907   0.19516   0.62793   0.00000  Uiso   1.00
C95    C     0.95843   0.25722   0.61568   0.00000  Uiso   1.00
C96    C     0.89739   0.30471   0.58153   0.00000  Uiso   1.00
C97    C     0.81561   0.39872   0.52813   0.00000  Uiso   1.00
C98    C     0.96693   0.13803   0.71091   0.00000  Uiso   1.00
C99    C     0.99132   0.15204   0.76843   0.00000  Uiso   1.00
C100   C     0.94532   0.15142   0.80413   0.00000  Uiso   1.00
C101   C     0.89131   0.15667   0.87955   0.00000  Uiso   1.00
C102   C     0.02344   0.05704   0.62776   0.00000  Uiso   1.00
C103   C     0.09534   0.00294   0.61536   0.00000  Uiso   1.00
C104   C     0.09691   0.93413   0.58106   0.00000  Uiso   1.00
C105   C     0.13064   0.81363   0.52736   0.00000  Uiso   1.00
C106   C     0.88334   0.11000   0.62555   0.00000  Uiso   1.00
C107   C     0.88115   0.18103   0.60683   0.00000  Uiso   1.00
C108   C     0.82009   0.22843   0.57268   0.00000  Uiso   1.00
C109   C     0.82935   0.29055   0.56038   0.00000  Uiso   1.00
C110   C     0.89902   0.12390   0.68981   0.00000  Uiso   1.00
C111   C     0.85298   0.12325   0.72543   0.00000  Uiso   1.00
C112   C     0.87728   0.13726   0.78298   0.00000  Uiso   1.00
C113   C     0.95552   0.04291   0.60665   0.00000  Uiso   1.00
C114   C     0.95699   0.97416   0.57236   0.00000  Uiso   1.00
C115   C     0.02888   0.91997   0.55991   0.00000  Uiso   1.00
H116   H     0.06125   0.14702   0.68085   0.00000  Uiso   1.00
H117   H     0.01099   0.26814   0.63203   0.00000  Uiso   1.00
H118   H     0.04388   0.16297   0.78475   0.00000  Uiso   1.00
H119   H     0.14788   0.01390   0.63170   0.00000  Uiso   1.00
H120   H     0.92531   0.39621   0.56861   0.00000  Uiso   1.00
H121   H     0.99467   0.17441   0.89063   0.00000  Uiso   1.00
H122   H     0.21397   0.86008   0.56790   0.00000  Uiso   1.00
H123   H     0.83046   0.09900   0.60912   0.00000  Uiso   1.00
H124   H     0.76754   0.21748   0.55636   0.00000  Uiso   1.00
H125   H     0.80043   0.11231   0.70908   0.00000  Uiso   1.00
H126   H     0.90442   0.96324   0.55603   0.00000  Uiso   1.00
H127   H     0.72771   0.35510   0.50720   0.00000  Uiso   1.00
H128   H     0.79708   0.13330   0.82922   0.00000  Uiso   1.00
H129   H     0.01637   0.81896   0.50649   0.00000  Uiso   1.00
O130   O     0.78927   0.45448   0.50451   0.00000  Uiso   1.00
O131   O     0.88028   0.16347   0.92698   0.00000  Uiso   1.00
O132   O     0.16800   0.75108   0.50357   0.00000  Uiso   1.00
N133   N     0.88744   0.37027   0.56139   0.00000  Uiso   1.00
N134   N     0.95229   0.16291   0.86246   0.00000  Uiso   1.00
N135   N     0.15732   0.86902   0.56075   0.00000  Uiso   1.00
N136   N     0.78112   0.34814   0.52834   0.00000  Uiso   1.00
N137   N     0.84596   0.14079   0.82941   0.00000  Uiso   1.00
N138   N     0.05099   0.84690   0.52770   0.00000  Uiso   1.00
C139   C     0.06897   0.47317   0.19056   0.00000  Uiso   1.00
C140   C     0.01945   0.54833   0.16697   0.00000  Uiso   1.00
C141   C     0.94109   0.59062   0.16969   0.00000  Uiso   1.00
C142   C     0.90628   0.65781   0.14561   0.00000  Uiso   1.00
C143   C     0.82299   0.77088   0.11294   0.00000  Uiso   1.00
C144   C     0.13656   0.48756   0.23088   0.00000  Uiso   1.00
C145   C     0.15667   0.47875   0.28734   0.00000  Uiso   1.00
C146   C     0.22046   0.49479   0.31705   0.00000  Uiso   1.00
C147   C     0.31902   0.51346   0.38359   0.00000  Uiso   1.00
C148   C     0.10405   0.41387   0.14122   0.00000  Uiso   1.00
C149   C     0.09684   0.34309   0.12228   0.00000  Uiso   1.00
C150   C     0.13327   0.29708   0.07652   0.00000  Uiso   1.00
C151   C     0.18134   0.20134   0.00384   0.00000  Uiso   1.00
C152   C     0.14652   0.51730   0.14296   0.00000  Uiso   1.00
C153   C     0.06157   0.57229   0.14111   0.00000  Uiso   1.00
C154   C     0.02688   0.63944   0.11702   0.00000  Uiso   1.00
C155   C     0.94847   0.68182   0.11970   0.00000  Uiso   1.00
C156   C     0.17868   0.51153   0.20503   0.00000  Uiso   1.00
C157   C     0.24246   0.52757   0.23467   0.00000  Uiso   1.00
C158   C     0.26266   0.51880   0.29115   0.00000  Uiso   1.00
C159   C     0.14617   0.43784   0.11536   0.00000  Uiso   1.00
C160   C     0.18262   0.39192   0.06961   0.00000  Uiso   1.00
C161   C     0.17546   0.32109   0.05061   0.00000  Uiso   1.00
H162   H     0.03619   0.45451   0.21070   0.00000  Uiso   1.00
H163   H     0.90851   0.57205   0.18971   0.00000  Uiso   1.00
H164   H     0.12407   0.46020   0.30733   0.00000  Uiso   1.00
H165   H     0.06424   0.32457   0.14231   0.00000  Uiso   1.00
H166   H     0.78554   0.71296   0.15506   0.00000  Uiso   1.00
H167   H     0.24007   0.47708   0.40307   0.00000  Uiso   1.00
H168   H     0.11391   0.19107   0.05508   0.00000  Uiso   1.00
H169   H     0.17931   0.53596   0.12283   0.00000  Uiso   1.00
H170   H     0.05949   0.65797   0.09701   0.00000  Uiso   1.00
H171   H     0.27504   0.54612   0.21464   0.00000  Uiso   1.00
H172   H     0.21521   0.41049   0.04961   0.00000  Uiso   1.00
H173   H     0.90808   0.78269   0.07983   0.00000  Uiso   1.00
H174   H     0.36261   0.54681   0.32784   0.00000  Uiso   1.00
H175   H     0.23644   0.26080   0.97984   0.00000  Uiso   1.00
O176   O     0.76541   0.82663   0.10207   0.00000  Uiso   1.00
O177   O     0.36174   0.51715   0.42744   0.00000  Uiso   1.00
O178   O     0.19621   0.14192   0.97088   0.00000  Uiso   1.00
N179   N     0.83082   0.71262   0.14089   0.00000  Uiso   1.00
N180   N     0.25577   0.49209   0.37276   0.00000  Uiso   1.00
N181   N     0.13784   0.22469   0.04743   0.00000  Uiso   1.00
N182   N     0.89676   0.75014   0.10040   0.00000  Uiso   1.00
N183   N     0.32171   0.52962   0.33228   0.00000  Uiso   1.00
N184   N     0.20377   0.26222   0.00695   0.00000  Uiso   1.00
C185   C     0.48955   0.00320   0.15321   0.00000  Uiso   1.00
C186   C     0.43638   0.96197   0.12029   0.00000  Uiso   1.00
C187   C     0.44564   0.88763   0.12373   0.00000  Uiso   1.00
C188   C     0.39075   0.86035   0.09020   0.00000  Uiso   1.00
C189   C     0.31759   0.78942   0.04454   0.00000  Uiso   1.00
C190   C     0.43777   0.07837   0.18503   0.00000  Uiso   1.00
C191   C     0.44821   0.10191   0.24290   0.00000  Uiso   1.00
C192   C     0.39450   0.17263   0.26386   0.00000  Uiso   1.00
C193   C     0.32352   0.28245   0.31870   0.00000  Uiso   1.00
C194   C     0.51640   0.02667   0.10930   0.00000  Uiso   1.00
C195   C     0.59297   0.00675   0.10350   0.00000  Uiso   1.00
C196   C     0.60546   0.03396   0.06071   0.00000  Uiso   1.00
C197   C     0.65657   0.06350   0.99797   0.00000  Uiso   1.00
C198   C     0.37559   0.08696   0.08754   0.00000  Uiso   1.00
C199   C     0.37448   0.00747   0.08463   0.00000  Uiso   1.00
C200   C     0.31956   0.98030   0.05107   0.00000  Uiso   1.00
C201   C     0.32875   0.90593   0.05446   0.00000  Uiso   1.00
C202   C     0.37587   0.12387   0.14936   0.00000  Uiso   1.00
C203   C     0.32213   0.19458   0.17024   0.00000  Uiso   1.00
C204   C     0.33249   0.21821   0.22813   0.00000  Uiso   1.00
C205   C     0.45451   0.07216   0.07363   0.00000  Uiso   1.00
C206   C     0.46688   0.09942   0.03084   0.00000  Uiso   1.00
C207   C     0.54345   0.07954   0.02497   0.00000  Uiso   1.00
H208   H     0.53774   0.96778   0.18098   0.00000  Uiso   1.00
H209   H     0.49355   0.85244   0.15135   0.00000  Uiso   1.00
H210   H     0.49612   0.06669   0.27049   0.00000  Uiso   1.00
H211   H     0.64085   0.97154   0.13111   0.00000  Uiso   1.00
H212   H     0.41725   0.74463   0.10278   0.00000  Uiso   1.00
H213   H     0.42268   0.19640   0.35400   0.00000  Uiso   1.00
H214   H     0.72787   0.99577   0.06009   0.00000  Uiso   1.00
H215   H     0.32740   0.12239   0.05977   0.00000  Uiso   1.00
H216   H     0.27167   0.01552   0.02347   0.00000  Uiso   1.00
H217   H     0.27424   0.22977   0.14262   0.00000  Uiso   1.00
H218   H     0.41897   0.13462   0.00324   0.00000  Uiso   1.00
H219   H     0.23716   0.87699   0.99899   0.00000  Uiso   1.00
H220   H     0.24260   0.32877   0.25022   0.00000  Uiso   1.00
H221   H     0.54779   0.12813   0.95631   0.00000  Uiso   1.00
O222   O     0.29432   0.73773   0.02921   0.00000  Uiso   1.00
O223   O     0.30147   0.33045   0.35881   0.00000  Uiso   1.00
O224   O     0.70187   0.06721   0.97321   0.00000  Uiso   1.00
N225   N     0.38252   0.79044   0.08332   0.00000  Uiso   1.00
N226   N     0.38760   0.21282   0.31820   0.00000  Uiso   1.00
N227   N     0.67292   0.02526   0.04343   0.00000  Uiso   1.00
N228   N     0.28562   0.86166   0.02748   0.00000  Uiso   1.00
N229   N     0.29069   0.28404   0.26236   0.00000  Uiso   1.00
N230   N     0.57602   0.09648   0.98759   0.00000  Uiso   1.00
C231   C     0.51857   0.51586   0.24850   0.00000  Uiso   1.00
C232   C     0.58034   0.49898   0.21255   0.00000  Uiso   1.00
C233   C     0.64012   0.52567   0.22739   0.00000  Uiso   1.00
C234   C     0.69066   0.50379   0.18868   0.00000  Uiso   1.00
C235   C     0.78796   0.48469   0.14074   0.00000  Uiso   1.00
C236   C     0.52341   0.43728   0.25547   0.00000  Uiso   1.00
C237   C     0.53532   0.41210   0.30639   0.00000  Uiso   1.00
C238   C     0.53792   0.33828   0.30381   0.00000  Uiso   1.00
C239   C     0.54677   0.22341   0.32249   0.00000  Uiso   1.00
C240   C     0.44062   0.55215   0.21229   0.00000  Uiso   1.00
C241   C     0.38291   0.62354   0.22691   0.00000  Uiso   1.00
C242   C     0.31580   0.64642   0.18799   0.00000  Uiso   1.00
C243   C     0.19612   0.70990   0.13963   0.00000  Uiso   1.00
C244   C     0.50201   0.42954   0.15338   0.00000  Uiso   1.00
C245   C     0.57134   0.45210   0.16089   0.00000  Uiso   1.00
C246   C     0.62180   0.43018   0.12215   0.00000  Uiso   1.00
C247   C     0.68165   0.45683   0.13692   0.00000  Uiso   1.00
C248   C     0.51441   0.39040   0.20380   0.00000  Uiso   1.00
C249   C     0.51699   0.31660   0.20115   0.00000  Uiso   1.00
C250   C     0.52890   0.29131   0.25205   0.00000  Uiso   1.00
C251   C     0.43162   0.50527   0.16062   0.00000  Uiso   1.00
C252   C     0.36459   0.52805   0.12167   0.00000  Uiso   1.00
C253   C     0.30679   0.59946   0.13623   0.00000  Uiso   1.00
H254   H     0.52558   0.55235   0.28872   0.00000  Uiso   1.00
H255   H     0.64707   0.56194   0.26738   0.00000  Uiso   1.00
H256   H     0.54227   0.44839   0.34636   0.00000  Uiso   1.00
H257   H     0.38989   0.65980   0.26690   0.00000  Uiso   1.00
H258   H     0.77782   0.55188   0.22094   0.00000  Uiso   1.00
H259   H     0.55682   0.31246   0.38748   0.00000  Uiso   1.00
H260   H     0.23549   0.75826   0.21992   0.00000  Uiso   1.00
H261   H     0.49500   0.39304   0.11315   0.00000  Uiso   1.00
H262   H     0.61482   0.39390   0.08217   0.00000  Uiso   1.00
H263   H     0.51002   0.28034   0.16116   0.00000  Uiso   1.00
H264   H     0.35765   0.49175   0.08169   0.00000  Uiso   1.00
H265   H     0.75165   0.41548   0.07062   0.00000  Uiso   1.00
H266   H     0.53064   0.17607   0.23716   0.00000  Uiso   1.00
H267   H     0.20932   0.62186   0.06960   0.00000  Uiso   1.00
O268   O     0.84412   0.48709   0.12857   0.00000  Uiso   1.00
O269   O     0.55416   0.17300   0.34707   0.00000  Uiso   1.00
O270   O     0.13260   0.75787   0.12723   0.00000  Uiso   1.00
N271   N     0.75521   0.51967   0.18981   0.00000  Uiso   1.00
N272   N     0.54859   0.29583   0.34552   0.00000  Uiso   1.00
N273   N     0.24818   0.71260   0.18886   0.00000  Uiso   1.00
N274   N     0.74113   0.44628   0.10892   0.00000  Uiso   1.00
N275   N     0.53451   0.22243   0.26463   0.00000  Uiso   1.00
N276   N     0.23409   0.63921   0.10798   0.00000  Uiso   1.00
C277   C     0.98873   0.28215   0.28630   0.00000  Uiso   1.00
C278   C     0.92992   0.36088   0.30789   0.00000  Uiso   1.00
C279   C     0.91680   0.43097   0.29299   0.00000  Uiso   1.00
C280   C     0.86046   0.49652   0.31735   0.00000  Uiso   1.00
C281   C     0.77546   0.61945   0.34509   0.00000  Uiso   1.00
C282   C     0.94281   0.23106   0.26035   0.00000  Uiso   1.00
C283   C     0.94053   0.19198   0.20547   0.00000  Uiso   1.00
C284   C     0.89506   0.14824   0.18981   0.00000  Uiso   1.00
C285   C     0.83011   0.06956   0.14374   0.00000  Uiso   1.00
C286   C     0.04089   0.24888   0.33849   0.00000  Uiso   1.00
C287   C     0.12109   0.22476   0.34930   0.00000  Uiso   1.00
C288   C     0.15820   0.19601   0.39943   0.00000  Uiso   1.00
C289   C     0.24554   0.14501   0.47468   0.00000  Uiso   1.00
C290   C     0.91202   0.27395   0.35608   0.00000  Uiso   1.00
C291   C     0.88825   0.35643   0.34579   0.00000  Uiso   1.00
C292   C     0.83193   0.42189   0.37019   0.00000  Uiso   1.00
C293   C     0.81873   0.49206   0.35532   0.00000  Uiso   1.00
C294   C     0.90114   0.22660   0.29824   0.00000  Uiso   1.00
C295   C     0.85567   0.18290   0.28267   0.00000  Uiso   1.00
C296   C     0.85332   0.14377   0.22778   0.00000  Uiso   1.00
C297   C     0.99923   0.24443   0.37639   0.00000  Uiso   1.00
C298   C     0.03622   0.21570   0.42650   0.00000  Uiso   1.00
C299   C     0.11646   0.19155   0.43740   0.00000  Uiso   1.00
H300   H     0.02117   0.28561   0.25679   0.00000  Uiso   1.00
H301   H     0.94905   0.43439   0.26365   0.00000  Uiso   1.00
H302   H     0.97279   0.19543   0.17615   0.00000  Uiso   1.00
H303   H     0.15331   0.22822   0.31996   0.00000  Uiso   1.00
H304   H     0.85070   0.59737   0.28795   0.00000  Uiso   1.00
H305   H     0.90077   0.09349   0.10345   0.00000  Uiso   1.00
H306   H     0.28145   0.16263   0.40671   0.00000  Uiso   1.00
H307   H     0.87959   0.27048   0.38559   0.00000  Uiso   1.00
H308   H     0.79970   0.41843   0.39952   0.00000  Uiso   1.00
H309   H     0.82344   0.17947   0.31201   0.00000  Uiso   1.00
H310   H     0.00396   0.21226   0.45582   0.00000  Uiso   1.00
H311   H     0.72947   0.58441   0.39822   0.00000  Uiso   1.00
H312   H     0.77956   0.08053   0.21372   0.00000  Uiso   1.00
H313   H     0.16023   0.14967   0.51698   0.00000  Uiso   1.00
O314   O     0.74007   0.68849   0.34991   0.00000  Uiso   1.00
O315   O     0.80578   0.02740   0.10786   0.00000  Uiso   1.00
O316   O     0.30522   0.11812   0.50572   0.00000  Uiso   1.00
N317   N     0.83314   0.57402   0.31200   0.00000  Uiso   1.00
N318   N     0.87995   0.10293   0.13950   0.00000  Uiso   1.00
N319   N     0.23586   0.16755   0.42302   0.00000  Uiso   1.00
N320   N     0.76791   0.56705   0.37134   0.00000  Uiso   1.00
N321   N     0.81472   0.09596   0.19884   0.00000  Uiso   1.00
N322   N     0.17063   0.16058   0.48235   0.00000  Uiso   1.00
C323   C     0.36078   0.84204   0.25562   0.00000  Uiso   1.00
C324   C     0.44552   0.82546   0.25476   0.00000  Uiso   1.00
C325   C     0.49940   0.75593   0.23243   0.00000  Uiso   1.00
C326   C     0.57400   0.75239   0.23574   0.00000  Uiso   1.00
C327   C     0.70255   0.71696   0.23061   0.00000  Uiso   1.00
C328   C     0.31300   0.91247   0.22608   0.00000  Uiso   1.00
C329   C     0.25546   0.91609   0.17965   0.00000  Uiso   1.00
C330   C     0.21850   0.98580   0.15883   0.00000  Uiso   1.00
C331   C     0.14127   0.08547   0.10921   0.00000  Uiso   1.00
C332   C     0.34893   0.86864   0.31725   0.00000  Uiso   1.00
C333   C     0.32157   0.83542   0.34748   0.00000  Uiso   1.00
C334   C     0.31483   0.86824   0.40342   0.00000  Uiso   1.00
C335   C     0.29338   0.89985   0.49535   0.00000  Uiso   1.00
C336   C     0.39744   0.95942   0.30121   0.00000  Uiso   1.00
C337   C     0.46543   0.88922   0.27952   0.00000  Uiso   1.00
C338   C     0.53997   0.88579   0.28287   0.00000  Uiso   1.00
C339   C     0.59395   0.81626   0.26055   0.00000  Uiso   1.00
C340   C     0.33291   0.97622   0.25084   0.00000  Uiso   1.00
C341   C     0.29602   0.04595   0.23009   0.00000  Uiso   1.00
C342   C     0.23845   0.04967   0.18364   0.00000  Uiso   1.00
C343   C     0.36884   0.93239   0.34202   0.00000  Uiso   1.00
C344   C     0.36214   0.96528   0.39792   0.00000  Uiso   1.00
C345   C     0.33478   0.93211   0.42822   0.00000  Uiso   1.00
H346   H     0.34527   0.79241   0.23634   0.00000  Uiso   1.00
H347   H     0.48397   0.70660   0.21326   0.00000  Uiso   1.00
H348   H     0.24006   0.86674   0.16050   0.00000  Uiso   1.00
H349   H     0.30616   0.78608   0.32830   0.00000  Uiso   1.00
H350   H     0.64651   0.63960   0.19858   0.00000  Uiso   1.00
H351   H     0.13220   0.97727   0.08734   0.00000  Uiso   1.00
H352   H     0.27159   0.80718   0.44118   0.00000  Uiso   1.00
H353   H     0.41294   0.00906   0.32049   0.00000  Uiso   1.00
H354   H     0.55536   0.93513   0.30203   0.00000  Uiso   1.00
H355   H     0.31145   0.09527   0.24927   0.00000  Uiso   1.00
H356   H     0.37756   0.01461   0.41707   0.00000  Uiso   1.00
H357   H     0.70446   0.82508   0.27063   0.00000  Uiso   1.00
H358   H     0.19014   0.16275   0.15939   0.00000  Uiso   1.00
H359   H     0.32954   0.99266   0.51323   0.00000  Uiso   1.00
O360   O     0.76795   0.67981   0.22093   0.00000  Uiso   1.00
O361   O     0.09317   0.12282   0.07500   0.00000  Uiso   1.00
O362   O     0.27606   0.89967   0.53922   0.00000  Uiso   1.00
N363   N     0.64061   0.69339   0.21808   0.00000  Uiso   1.00
N364   N     0.15976   0.00909   0.11407   0.00000  Uiso   1.00
N365   N     0.29007   0.85008   0.44488   0.00000  Uiso   1.00
N366   N     0.67179   0.79320   0.25685   0.00000  Uiso   1.00
N367   N     0.19095   0.10889   0.15284   0.00000  Uiso   1.00
N368   N     0.32125   0.94989   0.48365   0.00000  Uiso   1.00
C369   C     0.88525   0.89726   0.28492   0.00000  Uiso   1.00
C370   C     0.94040   0.83386   0.31941   0.00000  Uiso   1.00
C371   C     0.93227   0.76567   0.31972   0.00000  Uiso   1.00
C372   C     0.98892   0.71507   0.35413   0.00000  Uiso   1.00
C373   C     0.06507   0.61401   0.40267   0.00000  Uiso   1.00
C374   C     0.93474   0.90792   0.24972   0.00000  Uiso   1.00
C375   C     0.92185   0.90200   0.19143   0.00000  Uiso   1.00
C376   C     0.97374   0.91376   0.16718   0.00000  Uiso   1.00
C377   C     0.04108   0.92773   0.10752   0.00000  Uiso   1.00
C378   C     0.85946   0.97153   0.32712   0.00000  Uiso   1.00
C379   C     0.78327   0.01913   0.33391   0.00000  Uiso   1.00
C380   C     0.77178   0.08446   0.37482   0.00000  Uiso   1.00
C381   C     0.72222   0.19720   0.43534   0.00000  Uiso   1.00
C382   C     0.00031   0.92867   0.34550   0.00000  Uiso   1.00
C383   C     0.00290   0.85092   0.35232   0.00000  Uiso   1.00
C384   C     0.05958   0.80041   0.38674   0.00000  Uiso   1.00
C385   C     0.05153   0.73216   0.38710   0.00000  Uiso   1.00
C386   C     0.99724   0.92497   0.28262   0.00000  Uiso   1.00
C387   C     0.04916   0.93675   0.25845   0.00000  Uiso   1.00
C388   C     0.03635   0.93085   0.20014   0.00000  Uiso   1.00
C389   C     0.92196   0.98859   0.36003   0.00000  Uiso   1.00
C390   C     0.91058   0.05387   0.40093   0.00000  Uiso   1.00
C391   C     0.83439   0.10155   0.40778   0.00000  Uiso   1.00
H392   H     0.83659   0.88398   0.25930   0.00000  Uiso   1.00
H393   H     0.88390   0.75248   0.29424   0.00000  Uiso   1.00
H394   H     0.87348   0.88881   0.16598   0.00000  Uiso   1.00
H395   H     0.73492   0.00591   0.30844   0.00000  Uiso   1.00
H396   H     0.96393   0.61420   0.34748   0.00000  Uiso   1.00
H397   H     0.94194   0.90167   0.07703   0.00000  Uiso   1.00
H398   H     0.64976   0.14860   0.37743   0.00000  Uiso   1.00
H399   H     0.04897   0.94195   0.37111   0.00000  Uiso   1.00
H400   H     0.10793   0.81363   0.41220   0.00000  Uiso   1.00
H401   H     0.09751   0.94995   0.28393   0.00000  Uiso   1.00
H402   H     0.95896   0.06705   0.42639   0.00000  Uiso   1.00
H403   H     0.14576   0.66383   0.44322   0.00000  Uiso   1.00
H404   H     0.12377   0.95130   0.17276   0.00000  Uiso   1.00
H405   H     0.83160   0.19823   0.47317   0.00000  Uiso   1.00
O406   O     0.08981   0.55354   0.42035   0.00000  Uiso   1.00
O407   O     0.06096   0.93071   0.06552   0.00000  Uiso   1.00
O408   O     0.67763   0.25467   0.45964   0.00000  Uiso   1.00
N409   N     0.99862   0.64350   0.36439   0.00000  Uiso   1.00
N410   N     0.97807   0.91225   0.11152   0.00000  Uiso   1.00
N411   N     0.70491   0.14313   0.39236   0.00000  Uiso   1.00
N412   N     0.09646   0.67020   0.41590   0.00000  Uiso   1.00
N413   N     0.07592   0.93896   0.16304   0.00000  Uiso   1.00
N414   N     0.80275   0.16983   0.44388   0.00000  Uiso   1.00
C415   C     0.97133   0.41777   0.78501   0.00000  Uiso   1.00
C416   C     0.04167   0.34900   0.80512   0.00000  Uiso   1.00
C417   C     0.10980   0.31165   0.78177   0.00000  Uiso   1.00
C418   C     0.16732   0.24991   0.80624   0.00000  Uiso   1.00
C419   C     0.27810   0.14669   0.83043   0.00000  Uiso   1.00
C420   C     0.90256   0.39318   0.77207   0.00000  Uiso   1.00
C421   C     0.85372   0.39298   0.72093   0.00000  Uiso   1.00
C422   C     0.79413   0.36844   0.71760   0.00000  Uiso   1.00
C423   C     0.68890   0.33386   0.69049   0.00000  Uiso   1.00
C424   C     0.95675   0.48150   0.83607   0.00000  Uiso   1.00
C425   C     0.95345   0.55557   0.83874   0.00000  Uiso   1.00
C426   C     0.93948   0.60539   0.88928   0.00000  Uiso   1.00
C427   C     0.91839   0.70793   0.96155   0.00000  Uiso   1.00
C428   C     0.95235   0.37455   0.87001   0.00000  Uiso   1.00
C429   C     0.03136   0.32553   0.85129   0.00000  Uiso   1.00
C430   C     0.08880   0.26384   0.87581   0.00000  Uiso   1.00
C431   C     0.15700   0.22640   0.85250   0.00000  Uiso   1.00
C432   C     0.89225   0.36971   0.81824   0.00000  Uiso   1.00
C433   C     0.83272   0.34517   0.81498   0.00000  Uiso   1.00
C434   C     0.78381   0.34493   0.76385   0.00000  Uiso   1.00
C435   C     0.94645   0.45803   0.88225   0.00000  Uiso   1.00
C436   C     0.93247   0.50775   0.93279   0.00000  Uiso   1.00
C437   C     0.92915   0.58188   0.93554   0.00000  Uiso   1.00
H438   H     0.97935   0.43604   0.74906   0.00000  Uiso   1.00
H439   H     0.11775   0.32983   0.74603   0.00000  Uiso   1.00
H440   H     0.86170   0.41116   0.68521   0.00000  Uiso   1.00
H441   H     0.96143   0.57371   0.80300   0.00000  Uiso   1.00
H442   H     0.26663   0.20170   0.76302   0.00000  Uiso   1.00
H443   H     0.72673   0.37321   0.63479   0.00000  Uiso   1.00
H444   H     0.93703   0.71599   0.88317   0.00000  Uiso   1.00
H445   H     0.94433   0.35628   0.90596   0.00000  Uiso   1.00
H446   H     0.08081   0.24569   0.91154   0.00000  Uiso   1.00
H447   H     0.82476   0.32701   0.85072   0.00000  Uiso   1.00
H448   H     0.92449   0.48957   0.96851   0.00000  Uiso   1.00
H449   H     0.23665   0.13341   0.89736   0.00000  Uiso   1.00
H450   H     0.69675   0.30492   0.76912   0.00000  Uiso   1.00
H451   H     0.90705   0.64770   0.01751   0.00000  Uiso   1.00
O452   O     0.34204   0.09623   0.83102   0.00000  Uiso   1.00
O453   O     0.63371   0.32126   0.66278   0.00000  Uiso   1.00
O454   O     0.90962   0.77097   0.98866   0.00000  Uiso   1.00
N455   N     0.24085   0.20082   0.79388   0.00000  Uiso   1.00
N456   N     0.73608   0.36116   0.67398   0.00000  Uiso   1.00
N457   N     0.93267   0.68163   0.90620   0.00000  Uiso   1.00
N458   N     0.22472   0.16407   0.86616   0.00000  Uiso   1.00
N459   N     0.71995   0.32441   0.74627   0.00000  Uiso   1.00
N460   N     0.91654   0.64489   0.97848   0.00000  Uiso   1.00
C461   C     0.50455   0.88246   0.74875   0.00000  Uiso   1.00
C462   C     0.55318   0.93048   0.77643   0.00000  Uiso   1.00
C463   C     0.55045   0.99405   0.75742   0.00000  Uiso   1.00
C464   C     0.59957   0.03012   0.78865   0.00000  Uiso   1.00
C465   C     0.66750   0.10871   0.82424   0.00000  Uiso   1.00
C466   C     0.56212   0.79920   0.73688   0.00000  Uiso   1.00
C467   C     0.56689   0.75241   0.68461   0.00000  Uiso   1.00
C468   C     0.62354   0.67797   0.68255   0.00000  Uiso   1.00
C469   C     0.70531   0.55274   0.65675   0.00000  Uiso   1.00
C470   C     0.46147   0.88410   0.79410   0.00000  Uiso   1.00
C471   C     0.38162   0.90867   0.78995   0.00000  Uiso   1.00
C472   C     0.35353   0.90569   0.83606   0.00000  Uiso   1.00
C473   C     0.27903   0.91227   0.89910   0.00000  Uiso   1.00
C474   C     0.59665   0.83346   0.83802   0.00000  Uiso   1.00
C475   C     0.60321   0.90386   0.82492   0.00000  Uiso   1.00
C476   C     0.65235   0.93984   0.85619   0.00000  Uiso   1.00
C477   C     0.64969   0.00346   0.83722   0.00000  Uiso   1.00
C478   C     0.61214   0.77259   0.78536   0.00000  Uiso   1.00
C479   C     0.66880   0.69820   0.78338   0.00000  Uiso   1.00
C480   C     0.67366   0.65130   0.73113   0.00000  Uiso   1.00
C481   C     0.51150   0.85749   0.84259   0.00000  Uiso   1.00
C482   C     0.48353   0.85446   0.88871   0.00000  Uiso   1.00
C483   C     0.40365   0.87902   0.88463   0.00000  Uiso   1.00
H484   H     0.46560   0.90317   0.71100   0.00000  Uiso   1.00
H485   H     0.51173   0.01463   0.71989   0.00000  Uiso   1.00
H486   H     0.52817   0.77302   0.64710   0.00000  Uiso   1.00
H487   H     0.34292   0.92926   0.75242   0.00000  Uiso   1.00
H488   H     0.58495   0.12644   0.75112   0.00000  Uiso   1.00
H489   H     0.61960   0.61699   0.59764   0.00000  Uiso   1.00
H490   H     0.22897   0.94645   0.81972   0.00000  Uiso   1.00
H491   H     0.63560   0.81273   0.87577   0.00000  Uiso   1.00
H492   H     0.69106   0.91923   0.89371   0.00000  Uiso   1.00
H493   H     0.70750   0.67762   0.82091   0.00000  Uiso   1.00
H494   H     0.52226   0.83386   0.92623   0.00000  Uiso   1.00
H495   H     0.73050   0.04902   0.89220   0.00000  Uiso   1.00
H496   H     0.76515   0.53956   0.73871   0.00000  Uiso   1.00
H497   H     0.37453   0.86902   0.96080   0.00000  Uiso   1.00
O498   O     0.69116   0.15940   0.83048   0.00000  Uiso   1.00
O499   O     0.73660   0.49102   0.62912   0.00000  Uiso   1.00
O500   O     0.22412   0.92327   0.92048   0.00000  Uiso   1.00
N501   N     0.61158   0.09362   0.78187   0.00000  Uiso   1.00
N502   N     0.64398   0.61731   0.63837   0.00000  Uiso   1.00
N503   N     0.27879   0.92531   0.84599   0.00000  Uiso   1.00
N504   N     0.68991   0.05195   0.85778   0.00000  Uiso   1.00
N505   N     0.72231   0.57565   0.71428   0.00000  Uiso   1.00
N506   N     0.35711   0.88365   0.92190   0.00000  Uiso   1.00
C507   C     0.55437   0.41762   0.85739   0.00000  Uiso   1.00
C508   C     0.48800   0.46156   0.89190   0.00000  Uiso   1.00
C509   C     0.43581   0.43335   0.89961   0.00000  Uiso   1.00
C510   C     0.37924   0.48256   0.93265   0.00000  Uiso   1.00
C511   C     0.27679   0.53943   0.98249   0.00000  Uiso   1.00
C512   C     0.54189   0.46781   0.81376   0.00000  Uiso   1.00
C513   C     0.53504   0.44485   0.75577   0.00000  Uiso   1.00
C514   C     0.52386   0.49932   0.72303   0.00000  Uiso   1.00
C515   C     0.50514   0.56588   0.65156   0.00000  Uiso   1.00
C516   C     0.62796   0.41777   0.89732   0.00000  Uiso   1.00
C517   C     0.69349   0.35273   0.90958   0.00000  Uiso   1.00
C518   C     0.75478   0.36507   0.94718   0.00000  Uiso   1.00
C519   C     0.86970   0.35393   0.00545   0.00000  Uiso   1.00
C520   C     0.54671   0.55519   0.90234   0.00000  Uiso   1.00
C521   C     0.48383   0.53628   0.91631   0.00000  Uiso   1.00
C522   C     0.42733   0.58555   0.94934   0.00000  Uiso   1.00
C523   C     0.37507   0.55741   0.95711   0.00000  Uiso   1.00
C524   C     0.53773   0.54253   0.83817   0.00000  Uiso   1.00
C525   C     0.52656   0.59705   0.80550   0.00000  Uiso   1.00
C526   C     0.51969   0.57417   0.74748   0.00000  Uiso   1.00
C527   C     0.62380   0.49249   0.92173   0.00000  Uiso   1.00
C528   C     0.68501   0.50493   0.95931   0.00000  Uiso   1.00
C529   C     0.75061   0.43993   0.97164   0.00000  Uiso   1.00
H530   H     0.55761   0.35945   0.83838   0.00000  Uiso   1.00
H531   H     0.43905   0.37552   0.88071   0.00000  Uiso   1.00
H532   H     0.53827   0.38702   0.73689   0.00000  Uiso   1.00
H533   H     0.69669   0.29492   0.89068   0.00000  Uiso   1.00
H534   H     0.30574   0.42630   0.93839   0.00000  Uiso   1.00
H535   H     0.51499   0.45053   0.63514   0.00000  Uiso   1.00
H536   H     0.84905   0.25632   0.95944   0.00000  Uiso   1.00
H537   H     0.54347   0.61336   0.92134   0.00000  Uiso   1.00
H538   H     0.42413   0.64337   0.96823   0.00000  Uiso   1.00
H539   H     0.52335   0.65486   0.82441   0.00000  Uiso   1.00
H540   H     0.68177   0.56276   0.97819   0.00000  Uiso   1.00
H541   H     0.29363   0.64369   0.00942   0.00000  Uiso   1.00
H542   H     0.50288   0.66793   0.70617   0.00000  Uiso   1.00
H543   H     0.83694   0.47372   0.03046   0.00000  Uiso   1.00
O544   O     0.22142   0.55016   0.00323   0.00000  Uiso   1.00
O545   O     0.49596   0.58195   0.60539   0.00000  Uiso   1.00
O546   O     0.93423   0.32715   0.03085   0.00000  Uiso   1.00
N547   N     0.31928   0.47334   0.94868   0.00000  Uiso   1.00
N548   N     0.51490   0.49600   0.66516   0.00000  Uiso   1.00
N549   N     0.82722   0.31443   0.96834   0.00000  Uiso   1.00
N550   N     0.31276   0.59032   0.98690   0.00000  Uiso   1.00
N551   N     0.50838   0.61298   0.70338   0.00000  Uiso   1.00
N552   N     0.82071   0.43141   0.00656   0.00000  Uiso   1.00
