data_job_01056
_audit_creation_date              2018-12-19
_audit_creation_method            'Materials Studio'
_symmetry_space_group_name_H-M    'P1'
_symmetry_Int_Tables_number       1
_symmetry_cell_setting            triclinic
loop_
_symmetry_equiv_pos_as_xyz
  x,y,z
_cell_length_a                    42.1564
_cell_length_b                    7.0825
_cell_length_c                    41.5716
_cell_angle_alpha                 90.0000
_cell_angle_beta                  164.0976
_cell_angle_gamma                 90.0000
loop_
_atom_site_label
_atom_site_type_symbol
_atom_site_fract_x
_atom_site_fract_y
_atom_site_fract_z
_atom_site_U_iso_or_equiv
_atom_site_adp_type
_atom_site_occupancy
C1     C     0.45050   0.89100   0.28939   0.00000  Uiso   1.00
C2     C     0.52699   0.75044   0.34609   0.00000  Uiso   1.00
C3     C     0.62630   0.79447   0.42571   0.00000  Uiso   1.00
C4     C     0.68412   0.64573   0.46743   0.00000  Uiso   1.00
C5     C     0.80896   0.45578   0.56099   0.00000  Uiso   1.00
C6     C     0.32894   0.86609   0.15717   0.00000  Uiso   1.00
C7     C     0.26172   0.00736   0.07797   0.00000  Uiso   1.00
C8     C     0.15281   0.95597   0.96066   0.00000  Uiso   1.00
C9     C     0.97013   0.94559   0.76092   0.00000  Uiso   1.00
C10    C     0.44493   0.82180   0.31865   0.00000  Uiso   1.00
C11    C     0.47520   0.92586   0.37519   0.00000  Uiso   1.00
C12    C     0.46392   0.83719   0.39381   0.00000  Uiso   1.00
C13    C     0.46134   0.75806   0.44479   0.00000  Uiso   1.00
C14    C     0.37659   0.54855   0.22189   0.00000  Uiso   1.00
C15    C     0.48684   0.56444   0.30942   0.00000  Uiso   1.00
C16    C     0.54453   0.41559   0.35103   0.00000  Uiso   1.00
C17    C     0.64391   0.45939   0.43071   0.00000  Uiso   1.00
C18    C     0.28879   0.68009   0.12051   0.00000  Uiso   1.00
C19    C     0.17995   0.62848   0.00329   0.00000  Uiso   1.00
C20    C     0.11259   0.76963   0.92392   0.00000  Uiso   1.00
C21    C     0.40478   0.63580   0.28199   0.00000  Uiso   1.00
C22    C     0.39344   0.54697   0.30052   0.00000  Uiso   1.00
C23    C     0.42370   0.65086   0.35708   0.00000  Uiso   1.00
H24    H     0.48175   0.03582   0.31793   0.00000  Uiso   1.00
H25    H     0.65733   0.93844   0.45405   0.00000  Uiso   1.00
H26    H     0.29281   0.15129   0.10636   0.00000  Uiso   1.00
H27    H     0.50627   0.06979   0.40355   0.00000  Uiso   1.00
H28    H     0.83427   0.74846   0.58877   0.00000  Uiso   1.00
H29    H     0.06564   0.19728   0.85564   0.00000  Uiso   1.00
H30    H     0.51575   0.02543   0.48231   0.00000  Uiso   1.00
H31    H     0.34533   0.40373   0.19334   0.00000  Uiso   1.00
H32    H     0.51344   0.27166   0.32264   0.00000  Uiso   1.00
H33    H     0.14891   0.48452   0.97495   0.00000  Uiso   1.00
H34    H     0.36237   0.40302   0.27213   0.00000  Uiso   1.00
H35    H     0.71748   0.20728   0.48211   0.00000  Uiso   1.00
H36    H     0.94883   0.65611   0.74897   0.00000  Uiso   1.00
H37    H     0.39895   0.48426   0.37565   0.00000  Uiso   1.00
O38    O     0.88890   0.40240   0.62271   0.00000  Uiso   1.00
O39    O     0.88047   0.99126   0.66087   0.00000  Uiso   1.00
O40    O     0.47102   0.76579   0.48306   0.00000  Uiso   1.00
N41    N     0.78373   0.63921   0.54595   0.00000  Uiso   1.00
N42    N     0.06510   0.05883   0.86051   0.00000  Uiso   1.00
N43    N     0.48590   0.89818   0.44637   0.00000  Uiso   1.00
N44    N     0.72088   0.34801   0.48855   0.00000  Uiso   1.00
N45    N     0.00226   0.76763   0.80312   0.00000  Uiso   1.00
N46    N     0.42305   0.60698   0.38898   0.00000  Uiso   1.00
C47    C     0.54950   0.89100   0.21061   0.00000  Uiso   1.00
C48    C     0.47301   0.75044   0.15391   0.00000  Uiso   1.00
C49    C     0.37370   0.79447   0.07429   0.00000  Uiso   1.00
C50    C     0.31588   0.64573   0.03257   0.00000  Uiso   1.00
C51    C     0.19104   0.45578   0.93901   0.00000  Uiso   1.00
C52    C     0.67106   0.86609   0.34283   0.00000  Uiso   1.00
C53    C     0.73828   0.00736   0.42203   0.00000  Uiso   1.00
C54    C     0.84719   0.95597   0.53934   0.00000  Uiso   1.00
C55    C     0.02987   0.94559   0.73908   0.00000  Uiso   1.00
C56    C     0.55507   0.82180   0.18135   0.00000  Uiso   1.00
C57    C     0.52480   0.92586   0.12481   0.00000  Uiso   1.00
C58    C     0.53608   0.83719   0.10619   0.00000  Uiso   1.00
C59    C     0.53866   0.75806   0.05521   0.00000  Uiso   1.00
C60    C     0.62341   0.54855   0.27811   0.00000  Uiso   1.00
C61    C     0.51316   0.56444   0.19058   0.00000  Uiso   1.00
C62    C     0.45547   0.41559   0.14897   0.00000  Uiso   1.00
C63    C     0.35609   0.45939   0.06929   0.00000  Uiso   1.00
C64    C     0.71121   0.68009   0.37949   0.00000  Uiso   1.00
C65    C     0.82005   0.62848   0.49671   0.00000  Uiso   1.00
C66    C     0.88741   0.76963   0.57608   0.00000  Uiso   1.00
C67    C     0.59522   0.63580   0.21801   0.00000  Uiso   1.00
C68    C     0.60656   0.54697   0.19948   0.00000  Uiso   1.00
C69    C     0.57630   0.65086   0.14292   0.00000  Uiso   1.00
H70    H     0.51825   0.03582   0.18207   0.00000  Uiso   1.00
H71    H     0.34267   0.93844   0.04595   0.00000  Uiso   1.00
H72    H     0.70719   0.15129   0.39364   0.00000  Uiso   1.00
H73    H     0.49373   0.06979   0.09645   0.00000  Uiso   1.00
H74    H     0.16573   0.74846   0.91123   0.00000  Uiso   1.00
H75    H     0.93436   0.19728   0.64436   0.00000  Uiso   1.00
H76    H     0.48425   0.02543   0.01769   0.00000  Uiso   1.00
H77    H     0.65467   0.40373   0.30666   0.00000  Uiso   1.00
H78    H     0.48656   0.27166   0.17736   0.00000  Uiso   1.00
H79    H     0.85109   0.48452   0.52505   0.00000  Uiso   1.00
H80    H     0.63763   0.40302   0.22787   0.00000  Uiso   1.00
H81    H     0.28252   0.20728   0.01789   0.00000  Uiso   1.00
H82    H     0.05117   0.65611   0.75103   0.00000  Uiso   1.00
H83    H     0.60105   0.48426   0.12435   0.00000  Uiso   1.00
O84    O     0.11110   0.40240   0.87729   0.00000  Uiso   1.00
O85    O     0.11953   0.99126   0.83913   0.00000  Uiso   1.00
O86    O     0.52898   0.76579   0.01694   0.00000  Uiso   1.00
N87    N     0.21627   0.63921   0.95405   0.00000  Uiso   1.00
N88    N     0.93490   0.05883   0.63949   0.00000  Uiso   1.00
N89    N     0.51410   0.89818   0.05363   0.00000  Uiso   1.00
N90    N     0.27912   0.34801   0.01145   0.00000  Uiso   1.00
N91    N     0.99774   0.76763   0.69688   0.00000  Uiso   1.00
N92    N     0.57695   0.60698   0.11102   0.00000  Uiso   1.00
C93    C     0.54950   0.10900   0.71061   0.00000  Uiso   1.00
C94    C     0.47301   0.24956   0.65391   0.00000  Uiso   1.00
C95    C     0.37370   0.20553   0.57429   0.00000  Uiso   1.00
C96    C     0.31588   0.35427   0.53257   0.00000  Uiso   1.00
C97    C     0.19104   0.54422   0.43901   0.00000  Uiso   1.00
C98    C     0.67106   0.13391   0.84283   0.00000  Uiso   1.00
C99    C     0.73828   0.99264   0.92203   0.00000  Uiso   1.00
C100   C     0.84719   0.04403   0.03934   0.00000  Uiso   1.00
C101   C     0.02987   0.05441   0.23908   0.00000  Uiso   1.00
C102   C     0.55507   0.17820   0.68135   0.00000  Uiso   1.00
C103   C     0.52480   0.07414   0.62481   0.00000  Uiso   1.00
C104   C     0.53608   0.16281   0.60619   0.00000  Uiso   1.00
C105   C     0.53866   0.24194   0.55521   0.00000  Uiso   1.00
C106   C     0.62341   0.45145   0.77811   0.00000  Uiso   1.00
C107   C     0.51316   0.43556   0.69058   0.00000  Uiso   1.00
C108   C     0.45547   0.58441   0.64897   0.00000  Uiso   1.00
C109   C     0.35609   0.54061   0.56929   0.00000  Uiso   1.00
C110   C     0.71121   0.31991   0.87949   0.00000  Uiso   1.00
C111   C     0.82005   0.37152   0.99671   0.00000  Uiso   1.00
C112   C     0.88741   0.23037   0.07608   0.00000  Uiso   1.00
C113   C     0.59522   0.36420   0.71801   0.00000  Uiso   1.00
C114   C     0.60656   0.45303   0.69948   0.00000  Uiso   1.00
C115   C     0.57630   0.34914   0.64292   0.00000  Uiso   1.00
H116   H     0.51825   0.96418   0.68207   0.00000  Uiso   1.00
H117   H     0.34267   0.06156   0.54595   0.00000  Uiso   1.00
H118   H     0.70719   0.84871   0.89364   0.00000  Uiso   1.00
H119   H     0.49373   0.93021   0.59645   0.00000  Uiso   1.00
H120   H     0.16573   0.25154   0.41123   0.00000  Uiso   1.00
H121   H     0.93436   0.80272   0.14436   0.00000  Uiso   1.00
H122   H     0.48425   0.97457   0.51769   0.00000  Uiso   1.00
H123   H     0.65467   0.59627   0.80666   0.00000  Uiso   1.00
H124   H     0.48656   0.72834   0.67736   0.00000  Uiso   1.00
H125   H     0.85109   0.51548   0.02505   0.00000  Uiso   1.00
H126   H     0.63763   0.59698   0.72787   0.00000  Uiso   1.00
H127   H     0.28252   0.79272   0.51789   0.00000  Uiso   1.00
H128   H     0.05117   0.34389   0.25103   0.00000  Uiso   1.00
H129   H     0.60105   0.51574   0.62435   0.00000  Uiso   1.00
O130   O     0.11110   0.59760   0.37729   0.00000  Uiso   1.00
O131   O     0.11953   0.00874   0.33913   0.00000  Uiso   1.00
O132   O     0.52898   0.23421   0.51694   0.00000  Uiso   1.00
N133   N     0.21627   0.36079   0.45405   0.00000  Uiso   1.00
N134   N     0.93490   0.94117   0.13949   0.00000  Uiso   1.00
N135   N     0.51410   0.10182   0.55363   0.00000  Uiso   1.00
N136   N     0.27912   0.65199   0.51145   0.00000  Uiso   1.00
N137   N     0.99774   0.23237   0.19688   0.00000  Uiso   1.00
N138   N     0.57695   0.39302   0.61102   0.00000  Uiso   1.00
C139   C     0.45050   0.10900   0.78939   0.00000  Uiso   1.00
C140   C     0.52699   0.24956   0.84609   0.00000  Uiso   1.00
C141   C     0.62630   0.20553   0.92571   0.00000  Uiso   1.00
C142   C     0.68412   0.35427   0.96743   0.00000  Uiso   1.00
C143   C     0.80896   0.54422   0.06099   0.00000  Uiso   1.00
C144   C     0.32894   0.13391   0.65717   0.00000  Uiso   1.00
C145   C     0.26172   0.99264   0.57797   0.00000  Uiso   1.00
C146   C     0.15281   0.04403   0.46066   0.00000  Uiso   1.00
C147   C     0.97013   0.05441   0.26092   0.00000  Uiso   1.00
C148   C     0.44493   0.17820   0.81865   0.00000  Uiso   1.00
C149   C     0.47520   0.07414   0.87519   0.00000  Uiso   1.00
C150   C     0.46392   0.16281   0.89381   0.00000  Uiso   1.00
C151   C     0.46134   0.24194   0.94479   0.00000  Uiso   1.00
C152   C     0.37659   0.45145   0.72189   0.00000  Uiso   1.00
C153   C     0.48684   0.43556   0.80942   0.00000  Uiso   1.00
C154   C     0.54453   0.58441   0.85103   0.00000  Uiso   1.00
C155   C     0.64391   0.54061   0.93071   0.00000  Uiso   1.00
C156   C     0.28879   0.31991   0.62051   0.00000  Uiso   1.00
C157   C     0.17995   0.37152   0.50329   0.00000  Uiso   1.00
C158   C     0.11259   0.23037   0.42392   0.00000  Uiso   1.00
C159   C     0.40478   0.36420   0.78199   0.00000  Uiso   1.00
C160   C     0.39344   0.45303   0.80052   0.00000  Uiso   1.00
C161   C     0.42370   0.34914   0.85708   0.00000  Uiso   1.00
H162   H     0.48175   0.96418   0.81793   0.00000  Uiso   1.00
H163   H     0.65733   0.06156   0.95405   0.00000  Uiso   1.00
H164   H     0.29281   0.84871   0.60636   0.00000  Uiso   1.00
H165   H     0.50627   0.93021   0.90355   0.00000  Uiso   1.00
H166   H     0.83427   0.25154   0.08877   0.00000  Uiso   1.00
H167   H     0.06564   0.80272   0.35564   0.00000  Uiso   1.00
H168   H     0.51575   0.97457   0.98231   0.00000  Uiso   1.00
H169   H     0.34533   0.59627   0.69334   0.00000  Uiso   1.00
H170   H     0.51344   0.72834   0.82264   0.00000  Uiso   1.00
H171   H     0.14891   0.51548   0.47495   0.00000  Uiso   1.00
H172   H     0.36237   0.59698   0.77213   0.00000  Uiso   1.00
H173   H     0.71748   0.79272   0.98211   0.00000  Uiso   1.00
H174   H     0.94883   0.34389   0.24897   0.00000  Uiso   1.00
H175   H     0.39895   0.51574   0.87565   0.00000  Uiso   1.00
O176   O     0.88890   0.59760   0.12271   0.00000  Uiso   1.00
O177   O     0.88047   0.00874   0.16087   0.00000  Uiso   1.00
O178   O     0.47102   0.23421   0.98306   0.00000  Uiso   1.00
N179   N     0.78373   0.36079   0.04595   0.00000  Uiso   1.00
N180   N     0.06510   0.94117   0.36051   0.00000  Uiso   1.00
N181   N     0.48590   0.10182   0.94637   0.00000  Uiso   1.00
N182   N     0.72088   0.65199   0.98855   0.00000  Uiso   1.00
N183   N     0.00226   0.23237   0.30312   0.00000  Uiso   1.00
N184   N     0.42305   0.39302   0.88898   0.00000  Uiso   1.00
