data_job_05431
_audit_creation_date              2018-12-19
_audit_creation_method            'Materials Studio'
_symmetry_space_group_name_H-M    'P1'
_symmetry_Int_Tables_number       1
_symmetry_cell_setting            triclinic
loop_
_symmetry_equiv_pos_as_xyz
  x,y,z
_cell_length_a                    20.6476
_cell_length_b                    15.4019
_cell_length_c                    28.3952
_cell_angle_alpha                 90.0000
_cell_angle_beta                  136.4637
_cell_angle_gamma                 90.0000
loop_
_atom_site_label
_atom_site_type_symbol
_atom_site_fract_x
_atom_site_fract_y
_atom_site_fract_z
_atom_site_U_iso_or_equiv
_atom_site_adp_type
_atom_site_occupancy
C1     C     0.45057   0.32028   0.55180   0.00000  Uiso   1.00
C2     C     0.43808   0.22778   0.56332   0.00000  Uiso   1.00
C3     C     0.47716   0.19415   0.62481   0.00000  Uiso   1.00
C4     C     0.45736   0.10799   0.62480   0.00000  Uiso   1.00
C5     C     0.44665   0.97205   0.65172   0.00000  Uiso   1.00
C6     C     0.49020   0.31194   0.52300   0.00000  Uiso   1.00
C7     C     0.57309   0.34909   0.55059   0.00000  Uiso   1.00
C8     C     0.59716   0.33379   0.51662   0.00000  Uiso   1.00
C9     C     0.66732   0.32857   0.48092   0.00000  Uiso   1.00
C10    C     0.35173   0.35724   0.49413   0.00000  Uiso   1.00
C11    C     0.31820   0.43249   0.49745   0.00000  Uiso   1.00
C12    C     0.22569   0.45534   0.43917   0.00000  Uiso   1.00
C13    C     0.08087   0.52045   0.35865   0.00000  Uiso   1.00
C14    C     0.34592   0.22707   0.44241   0.00000  Uiso   1.00
C15    C     0.38124   0.17715   0.50389   0.00000  Uiso   1.00
C16    C     0.36138   0.09102   0.50378   0.00000  Uiso   1.00
C17    C     0.40042   0.05727   0.56527   0.00000  Uiso   1.00
C18    C     0.43336   0.26132   0.46358   0.00000  Uiso   1.00
C19    C     0.45731   0.24596   0.42956   0.00000  Uiso   1.00
C20    C     0.54021   0.28307   0.45710   0.00000  Uiso   1.00
C21    C     0.29489   0.30661   0.43471   0.00000  Uiso   1.00
C22    C     0.20242   0.32936   0.37642   0.00000  Uiso   1.00
C23    C     0.16875   0.40462   0.37964   0.00000  Uiso   1.00
H24    H     0.49483   0.35970   0.59806   0.00000  Uiso   1.00
H25    H     0.52115   0.23335   0.67079   0.00000  Uiso   1.00
H26    H     0.61706   0.38827   0.59657   0.00000  Uiso   1.00
H27    H     0.36221   0.47165   0.54344   0.00000  Uiso   1.00
H28    H     0.52530   0.07093   0.72522   0.00000  Uiso   1.00
H29    H     0.72750   0.39762   0.56872   0.00000  Uiso   1.00
H30    H     0.19010   0.57345   0.45668   0.00000  Uiso   1.00
H31    H     0.30167   0.18765   0.39614   0.00000  Uiso   1.00
H32    H     0.31739   0.05186   0.45779   0.00000  Uiso   1.00
H33    H     0.41330   0.20678   0.38357   0.00000  Uiso   1.00
H34    H     0.15845   0.29016   0.33044   0.00000  Uiso   1.00
H35    H     0.35992   0.92363   0.55235   0.00000  Uiso   1.00
H36    H     0.56213   0.25032   0.39584   0.00000  Uiso   1.00
H37    H     0.02472   0.42615   0.28380   0.00000  Uiso   1.00
O38    O     0.45646   0.91105   0.68299   0.00000  Uiso   1.00
O39    O     0.72174   0.33967   0.47765   0.00000  Uiso   1.00
O40    O     0.01668   0.57035   0.33066   0.00000  Uiso   1.00
N41    N     0.48420   0.05491   0.67607   0.00000  Uiso   1.00
N42    N     0.67326   0.36033   0.52975   0.00000  Uiso   1.00
N43    N     0.17084   0.52473   0.42500   0.00000  Uiso   1.00
N44    N     0.39521   0.97564   0.58305   0.00000  Uiso   1.00
N45    N     0.58427   0.28107   0.43673   0.00000  Uiso   1.00
N46    N     0.08185   0.44546   0.33198   0.00000  Uiso   1.00
C47    C     0.15490   0.17667   0.54992   0.00000  Uiso   1.00
C48    C     0.19137   0.26927   0.56387   0.00000  Uiso   1.00
C49    C     0.27836   0.29923   0.62475   0.00000  Uiso   1.00
C50    C     0.29850   0.38617   0.62728   0.00000  Uiso   1.00
C51    C     0.36494   0.52160   0.65752   0.00000  Uiso   1.00
C52    C     0.06213   0.18376   0.52767   0.00000  Uiso   1.00
C53    C     0.04045   0.14181   0.55811   0.00000  Uiso   1.00
C54    C     0.95178   0.15676   0.53016   0.00000  Uiso   1.00
C55    C     0.81754   0.15938   0.50416   0.00000  Uiso   1.00
C56    C     0.12970   0.14628   0.48711   0.00000  Uiso   1.00
C57    C     0.16482   0.07282   0.48345   0.00000  Uiso   1.00
C58    C     0.13302   0.05620   0.42135   0.00000  Uiso   1.00
C59    C     0.10370   0.00063   0.33239   0.00000  Uiso   1.00
C60    C     0.03597   0.27778   0.44613   0.00000  Uiso   1.00
C61    C     0.12677   0.32418   0.50749   0.00000  Uiso   1.00
C62    C     0.14679   0.41109   0.50992   0.00000  Uiso   1.00
C63    C     0.23379   0.44118   0.57081   0.00000  Uiso   1.00
C64    C     0.99753   0.23867   0.47129   0.00000  Uiso   1.00
C65    C     0.90887   0.25367   0.44328   0.00000  Uiso   1.00
C66    C     0.88707   0.21177   0.47368   0.00000  Uiso   1.00
C67    C     0.06511   0.20120   0.43074   0.00000  Uiso   1.00
C68    C     0.03324   0.18468   0.36862   0.00000  Uiso   1.00
C69    C     0.06831   0.11121   0.36487   0.00000  Uiso   1.00
H70    H     0.20519   0.13392   0.59381   0.00000  Uiso   1.00
H71    H     0.32833   0.25672   0.66837   0.00000  Uiso   1.00
H72    H     0.09045   0.09932   0.60173   0.00000  Uiso   1.00
H73    H     0.21480   0.03034   0.52709   0.00000  Uiso   1.00
H74    H     0.43636   0.41709   0.72619   0.00000  Uiso   1.00
H75    H     0.93476   0.08518   0.58566   0.00000  Uiso   1.00
H76    H     0.19698   0.93971   0.42826   0.00000  Uiso   1.00
H77    H     0.98568   0.32053   0.40224   0.00000  Uiso   1.00
H78    H     0.09678   0.45358   0.46629   0.00000  Uiso   1.00
H79    H     0.85890   0.29617   0.39965   0.00000  Uiso   1.00
H80    H     0.98326   0.22719   0.32501   0.00000  Uiso   1.00
H81    H     0.24842   0.57687   0.56217   0.00000  Uiso   1.00
H82    H     0.74682   0.24495   0.42164   0.00000  Uiso   1.00
H83    H     0.00905   0.09949   0.26424   0.00000  Uiso   1.00
O84    O     0.41942   0.58114   0.68977   0.00000  Uiso   1.00
O85    O     0.76135   0.14566   0.50540   0.00000  Uiso   1.00
O86    O     0.10538   0.95483   0.29890   0.00000  Uiso   1.00
N87    N     0.37689   0.43643   0.67879   0.00000  Uiso   1.00
N88    N     0.90793   0.12612   0.54741   0.00000  Uiso   1.00
N89    N     0.15307   0.99011   0.40025   0.00000  Uiso   1.00
N90    N     0.27576   0.52241   0.59053   0.00000  Uiso   1.00
N91    N     0.80681   0.21210   0.45916   0.00000  Uiso   1.00
N92    N     0.05194   0.07609   0.31199   0.00000  Uiso   1.00
C93    C     0.54943   0.82028   0.94820   0.00000  Uiso   1.00
C94    C     0.56192   0.72778   0.93668   0.00000  Uiso   1.00
C95    C     0.52284   0.69415   0.87519   0.00000  Uiso   1.00
C96    C     0.54264   0.60799   0.87520   0.00000  Uiso   1.00
C97    C     0.55335   0.47205   0.84828   0.00000  Uiso   1.00
C98    C     0.50980   0.81194   0.97700   0.00000  Uiso   1.00
C99    C     0.42691   0.84909   0.94941   0.00000  Uiso   1.00
C100   C     0.40284   0.83379   0.98338   0.00000  Uiso   1.00
C101   C     0.33268   0.82857   0.01908   0.00000  Uiso   1.00
C102   C     0.64827   0.85724   0.00587   0.00000  Uiso   1.00
C103   C     0.68180   0.93249   0.00255   0.00000  Uiso   1.00
C104   C     0.77431   0.95534   0.06083   0.00000  Uiso   1.00
C105   C     0.91913   0.02045   0.14135   0.00000  Uiso   1.00
C106   C     0.65408   0.72707   0.05759   0.00000  Uiso   1.00
C107   C     0.61876   0.67715   0.99611   0.00000  Uiso   1.00
C108   C     0.63862   0.59102   0.99622   0.00000  Uiso   1.00
C109   C     0.59958   0.55727   0.93473   0.00000  Uiso   1.00
C110   C     0.56664   0.76132   0.03642   0.00000  Uiso   1.00
C111   C     0.54269   0.74596   0.07044   0.00000  Uiso   1.00
C112   C     0.45979   0.78307   0.04290   0.00000  Uiso   1.00
C113   C     0.70511   0.80661   0.06529   0.00000  Uiso   1.00
C114   C     0.79758   0.82936   0.12358   0.00000  Uiso   1.00
C115   C     0.83125   0.90462   0.12036   0.00000  Uiso   1.00
H116   H     0.50517   0.85970   0.90194   0.00000  Uiso   1.00
H117   H     0.47885   0.73335   0.82921   0.00000  Uiso   1.00
H118   H     0.38294   0.88827   0.90343   0.00000  Uiso   1.00
H119   H     0.63779   0.97165   0.95656   0.00000  Uiso   1.00
H120   H     0.47470   0.57093   0.77478   0.00000  Uiso   1.00
H121   H     0.27250   0.89762   0.93128   0.00000  Uiso   1.00
H122   H     0.80990   0.07345   0.04332   0.00000  Uiso   1.00
H123   H     0.69833   0.68765   0.10386   0.00000  Uiso   1.00
H124   H     0.68261   0.55186   0.04221   0.00000  Uiso   1.00
H125   H     0.58670   0.70678   0.11643   0.00000  Uiso   1.00
H126   H     0.84155   0.79016   0.16956   0.00000  Uiso   1.00
H127   H     0.64008   0.42363   0.94765   0.00000  Uiso   1.00
H128   H     0.43787   0.75032   0.10416   0.00000  Uiso   1.00
H129   H     0.97528   0.92615   0.21620   0.00000  Uiso   1.00
O130   O     0.54354   0.41105   0.81701   0.00000  Uiso   1.00
O131   O     0.27826   0.83967   0.02235   0.00000  Uiso   1.00
O132   O     0.98332   0.07035   0.16934   0.00000  Uiso   1.00
N133   N     0.51580   0.55491   0.82393   0.00000  Uiso   1.00
N134   N     0.32674   0.86033   0.97025   0.00000  Uiso   1.00
N135   N     0.82916   0.02473   0.07500   0.00000  Uiso   1.00
N136   N     0.60479   0.47564   0.91695   0.00000  Uiso   1.00
N137   N     0.41573   0.78107   0.06327   0.00000  Uiso   1.00
N138   N     0.91815   0.94546   0.16802   0.00000  Uiso   1.00
C139   C     0.84510   0.67667   0.95008   0.00000  Uiso   1.00
C140   C     0.80863   0.76927   0.93613   0.00000  Uiso   1.00
C141   C     0.72164   0.79923   0.87525   0.00000  Uiso   1.00
C142   C     0.70150   0.88617   0.87272   0.00000  Uiso   1.00
C143   C     0.63506   0.02160   0.84248   0.00000  Uiso   1.00
C144   C     0.93787   0.68376   0.97233   0.00000  Uiso   1.00
C145   C     0.95955   0.64181   0.94189   0.00000  Uiso   1.00
C146   C     0.04822   0.65676   0.96984   0.00000  Uiso   1.00
C147   C     0.18246   0.65938   0.99584   0.00000  Uiso   1.00
C148   C     0.87030   0.64628   0.01289   0.00000  Uiso   1.00
C149   C     0.83518   0.57282   0.01655   0.00000  Uiso   1.00
C150   C     0.86698   0.55620   0.07865   0.00000  Uiso   1.00
C151   C     0.89630   0.50063   0.16761   0.00000  Uiso   1.00
C152   C     0.96403   0.77778   0.05387   0.00000  Uiso   1.00
C153   C     0.87323   0.82418   0.99251   0.00000  Uiso   1.00
C154   C     0.85321   0.91109   0.99008   0.00000  Uiso   1.00
C155   C     0.76621   0.94118   0.92919   0.00000  Uiso   1.00
C156   C     0.00247   0.73867   0.02871   0.00000  Uiso   1.00
C157   C     0.09113   0.75367   0.05672   0.00000  Uiso   1.00
C158   C     0.11293   0.71177   0.02632   0.00000  Uiso   1.00
C159   C     0.93489   0.70120   0.06926   0.00000  Uiso   1.00
C160   C     0.96676   0.68468   0.13138   0.00000  Uiso   1.00
C161   C     0.93169   0.61121   0.13513   0.00000  Uiso   1.00
H162   H     0.79481   0.63392   0.90619   0.00000  Uiso   1.00
H163   H     0.67167   0.75672   0.83163   0.00000  Uiso   1.00
H164   H     0.90955   0.59932   0.89827   0.00000  Uiso   1.00
H165   H     0.78520   0.53034   0.97291   0.00000  Uiso   1.00
H166   H     0.56364   0.91709   0.77381   0.00000  Uiso   1.00
H167   H     0.06524   0.58518   0.91434   0.00000  Uiso   1.00
H168   H     0.80302   0.43971   0.07174   0.00000  Uiso   1.00
H169   H     0.01432   0.82053   0.09776   0.00000  Uiso   1.00
H170   H     0.90322   0.95358   0.03371   0.00000  Uiso   1.00
H171   H     0.14110   0.79617   0.10035   0.00000  Uiso   1.00
H172   H     0.01674   0.72719   0.17499   0.00000  Uiso   1.00
H173   H     0.75158   0.07687   0.93783   0.00000  Uiso   1.00
H174   H     0.25318   0.74495   0.07836   0.00000  Uiso   1.00
H175   H     0.99095   0.59949   0.23576   0.00000  Uiso   1.00
O176   O     0.58058   0.08114   0.81023   0.00000  Uiso   1.00
O177   O     0.23865   0.64566   0.99460   0.00000  Uiso   1.00
O178   O     0.89462   0.45483   0.20110   0.00000  Uiso   1.00
N179   N     0.62311   0.93643   0.82121   0.00000  Uiso   1.00
N180   N     0.09207   0.62612   0.95259   0.00000  Uiso   1.00
N181   N     0.84693   0.49011   0.09975   0.00000  Uiso   1.00
N182   N     0.72424   0.02241   0.90947   0.00000  Uiso   1.00
N183   N     0.19319   0.71210   0.04084   0.00000  Uiso   1.00
N184   N     0.94806   0.57609   0.18801   0.00000  Uiso   1.00
C185   C     0.54943   0.67972   0.44820   0.00000  Uiso   1.00
C186   C     0.56192   0.77222   0.43668   0.00000  Uiso   1.00
C187   C     0.52284   0.80585   0.37519   0.00000  Uiso   1.00
C188   C     0.54264   0.89201   0.37520   0.00000  Uiso   1.00
C189   C     0.55335   0.02795   0.34828   0.00000  Uiso   1.00
C190   C     0.50980   0.68806   0.47700   0.00000  Uiso   1.00
C191   C     0.42691   0.65091   0.44941   0.00000  Uiso   1.00
C192   C     0.40284   0.66621   0.48338   0.00000  Uiso   1.00
C193   C     0.33268   0.67143   0.51908   0.00000  Uiso   1.00
C194   C     0.64827   0.64276   0.50587   0.00000  Uiso   1.00
C195   C     0.68180   0.56751   0.50255   0.00000  Uiso   1.00
C196   C     0.77431   0.54466   0.56083   0.00000  Uiso   1.00
C197   C     0.91913   0.47955   0.64135   0.00000  Uiso   1.00
C198   C     0.65408   0.77293   0.55759   0.00000  Uiso   1.00
C199   C     0.61876   0.82285   0.49611   0.00000  Uiso   1.00
C200   C     0.63862   0.90898   0.49622   0.00000  Uiso   1.00
C201   C     0.59958   0.94273   0.43473   0.00000  Uiso   1.00
C202   C     0.56664   0.73868   0.53642   0.00000  Uiso   1.00
C203   C     0.54269   0.75404   0.57044   0.00000  Uiso   1.00
C204   C     0.45979   0.71693   0.54290   0.00000  Uiso   1.00
C205   C     0.70511   0.69339   0.56529   0.00000  Uiso   1.00
C206   C     0.79758   0.67064   0.62358   0.00000  Uiso   1.00
C207   C     0.83125   0.59538   0.62036   0.00000  Uiso   1.00
H208   H     0.50517   0.64030   0.40194   0.00000  Uiso   1.00
H209   H     0.47885   0.76665   0.32921   0.00000  Uiso   1.00
H210   H     0.38294   0.61173   0.40343   0.00000  Uiso   1.00
H211   H     0.63779   0.52835   0.45656   0.00000  Uiso   1.00
H212   H     0.47470   0.92907   0.27478   0.00000  Uiso   1.00
H213   H     0.27250   0.60238   0.43128   0.00000  Uiso   1.00
H214   H     0.80990   0.42655   0.54332   0.00000  Uiso   1.00
H215   H     0.69833   0.81235   0.60386   0.00000  Uiso   1.00
H216   H     0.68261   0.94814   0.54221   0.00000  Uiso   1.00
H217   H     0.58670   0.79322   0.61643   0.00000  Uiso   1.00
H218   H     0.84155   0.70984   0.66956   0.00000  Uiso   1.00
H219   H     0.64008   0.07637   0.44765   0.00000  Uiso   1.00
H220   H     0.43787   0.74968   0.60416   0.00000  Uiso   1.00
H221   H     0.97528   0.57385   0.71620   0.00000  Uiso   1.00
O222   O     0.54354   0.08895   0.31701   0.00000  Uiso   1.00
O223   O     0.27826   0.66033   0.52235   0.00000  Uiso   1.00
O224   O     0.98332   0.42965   0.66934   0.00000  Uiso   1.00
N225   N     0.51580   0.94509   0.32393   0.00000  Uiso   1.00
N226   N     0.32674   0.63967   0.47025   0.00000  Uiso   1.00
N227   N     0.82916   0.47527   0.57500   0.00000  Uiso   1.00
N228   N     0.60479   0.02436   0.41695   0.00000  Uiso   1.00
N229   N     0.41573   0.71893   0.56327   0.00000  Uiso   1.00
N230   N     0.91815   0.55454   0.66802   0.00000  Uiso   1.00
C231   C     0.84510   0.82333   0.45008   0.00000  Uiso   1.00
C232   C     0.80863   0.73073   0.43613   0.00000  Uiso   1.00
C233   C     0.72164   0.70077   0.37525   0.00000  Uiso   1.00
C234   C     0.70150   0.61383   0.37272   0.00000  Uiso   1.00
C235   C     0.63506   0.47840   0.34248   0.00000  Uiso   1.00
C236   C     0.93787   0.81624   0.47233   0.00000  Uiso   1.00
C237   C     0.95955   0.85819   0.44189   0.00000  Uiso   1.00
C238   C     0.04822   0.84324   0.46984   0.00000  Uiso   1.00
C239   C     0.18246   0.84062   0.49584   0.00000  Uiso   1.00
C240   C     0.87030   0.85372   0.51289   0.00000  Uiso   1.00
C241   C     0.83518   0.92718   0.51655   0.00000  Uiso   1.00
C242   C     0.86698   0.94380   0.57865   0.00000  Uiso   1.00
C243   C     0.89630   0.99937   0.66761   0.00000  Uiso   1.00
C244   C     0.96403   0.72222   0.55387   0.00000  Uiso   1.00
C245   C     0.87323   0.67582   0.49251   0.00000  Uiso   1.00
C246   C     0.85321   0.58891   0.49008   0.00000  Uiso   1.00
C247   C     0.76621   0.55882   0.42919   0.00000  Uiso   1.00
C248   C     0.00247   0.76133   0.52871   0.00000  Uiso   1.00
C249   C     0.09113   0.74633   0.55672   0.00000  Uiso   1.00
C250   C     0.11293   0.78823   0.52632   0.00000  Uiso   1.00
C251   C     0.93489   0.79880   0.56926   0.00000  Uiso   1.00
C252   C     0.96676   0.81532   0.63138   0.00000  Uiso   1.00
C253   C     0.93169   0.88879   0.63513   0.00000  Uiso   1.00
H254   H     0.79481   0.86608   0.40619   0.00000  Uiso   1.00
H255   H     0.67167   0.74328   0.33163   0.00000  Uiso   1.00
H256   H     0.90955   0.90068   0.39827   0.00000  Uiso   1.00
H257   H     0.78520   0.96966   0.47291   0.00000  Uiso   1.00
H258   H     0.56364   0.58291   0.27381   0.00000  Uiso   1.00
H259   H     0.06524   0.91482   0.41434   0.00000  Uiso   1.00
H260   H     0.80302   0.06029   0.57174   0.00000  Uiso   1.00
H261   H     0.01432   0.67947   0.59776   0.00000  Uiso   1.00
H262   H     0.90322   0.54642   0.53371   0.00000  Uiso   1.00
H263   H     0.14110   0.70383   0.60035   0.00000  Uiso   1.00
H264   H     0.01674   0.77281   0.67499   0.00000  Uiso   1.00
H265   H     0.75158   0.42313   0.43783   0.00000  Uiso   1.00
H266   H     0.25318   0.75505   0.57836   0.00000  Uiso   1.00
H267   H     0.99095   0.90051   0.73576   0.00000  Uiso   1.00
O268   O     0.58058   0.41886   0.31023   0.00000  Uiso   1.00
O269   O     0.23865   0.85434   0.49460   0.00000  Uiso   1.00
O270   O     0.89462   0.04517   0.70110   0.00000  Uiso   1.00
N271   N     0.62311   0.56357   0.32121   0.00000  Uiso   1.00
N272   N     0.09207   0.87388   0.45259   0.00000  Uiso   1.00
N273   N     0.84693   0.00989   0.59975   0.00000  Uiso   1.00
N274   N     0.72424   0.47759   0.40947   0.00000  Uiso   1.00
N275   N     0.19319   0.78790   0.54084   0.00000  Uiso   1.00
N276   N     0.94806   0.92391   0.68801   0.00000  Uiso   1.00
C277   C     0.45057   0.17972   0.05180   0.00000  Uiso   1.00
C278   C     0.43808   0.27222   0.06332   0.00000  Uiso   1.00
C279   C     0.47716   0.30585   0.12481   0.00000  Uiso   1.00
C280   C     0.45736   0.39201   0.12480   0.00000  Uiso   1.00
C281   C     0.44665   0.52795   0.15172   0.00000  Uiso   1.00
C282   C     0.49020   0.18806   0.02300   0.00000  Uiso   1.00
C283   C     0.57309   0.15091   0.05059   0.00000  Uiso   1.00
C284   C     0.59716   0.16621   0.01662   0.00000  Uiso   1.00
C285   C     0.66732   0.17143   0.98092   0.00000  Uiso   1.00
C286   C     0.35173   0.14276   0.99413   0.00000  Uiso   1.00
C287   C     0.31820   0.06751   0.99745   0.00000  Uiso   1.00
C288   C     0.22569   0.04466   0.93917   0.00000  Uiso   1.00
C289   C     0.08087   0.97955   0.85865   0.00000  Uiso   1.00
C290   C     0.34592   0.27293   0.94241   0.00000  Uiso   1.00
C291   C     0.38124   0.32285   0.00389   0.00000  Uiso   1.00
C292   C     0.36138   0.40898   0.00378   0.00000  Uiso   1.00
C293   C     0.40042   0.44273   0.06527   0.00000  Uiso   1.00
C294   C     0.43336   0.23868   0.96358   0.00000  Uiso   1.00
C295   C     0.45731   0.25404   0.92956   0.00000  Uiso   1.00
C296   C     0.54021   0.21693   0.95710   0.00000  Uiso   1.00
C297   C     0.29489   0.19339   0.93471   0.00000  Uiso   1.00
C298   C     0.20242   0.17064   0.87642   0.00000  Uiso   1.00
C299   C     0.16875   0.09538   0.87964   0.00000  Uiso   1.00
H300   H     0.49483   0.14030   0.09806   0.00000  Uiso   1.00
H301   H     0.52115   0.26665   0.17079   0.00000  Uiso   1.00
H302   H     0.61706   0.11173   0.09657   0.00000  Uiso   1.00
H303   H     0.36221   0.02835   0.04344   0.00000  Uiso   1.00
H304   H     0.52530   0.42907   0.22522   0.00000  Uiso   1.00
H305   H     0.72750   0.10238   0.06872   0.00000  Uiso   1.00
H306   H     0.19010   0.92655   0.95668   0.00000  Uiso   1.00
H307   H     0.30167   0.31235   0.89614   0.00000  Uiso   1.00
H308   H     0.31739   0.44814   0.95779   0.00000  Uiso   1.00
H309   H     0.41330   0.29322   0.88357   0.00000  Uiso   1.00
H310   H     0.15845   0.20984   0.83044   0.00000  Uiso   1.00
H311   H     0.35992   0.57637   0.05235   0.00000  Uiso   1.00
H312   H     0.56213   0.24968   0.89584   0.00000  Uiso   1.00
H313   H     0.02472   0.07385   0.78380   0.00000  Uiso   1.00
O314   O     0.45646   0.58895   0.18299   0.00000  Uiso   1.00
O315   O     0.72174   0.16033   0.97765   0.00000  Uiso   1.00
O316   O     0.01668   0.92965   0.83066   0.00000  Uiso   1.00
N317   N     0.48420   0.44509   0.17607   0.00000  Uiso   1.00
N318   N     0.67326   0.13967   0.02975   0.00000  Uiso   1.00
N319   N     0.17084   0.97527   0.92500   0.00000  Uiso   1.00
N320   N     0.39521   0.52436   0.08305   0.00000  Uiso   1.00
N321   N     0.58427   0.21893   0.93673   0.00000  Uiso   1.00
N322   N     0.08185   0.05454   0.83198   0.00000  Uiso   1.00
C323   C     0.15490   0.32333   0.04992   0.00000  Uiso   1.00
C324   C     0.19137   0.23073   0.06387   0.00000  Uiso   1.00
C325   C     0.27836   0.20077   0.12475   0.00000  Uiso   1.00
C326   C     0.29850   0.11383   0.12728   0.00000  Uiso   1.00
C327   C     0.36494   0.97840   0.15752   0.00000  Uiso   1.00
C328   C     0.06213   0.31624   0.02767   0.00000  Uiso   1.00
C329   C     0.04045   0.35819   0.05811   0.00000  Uiso   1.00
C330   C     0.95178   0.34324   0.03016   0.00000  Uiso   1.00
C331   C     0.81754   0.34062   0.00416   0.00000  Uiso   1.00
C332   C     0.12970   0.35372   0.98711   0.00000  Uiso   1.00
C333   C     0.16482   0.42718   0.98345   0.00000  Uiso   1.00
C334   C     0.13302   0.44380   0.92135   0.00000  Uiso   1.00
C335   C     0.10370   0.49937   0.83239   0.00000  Uiso   1.00
C336   C     0.03597   0.22222   0.94613   0.00000  Uiso   1.00
C337   C     0.12677   0.17582   0.00749   0.00000  Uiso   1.00
C338   C     0.14679   0.08891   0.00992   0.00000  Uiso   1.00
C339   C     0.23379   0.05882   0.07081   0.00000  Uiso   1.00
C340   C     0.99753   0.26133   0.97129   0.00000  Uiso   1.00
C341   C     0.90887   0.24633   0.94328   0.00000  Uiso   1.00
C342   C     0.88707   0.28823   0.97368   0.00000  Uiso   1.00
C343   C     0.06511   0.29880   0.93074   0.00000  Uiso   1.00
C344   C     0.03324   0.31532   0.86862   0.00000  Uiso   1.00
C345   C     0.06831   0.38879   0.86487   0.00000  Uiso   1.00
H346   H     0.20519   0.36608   0.09381   0.00000  Uiso   1.00
H347   H     0.32833   0.24328   0.16837   0.00000  Uiso   1.00
H348   H     0.09045   0.40068   0.10173   0.00000  Uiso   1.00
H349   H     0.21480   0.46966   0.02709   0.00000  Uiso   1.00
H350   H     0.43636   0.08291   0.22619   0.00000  Uiso   1.00
H351   H     0.93476   0.41482   0.08566   0.00000  Uiso   1.00
H352   H     0.19698   0.56029   0.92826   0.00000  Uiso   1.00
H353   H     0.98568   0.17947   0.90224   0.00000  Uiso   1.00
H354   H     0.09678   0.04642   0.96629   0.00000  Uiso   1.00
H355   H     0.85890   0.20383   0.89965   0.00000  Uiso   1.00
H356   H     0.98326   0.27281   0.82501   0.00000  Uiso   1.00
H357   H     0.24842   0.92313   0.06217   0.00000  Uiso   1.00
H358   H     0.74682   0.25505   0.92164   0.00000  Uiso   1.00
H359   H     0.00905   0.40051   0.76424   0.00000  Uiso   1.00
O360   O     0.41942   0.91886   0.18977   0.00000  Uiso   1.00
O361   O     0.76135   0.35434   0.00540   0.00000  Uiso   1.00
O362   O     0.10538   0.54517   0.79890   0.00000  Uiso   1.00
N363   N     0.37689   0.06357   0.17879   0.00000  Uiso   1.00
N364   N     0.90793   0.37388   0.04741   0.00000  Uiso   1.00
N365   N     0.15307   0.50989   0.90025   0.00000  Uiso   1.00
N366   N     0.27576   0.97759   0.09053   0.00000  Uiso   1.00
N367   N     0.80681   0.28790   0.95916   0.00000  Uiso   1.00
N368   N     0.05194   0.42391   0.81199   0.00000  Uiso   1.00
