data_job_02445
_audit_creation_date              2018-12-19
_audit_creation_method            'Materials Studio'
_symmetry_space_group_name_H-M    'P1'
_symmetry_Int_Tables_number       1
_symmetry_cell_setting            triclinic
loop_
_symmetry_equiv_pos_as_xyz
  x,y,z
_cell_length_a                    23.9945
_cell_length_b                    10.5269
_cell_length_c                    22.2289
_cell_angle_alpha                 90.0000
_cell_angle_beta                  90.0000
_cell_angle_gamma                 90.0000
loop_
_atom_site_label
_atom_site_type_symbol
_atom_site_fract_x
_atom_site_fract_y
_atom_site_fract_z
_atom_site_U_iso_or_equiv
_atom_site_adp_type
_atom_site_occupancy
C1     C     0.09974   0.59691   0.11820   0.00000  Uiso   1.00
C2     C     0.15713   0.65913   0.11823   0.00000  Uiso   1.00
C3     C     0.20206   0.62314   0.08280   0.00000  Uiso   1.00
C4     C     0.25100   0.69209   0.08946   0.00000  Uiso   1.00
C5     C     0.33953   0.77334   0.08331   0.00000  Uiso   1.00
C6     C     0.05821   0.70278   0.10465   0.00000  Uiso   1.00
C7     C     0.01997   0.70348   0.05781   0.00000  Uiso   1.00
C8     C     0.98564   0.80917   0.05304   0.00000  Uiso   1.00
C9     C     0.92057   0.95814   0.02583   0.00000  Uiso   1.00
C10    C     0.08867   0.55661   0.18299   0.00000  Uiso   1.00
C11    C     0.07602   0.43440   0.20203   0.00000  Uiso   1.00
C12    C     0.06732   0.41703   0.26323   0.00000  Uiso   1.00
C13    C     0.04954   0.33904   0.35766   0.00000  Uiso   1.00
C14    C     0.10675   0.78336   0.19303   0.00000  Uiso   1.00
C15    C     0.16094   0.76041   0.15887   0.00000  Uiso   1.00
C16    C     0.20982   0.82943   0.16560   0.00000  Uiso   1.00
C17    C     0.25482   0.79354   0.13019   0.00000  Uiso   1.00
C18    C     0.06202   0.80405   0.14529   0.00000  Uiso   1.00
C19    C     0.02774   0.90976   0.14060   0.00000  Uiso   1.00
C20    C     0.98946   0.91063   0.09376   0.00000  Uiso   1.00
C21    C     0.09248   0.65788   0.22364   0.00000  Uiso   1.00
C22    C     0.08379   0.64069   0.28483   0.00000  Uiso   1.00
C23    C     0.07113   0.51848   0.30395   0.00000  Uiso   1.00
H24    H     0.09677   0.51808   0.08655   0.00000  Uiso   1.00
H25    H     0.19909   0.54477   0.05135   0.00000  Uiso   1.00
H26    H     0.01703   0.62509   0.02636   0.00000  Uiso   1.00
H27    H     0.07308   0.35606   0.17056   0.00000  Uiso   1.00
H28    H     0.31421   0.61906   0.03023   0.00000  Uiso   1.00
H29    H     0.93031   0.78840   0.97755   0.00000  Uiso   1.00
H30    H     0.04850   0.22109   0.28163   0.00000  Uiso   1.00
H31    H     0.10972   0.86221   0.22468   0.00000  Uiso   1.00
H32    H     0.21276   0.90779   0.19705   0.00000  Uiso   1.00
H33    H     0.03069   0.98811   0.17206   0.00000  Uiso   1.00
H34    H     0.08674   0.71908   0.31627   0.00000  Uiso   1.00
H35    H     0.32530   0.91370   0.14848   0.00000  Uiso   1.00
H36    H     0.94140   0.08304   0.09581   0.00000  Uiso   1.00
H37    H     0.05959   0.51573   0.39989   0.00000  Uiso   1.00
O38    O     0.38730   0.79019   0.06868   0.00000  Uiso   1.00
O39    O     0.88363   0.01234   0.99958   0.00000  Uiso   1.00
O40    O     0.03869   0.26804   0.39852   0.00000  Uiso   1.00
N41    N     0.30269   0.68213   0.06186   0.00000  Uiso   1.00
N42    N     0.94377   0.84047   0.01261   0.00000  Uiso   1.00
N43    N     0.05424   0.31008   0.29689   0.00000  Uiso   1.00
N44    N     0.30865   0.84068   0.12549   0.00000  Uiso   1.00
N45    N     0.94974   0.99901   0.07624   0.00000  Uiso   1.00
N46    N     0.06021   0.46863   0.36053   0.00000  Uiso   1.00
C47    C     0.40026   0.90309   0.61820   0.00000  Uiso   1.00
C48    C     0.34287   0.84087   0.61823   0.00000  Uiso   1.00
C49    C     0.29794   0.87686   0.58280   0.00000  Uiso   1.00
C50    C     0.24900   0.80791   0.58946   0.00000  Uiso   1.00
C51    C     0.16047   0.72666   0.58331   0.00000  Uiso   1.00
C52    C     0.44179   0.79722   0.60465   0.00000  Uiso   1.00
C53    C     0.48003   0.79652   0.55781   0.00000  Uiso   1.00
C54    C     0.51436   0.69083   0.55304   0.00000  Uiso   1.00
C55    C     0.57943   0.54186   0.52583   0.00000  Uiso   1.00
C56    C     0.41133   0.94339   0.68299   0.00000  Uiso   1.00
C57    C     0.42398   0.06560   0.70203   0.00000  Uiso   1.00
C58    C     0.43268   0.08297   0.76323   0.00000  Uiso   1.00
C59    C     0.45046   0.16096   0.85766   0.00000  Uiso   1.00
C60    C     0.39325   0.71664   0.69303   0.00000  Uiso   1.00
C61    C     0.33906   0.73959   0.65887   0.00000  Uiso   1.00
C62    C     0.29018   0.67057   0.66560   0.00000  Uiso   1.00
C63    C     0.24518   0.70646   0.63019   0.00000  Uiso   1.00
C64    C     0.43798   0.69595   0.64529   0.00000  Uiso   1.00
C65    C     0.47226   0.59024   0.64060   0.00000  Uiso   1.00
C66    C     0.51054   0.58937   0.59376   0.00000  Uiso   1.00
C67    C     0.40752   0.84212   0.72364   0.00000  Uiso   1.00
C68    C     0.41621   0.85931   0.78483   0.00000  Uiso   1.00
C69    C     0.42887   0.98152   0.80395   0.00000  Uiso   1.00
H70    H     0.40323   0.98192   0.58655   0.00000  Uiso   1.00
H71    H     0.30091   0.95523   0.55135   0.00000  Uiso   1.00
H72    H     0.48297   0.87491   0.52636   0.00000  Uiso   1.00
H73    H     0.42692   0.14394   0.67056   0.00000  Uiso   1.00
H74    H     0.18579   0.88094   0.53023   0.00000  Uiso   1.00
H75    H     0.56969   0.71160   0.47755   0.00000  Uiso   1.00
H76    H     0.45150   0.27891   0.78163   0.00000  Uiso   1.00
H77    H     0.39028   0.63779   0.72468   0.00000  Uiso   1.00
H78    H     0.28724   0.59221   0.69705   0.00000  Uiso   1.00
H79    H     0.46931   0.51189   0.67206   0.00000  Uiso   1.00
H80    H     0.41326   0.78092   0.81627   0.00000  Uiso   1.00
H81    H     0.17470   0.58630   0.64848   0.00000  Uiso   1.00
H82    H     0.55860   0.41696   0.59581   0.00000  Uiso   1.00
H83    H     0.44041   0.98427   0.89989   0.00000  Uiso   1.00
O84    O     0.11270   0.70981   0.56868   0.00000  Uiso   1.00
O85    O     0.61637   0.48766   0.49958   0.00000  Uiso   1.00
O86    O     0.46131   0.23196   0.89852   0.00000  Uiso   1.00
N87    N     0.19731   0.81787   0.56186   0.00000  Uiso   1.00
N88    N     0.55623   0.65953   0.51261   0.00000  Uiso   1.00
N89    N     0.44576   0.18992   0.79689   0.00000  Uiso   1.00
N90    N     0.19135   0.65932   0.62549   0.00000  Uiso   1.00
N91    N     0.55026   0.50099   0.57624   0.00000  Uiso   1.00
N92    N     0.43979   0.03137   0.86053   0.00000  Uiso   1.00
C93    C     0.90026   0.59691   0.38180   0.00000  Uiso   1.00
C94    C     0.84287   0.65913   0.38177   0.00000  Uiso   1.00
C95    C     0.79794   0.62314   0.41720   0.00000  Uiso   1.00
C96    C     0.74900   0.69209   0.41054   0.00000  Uiso   1.00
C97    C     0.66047   0.77334   0.41669   0.00000  Uiso   1.00
C98    C     0.94179   0.70278   0.39535   0.00000  Uiso   1.00
C99    C     0.98003   0.70348   0.44219   0.00000  Uiso   1.00
C100   C     0.01436   0.80917   0.44696   0.00000  Uiso   1.00
C101   C     0.07943   0.95814   0.47417   0.00000  Uiso   1.00
C102   C     0.91133   0.55661   0.31701   0.00000  Uiso   1.00
C103   C     0.92398   0.43440   0.29797   0.00000  Uiso   1.00
C104   C     0.93268   0.41703   0.23677   0.00000  Uiso   1.00
C105   C     0.95046   0.33904   0.14234   0.00000  Uiso   1.00
C106   C     0.89325   0.78336   0.30697   0.00000  Uiso   1.00
C107   C     0.83906   0.76041   0.34113   0.00000  Uiso   1.00
C108   C     0.79018   0.82943   0.33440   0.00000  Uiso   1.00
C109   C     0.74518   0.79354   0.36981   0.00000  Uiso   1.00
C110   C     0.93798   0.80405   0.35471   0.00000  Uiso   1.00
C111   C     0.97226   0.90976   0.35940   0.00000  Uiso   1.00
C112   C     0.01054   0.91063   0.40624   0.00000  Uiso   1.00
C113   C     0.90752   0.65788   0.27636   0.00000  Uiso   1.00
C114   C     0.91621   0.64069   0.21517   0.00000  Uiso   1.00
C115   C     0.92887   0.51848   0.19605   0.00000  Uiso   1.00
H116   H     0.90323   0.51808   0.41345   0.00000  Uiso   1.00
H117   H     0.80091   0.54477   0.44865   0.00000  Uiso   1.00
H118   H     0.98297   0.62509   0.47364   0.00000  Uiso   1.00
H119   H     0.92692   0.35606   0.32944   0.00000  Uiso   1.00
H120   H     0.68579   0.61906   0.46977   0.00000  Uiso   1.00
H121   H     0.06969   0.78840   0.52245   0.00000  Uiso   1.00
H122   H     0.95150   0.22109   0.21837   0.00000  Uiso   1.00
H123   H     0.89028   0.86221   0.27532   0.00000  Uiso   1.00
H124   H     0.78724   0.90779   0.30295   0.00000  Uiso   1.00
H125   H     0.96931   0.98811   0.32794   0.00000  Uiso   1.00
H126   H     0.91326   0.71908   0.18373   0.00000  Uiso   1.00
H127   H     0.67470   0.91370   0.35152   0.00000  Uiso   1.00
H128   H     0.05860   0.08304   0.40419   0.00000  Uiso   1.00
H129   H     0.94041   0.51573   0.10011   0.00000  Uiso   1.00
O130   O     0.61270   0.79019   0.43132   0.00000  Uiso   1.00
O131   O     0.11637   0.01234   0.50042   0.00000  Uiso   1.00
O132   O     0.96131   0.26804   0.10148   0.00000  Uiso   1.00
N133   N     0.69731   0.68213   0.43814   0.00000  Uiso   1.00
N134   N     0.05623   0.84047   0.48739   0.00000  Uiso   1.00
N135   N     0.94576   0.31008   0.20311   0.00000  Uiso   1.00
N136   N     0.69135   0.84068   0.37451   0.00000  Uiso   1.00
N137   N     0.05026   0.99901   0.42376   0.00000  Uiso   1.00
N138   N     0.93979   0.46863   0.13947   0.00000  Uiso   1.00
C139   C     0.59974   0.90309   0.88180   0.00000  Uiso   1.00
C140   C     0.65713   0.84087   0.88177   0.00000  Uiso   1.00
C141   C     0.70206   0.87686   0.91720   0.00000  Uiso   1.00
C142   C     0.75100   0.80791   0.91054   0.00000  Uiso   1.00
C143   C     0.83953   0.72666   0.91669   0.00000  Uiso   1.00
C144   C     0.55821   0.79722   0.89535   0.00000  Uiso   1.00
C145   C     0.51997   0.79652   0.94219   0.00000  Uiso   1.00
C146   C     0.48564   0.69083   0.94696   0.00000  Uiso   1.00
C147   C     0.42057   0.54186   0.97417   0.00000  Uiso   1.00
C148   C     0.58867   0.94339   0.81701   0.00000  Uiso   1.00
C149   C     0.57602   0.06560   0.79797   0.00000  Uiso   1.00
C150   C     0.56732   0.08297   0.73677   0.00000  Uiso   1.00
C151   C     0.54954   0.16096   0.64234   0.00000  Uiso   1.00
C152   C     0.60675   0.71664   0.80697   0.00000  Uiso   1.00
C153   C     0.66094   0.73959   0.84113   0.00000  Uiso   1.00
C154   C     0.70982   0.67057   0.83440   0.00000  Uiso   1.00
C155   C     0.75482   0.70646   0.86981   0.00000  Uiso   1.00
C156   C     0.56202   0.69595   0.85471   0.00000  Uiso   1.00
C157   C     0.52774   0.59024   0.85940   0.00000  Uiso   1.00
C158   C     0.48946   0.58937   0.90624   0.00000  Uiso   1.00
C159   C     0.59248   0.84212   0.77636   0.00000  Uiso   1.00
C160   C     0.58379   0.85931   0.71517   0.00000  Uiso   1.00
C161   C     0.57113   0.98152   0.69605   0.00000  Uiso   1.00
H162   H     0.59677   0.98192   0.91345   0.00000  Uiso   1.00
H163   H     0.69909   0.95523   0.94865   0.00000  Uiso   1.00
H164   H     0.51703   0.87491   0.97364   0.00000  Uiso   1.00
H165   H     0.57308   0.14394   0.82944   0.00000  Uiso   1.00
H166   H     0.81421   0.88094   0.96977   0.00000  Uiso   1.00
H167   H     0.43031   0.71160   0.02245   0.00000  Uiso   1.00
H168   H     0.54850   0.27891   0.71837   0.00000  Uiso   1.00
H169   H     0.60972   0.63779   0.77532   0.00000  Uiso   1.00
H170   H     0.71276   0.59221   0.80295   0.00000  Uiso   1.00
H171   H     0.53069   0.51189   0.82794   0.00000  Uiso   1.00
H172   H     0.58674   0.78092   0.68373   0.00000  Uiso   1.00
H173   H     0.82530   0.58630   0.85152   0.00000  Uiso   1.00
H174   H     0.44140   0.41696   0.90419   0.00000  Uiso   1.00
H175   H     0.55959   0.98427   0.60011   0.00000  Uiso   1.00
O176   O     0.88730   0.70981   0.93132   0.00000  Uiso   1.00
O177   O     0.38363   0.48766   0.00042   0.00000  Uiso   1.00
O178   O     0.53869   0.23196   0.60148   0.00000  Uiso   1.00
N179   N     0.80269   0.81787   0.93814   0.00000  Uiso   1.00
N180   N     0.44377   0.65953   0.98739   0.00000  Uiso   1.00
N181   N     0.55424   0.18992   0.70311   0.00000  Uiso   1.00
N182   N     0.80865   0.65932   0.87451   0.00000  Uiso   1.00
N183   N     0.44974   0.50099   0.92376   0.00000  Uiso   1.00
N184   N     0.56021   0.03137   0.63947   0.00000  Uiso   1.00
C185   C     0.90026   0.40309   0.88180   0.00000  Uiso   1.00
C186   C     0.84287   0.34087   0.88177   0.00000  Uiso   1.00
C187   C     0.79794   0.37686   0.91720   0.00000  Uiso   1.00
C188   C     0.74900   0.30791   0.91054   0.00000  Uiso   1.00
C189   C     0.66047   0.22666   0.91669   0.00000  Uiso   1.00
C190   C     0.94179   0.29722   0.89535   0.00000  Uiso   1.00
C191   C     0.98003   0.29652   0.94219   0.00000  Uiso   1.00
C192   C     0.01436   0.19083   0.94696   0.00000  Uiso   1.00
C193   C     0.07943   0.04186   0.97417   0.00000  Uiso   1.00
C194   C     0.91133   0.44339   0.81701   0.00000  Uiso   1.00
C195   C     0.92398   0.56560   0.79797   0.00000  Uiso   1.00
C196   C     0.93268   0.58297   0.73677   0.00000  Uiso   1.00
C197   C     0.95046   0.66096   0.64234   0.00000  Uiso   1.00
C198   C     0.89325   0.21664   0.80697   0.00000  Uiso   1.00
C199   C     0.83906   0.23959   0.84113   0.00000  Uiso   1.00
C200   C     0.79018   0.17057   0.83440   0.00000  Uiso   1.00
C201   C     0.74518   0.20646   0.86981   0.00000  Uiso   1.00
C202   C     0.93798   0.19595   0.85471   0.00000  Uiso   1.00
C203   C     0.97226   0.09024   0.85940   0.00000  Uiso   1.00
C204   C     0.01054   0.08937   0.90624   0.00000  Uiso   1.00
C205   C     0.90752   0.34212   0.77636   0.00000  Uiso   1.00
C206   C     0.91621   0.35931   0.71517   0.00000  Uiso   1.00
C207   C     0.92887   0.48152   0.69605   0.00000  Uiso   1.00
H208   H     0.90323   0.48192   0.91345   0.00000  Uiso   1.00
H209   H     0.80091   0.45523   0.94865   0.00000  Uiso   1.00
H210   H     0.98297   0.37491   0.97364   0.00000  Uiso   1.00
H211   H     0.92692   0.64394   0.82944   0.00000  Uiso   1.00
H212   H     0.68579   0.38094   0.96977   0.00000  Uiso   1.00
H213   H     0.06969   0.21160   0.02245   0.00000  Uiso   1.00
H214   H     0.95150   0.77891   0.71837   0.00000  Uiso   1.00
H215   H     0.89028   0.13779   0.77532   0.00000  Uiso   1.00
H216   H     0.78724   0.09221   0.80295   0.00000  Uiso   1.00
H217   H     0.96931   0.01189   0.82794   0.00000  Uiso   1.00
H218   H     0.91326   0.28092   0.68373   0.00000  Uiso   1.00
H219   H     0.67470   0.08630   0.85152   0.00000  Uiso   1.00
H220   H     0.05860   0.91696   0.90419   0.00000  Uiso   1.00
H221   H     0.94041   0.48427   0.60011   0.00000  Uiso   1.00
O222   O     0.61270   0.20981   0.93132   0.00000  Uiso   1.00
O223   O     0.11637   0.98766   0.00042   0.00000  Uiso   1.00
O224   O     0.96131   0.73196   0.60148   0.00000  Uiso   1.00
N225   N     0.69731   0.31787   0.93814   0.00000  Uiso   1.00
N226   N     0.05623   0.15953   0.98739   0.00000  Uiso   1.00
N227   N     0.94576   0.68992   0.70311   0.00000  Uiso   1.00
N228   N     0.69135   0.15932   0.87451   0.00000  Uiso   1.00
N229   N     0.05026   0.00099   0.92376   0.00000  Uiso   1.00
N230   N     0.93979   0.53137   0.63947   0.00000  Uiso   1.00
C231   C     0.59974   0.09691   0.38180   0.00000  Uiso   1.00
C232   C     0.65713   0.15913   0.38177   0.00000  Uiso   1.00
C233   C     0.70206   0.12314   0.41720   0.00000  Uiso   1.00
C234   C     0.75100   0.19209   0.41054   0.00000  Uiso   1.00
C235   C     0.83953   0.27334   0.41669   0.00000  Uiso   1.00
C236   C     0.55821   0.20278   0.39535   0.00000  Uiso   1.00
C237   C     0.51997   0.20348   0.44219   0.00000  Uiso   1.00
C238   C     0.48564   0.30917   0.44696   0.00000  Uiso   1.00
C239   C     0.42057   0.45814   0.47417   0.00000  Uiso   1.00
C240   C     0.58867   0.05661   0.31701   0.00000  Uiso   1.00
C241   C     0.57602   0.93440   0.29797   0.00000  Uiso   1.00
C242   C     0.56732   0.91703   0.23677   0.00000  Uiso   1.00
C243   C     0.54954   0.83904   0.14234   0.00000  Uiso   1.00
C244   C     0.60675   0.28336   0.30697   0.00000  Uiso   1.00
C245   C     0.66094   0.26041   0.34113   0.00000  Uiso   1.00
C246   C     0.70982   0.32943   0.33440   0.00000  Uiso   1.00
C247   C     0.75482   0.29354   0.36981   0.00000  Uiso   1.00
C248   C     0.56202   0.30405   0.35471   0.00000  Uiso   1.00
C249   C     0.52774   0.40976   0.35940   0.00000  Uiso   1.00
C250   C     0.48946   0.41063   0.40624   0.00000  Uiso   1.00
C251   C     0.59248   0.15788   0.27636   0.00000  Uiso   1.00
C252   C     0.58379   0.14069   0.21517   0.00000  Uiso   1.00
C253   C     0.57113   0.01848   0.19605   0.00000  Uiso   1.00
H254   H     0.59677   0.01808   0.41345   0.00000  Uiso   1.00
H255   H     0.69909   0.04477   0.44865   0.00000  Uiso   1.00
H256   H     0.51703   0.12509   0.47364   0.00000  Uiso   1.00
H257   H     0.57308   0.85606   0.32944   0.00000  Uiso   1.00
H258   H     0.81421   0.11906   0.46977   0.00000  Uiso   1.00
H259   H     0.43031   0.28840   0.52245   0.00000  Uiso   1.00
H260   H     0.54850   0.72109   0.21837   0.00000  Uiso   1.00
H261   H     0.60972   0.36221   0.27532   0.00000  Uiso   1.00
H262   H     0.71276   0.40779   0.30295   0.00000  Uiso   1.00
H263   H     0.53069   0.48811   0.32794   0.00000  Uiso   1.00
H264   H     0.58674   0.21908   0.18373   0.00000  Uiso   1.00
H265   H     0.82530   0.41370   0.35152   0.00000  Uiso   1.00
H266   H     0.44140   0.58304   0.40419   0.00000  Uiso   1.00
H267   H     0.55959   0.01573   0.10011   0.00000  Uiso   1.00
O268   O     0.88730   0.29019   0.43132   0.00000  Uiso   1.00
O269   O     0.38363   0.51234   0.50042   0.00000  Uiso   1.00
O270   O     0.53869   0.76804   0.10148   0.00000  Uiso   1.00
N271   N     0.80269   0.18213   0.43814   0.00000  Uiso   1.00
N272   N     0.44377   0.34047   0.48739   0.00000  Uiso   1.00
N273   N     0.55424   0.81008   0.20311   0.00000  Uiso   1.00
N274   N     0.80865   0.34068   0.37451   0.00000  Uiso   1.00
N275   N     0.44974   0.49901   0.42376   0.00000  Uiso   1.00
N276   N     0.56021   0.96863   0.13947   0.00000  Uiso   1.00
C277   C     0.09974   0.40309   0.61820   0.00000  Uiso   1.00
C278   C     0.15713   0.34087   0.61823   0.00000  Uiso   1.00
C279   C     0.20206   0.37686   0.58280   0.00000  Uiso   1.00
C280   C     0.25100   0.30791   0.58946   0.00000  Uiso   1.00
C281   C     0.33953   0.22666   0.58331   0.00000  Uiso   1.00
C282   C     0.05821   0.29722   0.60465   0.00000  Uiso   1.00
C283   C     0.01997   0.29652   0.55781   0.00000  Uiso   1.00
C284   C     0.98564   0.19083   0.55304   0.00000  Uiso   1.00
C285   C     0.92057   0.04186   0.52583   0.00000  Uiso   1.00
C286   C     0.08867   0.44339   0.68299   0.00000  Uiso   1.00
C287   C     0.07602   0.56560   0.70203   0.00000  Uiso   1.00
C288   C     0.06732   0.58297   0.76323   0.00000  Uiso   1.00
C289   C     0.04954   0.66096   0.85766   0.00000  Uiso   1.00
C290   C     0.10675   0.21664   0.69303   0.00000  Uiso   1.00
C291   C     0.16094   0.23959   0.65887   0.00000  Uiso   1.00
C292   C     0.20982   0.17057   0.66560   0.00000  Uiso   1.00
C293   C     0.25482   0.20646   0.63019   0.00000  Uiso   1.00
C294   C     0.06202   0.19595   0.64529   0.00000  Uiso   1.00
C295   C     0.02774   0.09024   0.64060   0.00000  Uiso   1.00
C296   C     0.98946   0.08937   0.59376   0.00000  Uiso   1.00
C297   C     0.09248   0.34212   0.72364   0.00000  Uiso   1.00
C298   C     0.08379   0.35931   0.78483   0.00000  Uiso   1.00
C299   C     0.07113   0.48152   0.80395   0.00000  Uiso   1.00
H300   H     0.09677   0.48192   0.58655   0.00000  Uiso   1.00
H301   H     0.19909   0.45523   0.55135   0.00000  Uiso   1.00
H302   H     0.01703   0.37491   0.52636   0.00000  Uiso   1.00
H303   H     0.07308   0.64394   0.67056   0.00000  Uiso   1.00
H304   H     0.31421   0.38094   0.53023   0.00000  Uiso   1.00
H305   H     0.93031   0.21160   0.47755   0.00000  Uiso   1.00
H306   H     0.04850   0.77891   0.78163   0.00000  Uiso   1.00
H307   H     0.10972   0.13779   0.72468   0.00000  Uiso   1.00
H308   H     0.21276   0.09221   0.69705   0.00000  Uiso   1.00
H309   H     0.03069   0.01189   0.67206   0.00000  Uiso   1.00
H310   H     0.08674   0.28092   0.81627   0.00000  Uiso   1.00
H311   H     0.32530   0.08630   0.64848   0.00000  Uiso   1.00
H312   H     0.94140   0.91696   0.59581   0.00000  Uiso   1.00
H313   H     0.05959   0.48427   0.89989   0.00000  Uiso   1.00
O314   O     0.38730   0.20981   0.56868   0.00000  Uiso   1.00
O315   O     0.88363   0.98766   0.49958   0.00000  Uiso   1.00
O316   O     0.03869   0.73196   0.89852   0.00000  Uiso   1.00
N317   N     0.30269   0.31787   0.56186   0.00000  Uiso   1.00
N318   N     0.94377   0.15953   0.51261   0.00000  Uiso   1.00
N319   N     0.05424   0.68992   0.79689   0.00000  Uiso   1.00
N320   N     0.30865   0.15932   0.62549   0.00000  Uiso   1.00
N321   N     0.94974   0.00099   0.57624   0.00000  Uiso   1.00
N322   N     0.06021   0.53137   0.86053   0.00000  Uiso   1.00
C323   C     0.40026   0.09691   0.11820   0.00000  Uiso   1.00
C324   C     0.34287   0.15913   0.11823   0.00000  Uiso   1.00
C325   C     0.29794   0.12314   0.08280   0.00000  Uiso   1.00
C326   C     0.24900   0.19209   0.08946   0.00000  Uiso   1.00
C327   C     0.16047   0.27334   0.08331   0.00000  Uiso   1.00
C328   C     0.44179   0.20278   0.10465   0.00000  Uiso   1.00
C329   C     0.48003   0.20348   0.05781   0.00000  Uiso   1.00
C330   C     0.51436   0.30917   0.05304   0.00000  Uiso   1.00
C331   C     0.57943   0.45814   0.02583   0.00000  Uiso   1.00
C332   C     0.41133   0.05661   0.18299   0.00000  Uiso   1.00
C333   C     0.42398   0.93440   0.20203   0.00000  Uiso   1.00
C334   C     0.43268   0.91703   0.26323   0.00000  Uiso   1.00
C335   C     0.45046   0.83904   0.35766   0.00000  Uiso   1.00
C336   C     0.39325   0.28336   0.19303   0.00000  Uiso   1.00
C337   C     0.33906   0.26041   0.15887   0.00000  Uiso   1.00
C338   C     0.29018   0.32943   0.16560   0.00000  Uiso   1.00
C339   C     0.24518   0.29354   0.13019   0.00000  Uiso   1.00
C340   C     0.43798   0.30405   0.14529   0.00000  Uiso   1.00
C341   C     0.47226   0.40976   0.14060   0.00000  Uiso   1.00
C342   C     0.51054   0.41063   0.09376   0.00000  Uiso   1.00
C343   C     0.40752   0.15788   0.22364   0.00000  Uiso   1.00
C344   C     0.41621   0.14069   0.28483   0.00000  Uiso   1.00
C345   C     0.42887   0.01848   0.30395   0.00000  Uiso   1.00
H346   H     0.40323   0.01808   0.08655   0.00000  Uiso   1.00
H347   H     0.30091   0.04477   0.05135   0.00000  Uiso   1.00
H348   H     0.48297   0.12509   0.02636   0.00000  Uiso   1.00
H349   H     0.42692   0.85606   0.17056   0.00000  Uiso   1.00
H350   H     0.18579   0.11906   0.03023   0.00000  Uiso   1.00
H351   H     0.56969   0.28840   0.97755   0.00000  Uiso   1.00
H352   H     0.45150   0.72109   0.28163   0.00000  Uiso   1.00
H353   H     0.39028   0.36221   0.22468   0.00000  Uiso   1.00
H354   H     0.28724   0.40779   0.19705   0.00000  Uiso   1.00
H355   H     0.46931   0.48811   0.17206   0.00000  Uiso   1.00
H356   H     0.41326   0.21908   0.31627   0.00000  Uiso   1.00
H357   H     0.17470   0.41370   0.14848   0.00000  Uiso   1.00
H358   H     0.55860   0.58304   0.09581   0.00000  Uiso   1.00
H359   H     0.44041   0.01573   0.39989   0.00000  Uiso   1.00
O360   O     0.11270   0.29019   0.06868   0.00000  Uiso   1.00
O361   O     0.61637   0.51234   0.99958   0.00000  Uiso   1.00
O362   O     0.46131   0.76804   0.39852   0.00000  Uiso   1.00
N363   N     0.19731   0.18213   0.06186   0.00000  Uiso   1.00
N364   N     0.55623   0.34047   0.01261   0.00000  Uiso   1.00
N365   N     0.44576   0.81008   0.29689   0.00000  Uiso   1.00
N366   N     0.19135   0.34068   0.12549   0.00000  Uiso   1.00
N367   N     0.55026   0.49901   0.07624   0.00000  Uiso   1.00
N368   N     0.43979   0.96863   0.36053   0.00000  Uiso   1.00
