data_job_06783
_audit_creation_date              2018-12-19
_audit_creation_method            'Materials Studio'
_symmetry_space_group_name_H-M    'P1'
_symmetry_Int_Tables_number       1
_symmetry_cell_setting            triclinic
loop_
_symmetry_equiv_pos_as_xyz
  x,y,z
_cell_length_a                    22.2047
_cell_length_b                    23.6399
_cell_length_c                    24.0083
_cell_angle_alpha                 118.4059
_cell_angle_beta                  66.0429
_cell_angle_gamma                 96.7746
loop_
_atom_site_label
_atom_site_type_symbol
_atom_site_fract_x
_atom_site_fract_y
_atom_site_fract_z
_atom_site_U_iso_or_equiv
_atom_site_adp_type
_atom_site_occupancy
C1     C     0.40179   0.52999   0.83558   0.00000  Uiso   1.00
C2     C     0.33398   0.50613   0.85987   0.00000  Uiso   1.00
C3     C     0.32224   0.44843   0.86281   0.00000  Uiso   1.00
C4     C     0.25666   0.43539   0.88653   0.00000  Uiso   1.00
C5     C     0.15925   0.39176   0.92118   0.00000  Uiso   1.00
C6     C     0.40610   0.54211   0.77716   0.00000  Uiso   1.00
C7     C     0.45501   0.51469   0.71056   0.00000  Uiso   1.00
C8     C     0.45015   0.53195   0.66466   0.00000  Uiso   1.00
C9     C     0.46474   0.54423   0.57090   0.00000  Uiso   1.00
C10    C     0.39979   0.59616   0.89498   0.00000  Uiso   1.00
C11    C     0.44341   0.61418   0.92743   0.00000  Uiso   1.00
C12    C     0.43324   0.67695   0.98071   0.00000  Uiso   1.00
C13    C     0.43804   0.77314   0.06989   0.00000  Uiso   1.00
C14    C     0.30619   0.60943   0.87248   0.00000  Uiso   1.00
C15    C     0.28205   0.54927   0.87992   0.00000  Uiso   1.00
C16    C     0.21647   0.53632   0.90365   0.00000  Uiso   1.00
C17    C     0.20464   0.47862   0.90662   0.00000  Uiso   1.00
C18    C     0.35418   0.58526   0.79720   0.00000  Uiso   1.00
C19    C     0.34924   0.60257   0.75139   0.00000  Uiso   1.00
C20    C     0.39813   0.57518   0.68474   0.00000  Uiso   1.00
C21    C     0.34787   0.63931   0.91503   0.00000  Uiso   1.00
C22    C     0.33763   0.70207   0.96826   0.00000  Uiso   1.00
C23    C     0.38122   0.72018   0.00079   0.00000  Uiso   1.00
H24    H     0.44222   0.49640   0.81997   0.00000  Uiso   1.00
H25    H     0.36244   0.41505   0.84729   0.00000  Uiso   1.00
H26    H     0.49519   0.48130   0.69506   0.00000  Uiso   1.00
H27    H     0.48358   0.58078   0.91190   0.00000  Uiso   1.00
H28    H     0.25108   0.34388   0.88640   0.00000  Uiso   1.00
H29    H     0.53101   0.48359   0.56543   0.00000  Uiso   1.00
H30    H     0.50654   0.69336   0.02267   0.00000  Uiso   1.00
H31    H     0.26577   0.64302   0.88809   0.00000  Uiso   1.00
H32    H     0.17630   0.56972   0.91915   0.00000  Uiso   1.00
H33    H     0.30905   0.63597   0.76692   0.00000  Uiso   1.00
H34    H     0.29745   0.73544   0.98376   0.00000  Uiso   1.00
H35    H     0.10001   0.46941   0.94472   0.00000  Uiso   1.00
H36    H     0.37994   0.60913   0.62375   0.00000  Uiso   1.00
H37    H     0.35546   0.81889   0.08100   0.00000  Uiso   1.00
O38    O     0.11987   0.35577   0.93474   0.00000  Uiso   1.00
O39    O     0.48714   0.53907   0.51365   0.00000  Uiso   1.00
O40    O     0.45503   0.81428   0.11355   0.00000  Uiso   1.00
N41    N     0.22781   0.38349   0.89587   0.00000  Uiso   1.00
N42    N     0.48952   0.51410   0.59578   0.00000  Uiso   1.00
N43    N     0.46665   0.71022   0.02326   0.00000  Uiso   1.00
N44    N     0.14651   0.45104   0.92726   0.00000  Uiso   1.00
N45    N     0.40822   0.58165   0.62717   0.00000  Uiso   1.00
N46    N     0.38536   0.77777   0.05464   0.00000  Uiso   1.00
C47    C     0.86821   0.37024   0.80710   0.00000  Uiso   1.00
C48    C     0.91206   0.34307   0.82556   0.00000  Uiso   1.00
C49    C     0.89818   0.29338   0.84295   0.00000  Uiso   1.00
C50    C     0.94460   0.27555   0.85815   0.00000  Uiso   1.00
C51    C     0.00381   0.22870   0.88717   0.00000  Uiso   1.00
C52    C     0.85484   0.44246   0.85718   0.00000  Uiso   1.00
C53    C     0.79285   0.47634   0.90116   0.00000  Uiso   1.00
C54    C     0.79110   0.54218   0.94297   0.00000  Uiso   1.00
C55    C     0.76147   0.64965   0.02104   0.00000  Uiso   1.00
C56    C     0.91115   0.36403   0.73587   0.00000  Uiso   1.00
C57    C     0.89650   0.33199   0.67785   0.00000  Uiso   1.00
C58    C     0.94215   0.33181   0.61753   0.00000  Uiso   1.00
C59    C     0.99995   0.31751   0.50726   0.00000  Uiso   1.00
C60    C     0.97533   0.42692   0.80316   0.00000  Uiso   1.00
C61    C     0.97024   0.37386   0.82342   0.00000  Uiso   1.00
C62    C     0.01669   0.35610   0.83860   0.00000  Uiso   1.00
C63    C     0.00289   0.30639   0.85601   0.00000  Uiso   1.00
C64    C     0.91301   0.47325   0.85504   0.00000  Uiso   1.00
C65    C     0.91135   0.53906   0.89680   0.00000  Uiso   1.00
C66    C     0.84938   0.57302   0.94083   0.00000  Uiso   1.00
C67    C     0.96933   0.39482   0.73373   0.00000  Uiso   1.00
C68    C     0.01501   0.39470   0.67349   0.00000  Uiso   1.00
C69    C     0.00043   0.36266   0.61539   0.00000  Uiso   1.00
H70    H     0.82292   0.34627   0.80877   0.00000  Uiso   1.00
H71    H     0.85315   0.26957   0.84461   0.00000  Uiso   1.00
H72    H     0.74783   0.45250   0.90279   0.00000  Uiso   1.00
H73    H     0.85147   0.30817   0.67953   0.00000  Uiso   1.00
H74    H     0.91231   0.19812   0.88343   0.00000  Uiso   1.00
H75    H     0.69025   0.58385   0.00610   0.00000  Uiso   1.00
H76    H     0.90878   0.27950   0.53529   0.00000  Uiso   1.00
H77    H     0.02062   0.45090   0.80150   0.00000  Uiso   1.00
H78    H     0.06171   0.37993   0.83694   0.00000  Uiso   1.00
H79    H     0.95639   0.56287   0.89513   0.00000  Uiso   1.00
H80    H     0.06003   0.41853   0.67186   0.00000  Uiso   1.00
H81    H     0.08159   0.28770   0.87720   0.00000  Uiso   1.00
H82    H     0.85952   0.67343   0.99987   0.00000  Uiso   1.00
H83    H     0.07806   0.36908   0.52906   0.00000  Uiso   1.00
O84    O     0.02040   0.19436   0.90378   0.00000  Uiso   1.00
O85    O     0.72905   0.70042   0.06471   0.00000  Uiso   1.00
O86    O     0.01577   0.30111   0.44702   0.00000  Uiso   1.00
N87    N     0.94652   0.22893   0.87708   0.00000  Uiso   1.00
N88    N     0.73890   0.58956   0.99178   0.00000  Uiso   1.00
N89    N     0.94321   0.30504   0.55162   0.00000  Uiso   1.00
N90    N     0.03761   0.27714   0.87373   0.00000  Uiso   1.00
N91    N     0.82998   0.63777   0.98843   0.00000  Uiso   1.00
N92    N     0.03429   0.35324   0.54827   0.00000  Uiso   1.00
C93    C     0.76724   0.52909   0.40222   0.00000  Uiso   1.00
C94    C     0.78606   0.46457   0.33620   0.00000  Uiso   1.00
C95    C     0.78107   0.40403   0.33278   0.00000  Uiso   1.00
C96    C     0.80082   0.35089   0.26744   0.00000  Uiso   1.00
C97    C     0.82644   0.24962   0.17402   0.00000  Uiso   1.00
C98    C     0.82899   0.56558   0.39446   0.00000  Uiso   1.00
C99    C     0.86009   0.58997   0.44004   0.00000  Uiso   1.00
C100   C     0.91599   0.62188   0.42374   0.00000  Uiso   1.00
C101   C     0.00823   0.67746   0.42080   0.00000  Uiso   1.00
C102   C     0.71681   0.56623   0.40063   0.00000  Uiso   1.00
C103   C     0.65358   0.59118   0.45139   0.00000  Uiso   1.00
C104   C     0.61503   0.62364   0.44029   0.00000  Uiso   1.00
C105   C     0.53308   0.68023   0.44692   0.00000  Uiso   1.00
C106   C     0.81120   0.54240   0.29224   0.00000  Uiso   1.00
C107   C     0.80994   0.47180   0.27647   0.00000  Uiso   1.00
C108   C     0.82970   0.41875   0.21111   0.00000  Uiso   1.00
C109   C     0.82474   0.35813   0.20760   0.00000  Uiso   1.00
C110   C     0.85287   0.57281   0.33473   0.00000  Uiso   1.00
C111   C     0.90873   0.60469   0.31837   0.00000  Uiso   1.00
C112   C     0.93990   0.62912   0.36390   0.00000  Uiso   1.00
C113   C     0.74068   0.57346   0.34089   0.00000  Uiso   1.00
C114   C     0.70222   0.60589   0.32972   0.00000  Uiso   1.00
C115   C     0.63894   0.63088   0.38045   0.00000  Uiso   1.00
H116   H     0.74866   0.52347   0.44872   0.00000  Uiso   1.00
H117   H     0.76260   0.39846   0.37902   0.00000  Uiso   1.00
H118   H     0.84160   0.58438   0.48627   0.00000  Uiso   1.00
H119   H     0.63513   0.58558   0.49761   0.00000  Uiso   1.00
H120   H     0.78860   0.26305   0.27540   0.00000  Uiso   1.00
H121   H     0.95518   0.65509   0.50154   0.00000  Uiso   1.00
H122   H     0.51978   0.65762   0.52547   0.00000  Uiso   1.00
H123   H     0.82979   0.54802   0.24574   0.00000  Uiso   1.00
H124   H     0.84817   0.42436   0.16489   0.00000  Uiso   1.00
H125   H     0.92718   0.61028   0.27214   0.00000  Uiso   1.00
H126   H     0.72071   0.61148   0.28349   0.00000  Uiso   1.00
H127   H     0.85806   0.28407   0.10161   0.00000  Uiso   1.00
H128   H     0.02464   0.67612   0.32775   0.00000  Uiso   1.00
H129   H     0.58924   0.67864   0.35168   0.00000  Uiso   1.00
O130   O     0.83398   0.19176   0.13899   0.00000  Uiso   1.00
O131   O     0.05252   0.70612   0.43568   0.00000  Uiso   1.00
O132   O     0.48129   0.70944   0.46707   0.00000  Uiso   1.00
N133   N     0.80241   0.28496   0.24559   0.00000  Uiso   1.00
N134   N     0.95816   0.65149   0.45702   0.00000  Uiso   1.00
N135   N     0.55110   0.65388   0.47940   0.00000  Uiso   1.00
N136   N     0.83978   0.29628   0.15208   0.00000  Uiso   1.00
N137   N     0.99553   0.66281   0.36350   0.00000  Uiso   1.00
N138   N     0.58848   0.66519   0.38588   0.00000  Uiso   1.00
C139   C     0.55849   0.08731   0.26499   0.00000  Uiso   1.00
C140   C     0.62499   0.04710   0.22652   0.00000  Uiso   1.00
C141   C     0.63690   0.99055   0.22611   0.00000  Uiso   1.00
C142   C     0.70114   0.96096   0.18772   0.00000  Uiso   1.00
C143   C     0.79672   0.89454   0.13353   0.00000  Uiso   1.00
C144   C     0.54398   0.09250   0.21063   0.00000  Uiso   1.00
C145   C     0.48778   0.07412   0.19686   0.00000  Uiso   1.00
C146   C     0.48382   0.08276   0.14510   0.00000  Uiso   1.00
C147   C     0.45361   0.08687   0.06627   0.00000  Uiso   1.00
C148   C     0.57015   0.15523   0.31162   0.00000  Uiso   1.00
C149   C     0.53593   0.18960   0.38276   0.00000  Uiso   1.00
C150   C     0.55399   0.25105   0.41603   0.00000  Uiso   1.00
C151   C     0.56440   0.35255   0.49400   0.00000  Uiso   1.00
C152   C     0.65138   0.13533   0.19757   0.00000  Uiso   1.00
C153   C     0.67545   0.07318   0.18990   0.00000  Uiso   1.00
C154   C     0.73968   0.04367   0.15151   0.00000  Uiso   1.00
C155   C     0.75169   0.98708   0.15104   0.00000  Uiso   1.00
C156   C     0.59444   0.11858   0.17401   0.00000  Uiso   1.00
C157   C     0.59056   0.12725   0.12226   0.00000  Uiso   1.00
C158   C     0.53437   0.10889   0.10841   0.00000  Uiso   1.00
C159   C     0.62061   0.18131   0.27500   0.00000  Uiso   1.00
C160   C     0.63871   0.24272   0.30817   0.00000  Uiso   1.00
C161   C     0.60454   0.27718   0.37934   0.00000  Uiso   1.00
H162   H     0.51920   0.06700   0.29350   0.00000  Uiso   1.00
H163   H     0.59784   0.97038   0.25445   0.00000  Uiso   1.00
H164   H     0.44874   0.05395   0.22521   0.00000  Uiso   1.00
H165   H     0.49688   0.16940   0.41108   0.00000  Uiso   1.00
H166   H     0.70727   0.87474   0.19498   0.00000  Uiso   1.00
H167   H     0.39287   0.05097   0.13334   0.00000  Uiso   1.00
H168   H     0.49439   0.29443   0.52529   0.00000  Uiso   1.00
H169   H     0.69067   0.15563   0.16906   0.00000  Uiso   1.00
H170   H     0.77872   0.06387   0.12318   0.00000  Uiso   1.00
H171   H     0.62962   0.14743   0.09394   0.00000  Uiso   1.00
H172   H     0.67776   0.26289   0.27981   0.00000  Uiso   1.00
H173   H     0.85408   0.95061   0.08843   0.00000  Uiso   1.00
H174   H     0.53968   0.12685   0.02680   0.00000  Uiso   1.00
H175   H     0.64121   0.37031   0.41875   0.00000  Uiso   1.00
O176   O     0.83550   0.85070   0.11375   0.00000  Uiso   1.00
O177   O     0.42301   0.08192   0.03289   0.00000  Uiso   1.00
O178   O     0.55621   0.40133   0.54712   0.00000  Uiso   1.00
N179   N     0.72974   0.90519   0.17621   0.00000  Uiso   1.00
N180   N     0.43580   0.06995   0.11858   0.00000  Uiso   1.00
N181   N     0.53071   0.29757   0.48502   0.00000  Uiso   1.00
N182   N     0.80874   0.94602   0.11888   0.00000  Uiso   1.00
N183   N     0.51480   0.11078   0.06125   0.00000  Uiso   1.00
N184   N     0.60970   0.33840   0.42769   0.00000  Uiso   1.00
C185   C     0.04065   0.79757   0.69114   0.00000  Uiso   1.00
C186   C     0.04835   0.78063   0.74191   0.00000  Uiso   1.00
C187   C     0.01527   0.73499   0.76107   0.00000  Uiso   1.00
C188   C     0.02917   0.72660   0.80821   0.00000  Uiso   1.00
C189   C     0.03424   0.69480   0.88292   0.00000  Uiso   1.00
C190   C     0.10994   0.78739   0.63537   0.00000  Uiso   1.00
C191   C     0.12864   0.74745   0.56494   0.00000  Uiso   1.00
C192   C     0.19438   0.74476   0.52240   0.00000  Uiso   1.00
C193   C     0.29506   0.72349   0.43170   0.00000  Uiso   1.00
C194   C     0.02091   0.87010   0.73016   0.00000  Uiso   1.00
C195   C     0.96476   0.89970   0.73943   0.00000  Uiso   1.00
C196   C     0.95555   0.96666   0.77669   0.00000  Uiso   1.00
C197   C     0.91800   0.07380   0.83317   0.00000  Uiso   1.00
C198   C     0.12416   0.86384   0.74081   0.00000  Uiso   1.00
C199   C     0.09371   0.81662   0.76889   0.00000  Uiso   1.00
C200   C     0.10766   0.80831   0.81602   0.00000  Uiso   1.00
C201   C     0.07461   0.76266   0.83524   0.00000  Uiso   1.00
C202   C     0.15530   0.82339   0.66234   0.00000  Uiso   1.00
C203   C     0.22103   0.82076   0.61990   0.00000  Uiso   1.00
C204   C     0.23983   0.78082   0.54943   0.00000  Uiso   1.00
C205   C     0.06626   0.90610   0.75714   0.00000  Uiso   1.00
C206   C     0.05715   0.97302   0.79439   0.00000  Uiso   1.00
C207   C     0.00100   0.00271   0.80371   0.00000  Uiso   1.00
H208   H     0.00534   0.76955   0.67013   0.00000  Uiso   1.00
H209   H     0.98017   0.70714   0.74017   0.00000  Uiso   1.00
H210   H     0.09352   0.71960   0.54408   0.00000  Uiso   1.00
H211   H     0.92967   0.87183   0.71855   0.00000  Uiso   1.00
H212   H     0.97229   0.65380   0.82970   0.00000  Uiso   1.00
H213   H     0.21129   0.68010   0.41624   0.00000  Uiso   1.00
H214   H     0.86577   0.00111   0.78412   0.00000  Uiso   1.00
H215   H     0.15948   0.89186   0.76181   0.00000  Uiso   1.00
H216   H     0.14277   0.83617   0.83689   0.00000  Uiso   1.00
H217   H     0.25612   0.84863   0.64079   0.00000  Uiso   1.00
H218   H     0.09226   0.00086   0.81526   0.00000  Uiso   1.00
H219   H     0.10426   0.75852   0.90820   0.00000  Uiso   1.00
H220   H     0.34326   0.78482   0.49473   0.00000  Uiso   1.00
H221   H     0.99774   0.10583   0.86262   0.00000  Uiso   1.00
O222   O     0.02452   0.66730   0.91667   0.00000  Uiso   1.00
O223   O     0.33807   0.70181   0.37421   0.00000  Uiso   1.00
O224   O     0.88475   0.12296   0.85688   0.00000  Uiso   1.00
N225   N     0.00563   0.68610   0.83789   0.00000  Uiso   1.00
N226   N     0.22908   0.71068   0.45132   0.00000  Uiso   1.00
N227   N     0.90606   0.01080   0.79525   0.00000  Uiso   1.00
N228   N     0.07665   0.74245   0.88012   0.00000  Uiso   1.00
N229   N     0.30010   0.76703   0.49356   0.00000  Uiso   1.00
N230   N     0.97707   0.06715   0.83748   0.00000  Uiso   1.00
C231   C     0.26772   0.11353   0.06161   0.00000  Uiso   1.00
C232   C     0.22943   0.05390   0.04535   0.00000  Uiso   1.00
C233   C     0.25612   0.99050   0.01262   0.00000  Uiso   1.00
C234   C     0.21284   0.94279   0.00252   0.00000  Uiso   1.00
C235   C     0.16366   0.84789   0.97398   0.00000  Uiso   1.00
C236   C     0.23366   0.15713   0.13935   0.00000  Uiso   1.00
C237   C     0.26391   0.18053   0.18565   0.00000  Uiso   1.00
C238   C     0.22419   0.21973   0.25468   0.00000  Uiso   1.00
C239   C     0.18158   0.28514   0.37207   0.00000  Uiso   1.00
C240   C     0.25488   0.14875   0.02772   0.00000  Uiso   1.00
C241   C     0.30297   0.16512   0.98017   0.00000  Uiso   1.00
C242   C     0.28111   0.19728   0.95523   0.00000  Uiso   1.00
C243   C     0.27145   0.24967   0.89930   0.00000  Uiso   1.00
C244   C     0.14341   0.14154   0.10188   0.00000  Uiso   1.00
C245   C     0.16191   0.06912   0.06723   0.00000  Uiso   1.00
C246   C     0.11858   0.02149   0.05717   0.00000  Uiso   1.00
C247   C     0.14520   0.95803   0.02443   0.00000  Uiso   1.00
C248   C     0.16614   0.17235   0.16123   0.00000  Uiso   1.00
C249   C     0.12637   0.21152   0.23020   0.00000  Uiso   1.00
C250   C     0.15654   0.23497   0.27659   0.00000  Uiso   1.00
C251   C     0.18735   0.16397   0.04960   0.00000  Uiso   1.00
C252   C     0.16542   0.19611   0.02473   0.00000  Uiso   1.00
C253   C     0.21347   0.21252   0.97715   0.00000  Uiso   1.00
H254   H     0.32029   0.10169   0.04458   0.00000  Uiso   1.00
H255   H     0.30838   0.97875   0.99570   0.00000  Uiso   1.00
H256   H     0.31616   0.16876   0.16870   0.00000  Uiso   1.00
H257   H     0.35521   0.15334   0.96326   0.00000  Uiso   1.00
H258   H     0.26539   0.84915   0.95118   0.00000  Uiso   1.00
H259   H     0.28181   0.24982   0.31596   0.00000  Uiso   1.00
H260   H     0.36416   0.21731   0.88274   0.00000  Uiso   1.00
H261   H     0.09083   0.15339   0.11891   0.00000  Uiso   1.00
H262   H     0.06633   0.03328   0.07411   0.00000  Uiso   1.00
H263   H     0.07412   0.22329   0.24711   0.00000  Uiso   1.00
H264   H     0.11317   0.20787   0.04167   0.00000  Uiso   1.00
H265   H     0.06893   0.89342   0.01482   0.00000  Uiso   1.00
H266   H     0.08536   0.29408   0.37960   0.00000  Uiso   1.00
H267   H     0.16770   0.26157   0.94638   0.00000  Uiso   1.00
O268   O     0.15518   0.79134   0.95221   0.00000  Uiso   1.00
O269   O     0.17673   0.31701   0.43078   0.00000  Uiso   1.00
O270   O     0.28477   0.27436   0.86240   0.00000  Uiso   1.00
N271   N     0.22252   0.87605   0.97230   0.00000  Uiso   1.00
N272   N     0.23787   0.25064   0.31334   0.00000  Uiso   1.00
N273   N     0.31486   0.22027   0.90833   0.00000  Uiso   1.00
N274   N     0.11681   0.89987   0.00654   0.00000  Uiso   1.00
N275   N     0.13216   0.27446   0.34759   0.00000  Uiso   1.00
N276   N     0.20915   0.24408   0.94258   0.00000  Uiso   1.00
C277   C     0.47197   0.58223   0.27963   0.00000  Uiso   1.00
C278   C     0.51436   0.63018   0.25881   0.00000  Uiso   1.00
C279   C     0.50166   0.69692   0.29571   0.00000  Uiso   1.00
C280   C     0.54641   0.73233   0.26800   0.00000  Uiso   1.00
C281   C     0.60381   0.81139   0.24519   0.00000  Uiso   1.00
C282   C     0.51796   0.54135   0.28229   0.00000  Uiso   1.00
C283   C     0.50828   0.53340   0.33891   0.00000  Uiso   1.00
C284   C     0.55607   0.49403   0.33096   0.00000  Uiso   1.00
C285   C     0.61904   0.43515   0.34457   0.00000  Uiso   1.00
C286   C     0.45354   0.53693   0.21910   0.00000  Uiso   1.00
C287   C     0.38969   0.52525   0.22259   0.00000  Uiso   1.00
C288   C     0.38324   0.48214   0.16143   0.00000  Uiso   1.00
C289   C     0.34619   0.41640   0.07693   0.00000  Uiso   1.00
C290   C     0.57403   0.52644   0.16480   0.00000  Uiso   1.00
C291   C     0.56979   0.59987   0.19645   0.00000  Uiso   1.00
C292   C     0.61458   0.63519   0.16867   0.00000  Uiso   1.00
C293   C     0.60195   0.70197   0.20552   0.00000  Uiso   1.00
C294   C     0.57339   0.51105   0.21992   0.00000  Uiso   1.00
C295   C     0.62120   0.47167   0.21187   0.00000  Uiso   1.00
C296   C     0.61160   0.46367   0.26847   0.00000  Uiso   1.00
C297   C     0.50897   0.50663   0.15672   0.00000  Uiso   1.00
C298   C     0.50262   0.46352   0.09555   0.00000  Uiso   1.00
C299   C     0.43878   0.45178   0.09895   0.00000  Uiso   1.00
H300   H     0.42881   0.60583   0.32818   0.00000  Uiso   1.00
H301   H     0.45875   0.72036   0.34398   0.00000  Uiso   1.00
H302   H     0.46537   0.55686   0.38717   0.00000  Uiso   1.00
H303   H     0.34681   0.54871   0.27086   0.00000  Uiso   1.00
H304   H     0.51641   0.83397   0.33400   0.00000  Uiso   1.00
H305   H     0.53036   0.48921   0.42506   0.00000  Uiso   1.00
H306   H     0.28033   0.47203   0.17981   0.00000  Uiso   1.00
H307   H     0.61719   0.50284   0.11624   0.00000  Uiso   1.00
H308   H     0.65747   0.61172   0.12040   0.00000  Uiso   1.00
H309   H     0.66409   0.44823   0.16360   0.00000  Uiso   1.00
H310   H     0.54553   0.44008   0.04729   0.00000  Uiso   1.00
H311   H     0.67770   0.74580   0.15254   0.00000  Uiso   1.00
H312   H     0.69165   0.40104   0.24360   0.00000  Uiso   1.00
H313   H     0.44163   0.38386   0.99835   0.00000  Uiso   1.00
O314   O     0.62017   0.86337   0.24984   0.00000  Uiso   1.00
O315   O     0.63846   0.41105   0.36931   0.00000  Uiso   1.00
O316   O     0.31043   0.38851   0.04755   0.00000  Uiso   1.00
N317   N     0.54883   0.79828   0.29071   0.00000  Uiso   1.00
N318   N     0.56188   0.47595   0.37586   0.00000  Uiso   1.00
N319   N     0.32813   0.45988   0.14657   0.00000  Uiso   1.00
N320   N     0.63562   0.75083   0.19307   0.00000  Uiso   1.00
N321   N     0.64867   0.42851   0.27822   0.00000  Uiso   1.00
N322   N     0.41492   0.41243   0.04893   0.00000  Uiso   1.00
C323   C     0.25286   0.66931   0.20889   0.00000  Uiso   1.00
C324   C     0.22508   0.69555   0.17624   0.00000  Uiso   1.00
C325   C     0.20317   0.75951   0.20339   0.00000  Uiso   1.00
C326   C     0.17952   0.77375   0.16566   0.00000  Uiso   1.00
C327   C     0.13666   0.82181   0.12447   0.00000  Uiso   1.00
C328   C     0.32124   0.63581   0.15460   0.00000  Uiso   1.00
C329   C     0.38017   0.64954   0.16356   0.00000  Uiso   1.00
C330   C     0.43747   0.61349   0.10761   0.00000  Uiso   1.00
C331   C     0.54389   0.56877   0.03285   0.00000  Uiso   1.00
C332   C     0.21019   0.61595   0.21683   0.00000  Uiso   1.00
C333   C     0.17577   0.61297   0.27811   0.00000  Uiso   1.00
C334   C     0.13958   0.56019   0.27456   0.00000  Uiso   1.00
C335   C     0.07358   0.48464   0.29641   0.00000  Uiso   1.00
C336   C     0.24981   0.58087   0.09363   0.00000  Uiso   1.00
C337   C     0.22342   0.64751   0.11364   0.00000  Uiso   1.00
C338   C     0.19980   0.66166   0.07586   0.00000  Uiso   1.00
C339   C     0.17786   0.72563   0.10294   0.00000  Uiso   1.00
C340   C     0.31958   0.58778   0.09200   0.00000  Uiso   1.00
C341   C     0.37680   0.55169   0.03603   0.00000  Uiso   1.00
C342   C     0.43581   0.56536   0.04490   0.00000  Uiso   1.00
C343   C     0.20853   0.56792   0.15423   0.00000  Uiso   1.00
C344   C     0.17239   0.51512   0.15058   0.00000  Uiso   1.00
C345   C     0.13792   0.51206   0.21184   0.00000  Uiso   1.00
H346   H     0.25416   0.70670   0.25763   0.00000  Uiso   1.00
H347   H     0.20447   0.79667   0.25183   0.00000  Uiso   1.00
H348   H     0.38144   0.68671   0.21201   0.00000  Uiso   1.00
H349   H     0.17707   0.65015   0.32654   0.00000  Uiso   1.00
H350   H     0.14867   0.87523   0.21779   0.00000  Uiso   1.00
H351   H     0.52182   0.64337   0.13383   0.00000  Uiso   1.00
H352   H     0.09086   0.56627   0.37534   0.00000  Uiso   1.00
H353   H     0.24852   0.54347   0.04489   0.00000  Uiso   1.00
H354   H     0.19852   0.62447   0.02742   0.00000  Uiso   1.00
H355   H     0.37549   0.51452   0.98760   0.00000  Uiso   1.00
H356   H     0.17112   0.47796   0.10213   0.00000  Uiso   1.00
H357   H     0.14385   0.73547   0.03564   0.00000  Uiso   1.00
H358   H     0.51700   0.50361   0.95168   0.00000  Uiso   1.00
H359   H     0.08603   0.42651   0.19319   0.00000  Uiso   1.00
O360   O     0.11349   0.86159   0.11905   0.00000  Uiso   1.00
O361   O     0.60305   0.55739   0.00890   0.00000  Uiso   1.00
O362   O     0.03763   0.45624   0.32576   0.00000  Uiso   1.00
N363   N     0.15439   0.83122   0.17732   0.00000  Uiso   1.00
N364   N     0.50326   0.61445   0.09882   0.00000  Uiso   1.00
N365   N     0.10036   0.54236   0.32461   0.00000  Uiso   1.00
N366   N     0.15179   0.75602   0.07931   0.00000  Uiso   1.00
N367   N     0.50067   0.53925   0.00081   0.00000  Uiso   1.00
N368   N     0.09776   0.46716   0.22660   0.00000  Uiso   1.00
C369   C     0.27533   0.32450   0.57642   0.00000  Uiso   1.00
C370   C     0.25101   0.39574   0.62540   0.00000  Uiso   1.00
C371   C     0.27115   0.44601   0.60948   0.00000  Uiso   1.00
C372   C     0.24305   0.50779   0.66142   0.00000  Uiso   1.00
C373   C     0.21235   0.61673   0.72751   0.00000  Uiso   1.00
C374   C     0.21363   0.28924   0.57387   0.00000  Uiso   1.00
C375   C     0.20235   0.24996   0.51462   0.00000  Uiso   1.00
C376   C     0.14280   0.22208   0.52318   0.00000  Uiso   1.00
C377   C     0.05409   0.16563   0.50925   0.00000  Uiso   1.00
C378   C     0.30261   0.30245   0.61259   0.00000  Uiso   1.00
C379   C     0.36614   0.27426   0.58589   0.00000  Uiso   1.00
C380   C     0.38149   0.25749   0.62705   0.00000  Uiso   1.00
C381   C     0.43093   0.22155   0.67324   0.00000  Uiso   1.00
C382   C     0.18963   0.34484   0.69696   0.00000  Uiso   1.00
C383   C     0.20446   0.40679   0.69087   0.00000  Uiso   1.00
C384   C     0.17633   0.46851   0.74285   0.00000  Uiso   1.00
C385   C     0.19642   0.51886   0.72702   0.00000  Uiso   1.00
C386   C     0.16708   0.30029   0.63934   0.00000  Uiso   1.00
C387   C     0.10754   0.27246   0.64799   0.00000  Uiso   1.00
C388   C     0.09616   0.23314   0.58877   0.00000  Uiso   1.00
C389   C     0.25606   0.31350   0.67806   0.00000  Uiso   1.00
C390   C     0.27132   0.29676   0.71926   0.00000  Uiso   1.00
C391   C     0.33486   0.26855   0.69264   0.00000  Uiso   1.00
H392   H     0.31157   0.31590   0.52544   0.00000  Uiso   1.00
H393   H     0.30717   0.43744   0.55880   0.00000  Uiso   1.00
H394   H     0.23839   0.24142   0.46396   0.00000  Uiso   1.00
H395   H     0.40215   0.26572   0.53522   0.00000  Uiso   1.00
H396   H     0.28174   0.57706   0.62466   0.00000  Uiso   1.00
H397   H     0.13673   0.16371   0.42467   0.00000  Uiso   1.00
H398   H     0.48205   0.21496   0.57494   0.00000  Uiso   1.00
H399   H     0.15339   0.35343   0.74794   0.00000  Uiso   1.00
H400   H     0.14031   0.47704   0.79351   0.00000  Uiso   1.00
H401   H     0.07153   0.28101   0.69866   0.00000  Uiso   1.00
H402   H     0.23529   0.30531   0.76993   0.00000  Uiso   1.00
H403   H     0.14631   0.60920   0.81516   0.00000  Uiso   1.00
H404   H     0.00130   0.19585   0.61516   0.00000  Uiso   1.00
H405   H     0.34662   0.24709   0.76544   0.00000  Uiso   1.00
O406   O     0.20826   0.67376   0.74587   0.00000  Uiso   1.00
O407   O     0.01801   0.13145   0.48348   0.00000  Uiso   1.00
O408   O     0.47106   0.19869   0.68064   0.00000  Uiso   1.00
N409   N     0.25167   0.56767   0.66325   0.00000  Uiso   1.00
N410   N     0.11609   0.18122   0.47626   0.00000  Uiso   1.00
N411   N     0.43893   0.22911   0.61675   0.00000  Uiso   1.00
N412   N     0.17880   0.58496   0.76575   0.00000  Uiso   1.00
N413   N     0.04321   0.19851   0.57877   0.00000  Uiso   1.00
N414   N     0.36605   0.24640   0.71926   0.00000  Uiso   1.00
C415   C     0.39812   0.96943   0.69079   0.00000  Uiso   1.00
C416   C     0.33721   0.01367   0.71751   0.00000  Uiso   1.00
C417   C     0.32831   0.04576   0.68537   0.00000  Uiso   1.00
C418   C     0.26910   0.08397   0.71810   0.00000  Uiso   1.00
C419   C     0.18191   0.15180   0.75008   0.00000  Uiso   1.00
C420   C     0.42295   0.99714   0.74852   0.00000  Uiso   1.00
C421   C     0.48614   0.01532   0.74246   0.00000  Uiso   1.00
C422   C     0.49911   0.03960   0.80130   0.00000  Uiso   1.00
C423   C     0.54505   0.08172   0.88141   0.00000  Uiso   1.00
C424   C     0.37299   0.90489   0.68535   0.00000  Uiso   1.00
C425   C     0.39419   0.84550   0.62618   0.00000  Uiso   1.00
C426   C     0.36512   0.79211   0.63183   0.00000  Uiso   1.00
C427   C     0.33350   0.69099   0.61385   0.00000  Uiso   1.00
C428   C     0.30880   0.98022   0.80606   0.00000  Uiso   1.00
C429   C     0.28869   0.01953   0.78012   0.00000  Uiso   1.00
C430   C     0.22948   0.05770   0.81290   0.00000  Uiso   1.00
C431   C     0.22049   0.08984   0.78082   0.00000  Uiso   1.00
C432   C     0.37443   0.00300   0.81113   0.00000  Uiso   1.00
C433   C     0.38731   0.02725   0.86999   0.00000  Uiso   1.00
C434   C     0.45050   0.04547   0.86402   0.00000  Uiso   1.00
C435   C     0.32448   0.91074   0.74796   0.00000  Uiso   1.00
C436   C     0.29537   0.85743   0.75371   0.00000  Uiso   1.00
C437   C     0.31652   0.79798   0.69455   0.00000  Uiso   1.00
H438   H     0.43589   0.96487   0.64205   0.00000  Uiso   1.00
H439   H     0.36587   0.04122   0.63693   0.00000  Uiso   1.00
H440   H     0.52367   0.01078   0.69400   0.00000  Uiso   1.00
H441   H     0.43174   0.84098   0.57774   0.00000  Uiso   1.00
H442   H     0.26685   0.12847   0.65886   0.00000  Uiso   1.00
H443   H     0.59959   0.06426   0.77921   0.00000  Uiso   1.00
H444   H     0.40574   0.70621   0.53404   0.00000  Uiso   1.00
H445   H     0.27102   0.98478   0.85481   0.00000  Uiso   1.00
H446   H     0.19195   0.06222   0.86135   0.00000  Uiso   1.00
H447   H     0.34976   0.03178   0.91843   0.00000  Uiso   1.00
H448   H     0.25782   0.86198   0.80216   0.00000  Uiso   1.00
H449   H     0.12569   0.14552   0.84102   0.00000  Uiso   1.00
H450   H     0.45844   0.08130   0.96136   0.00000  Uiso   1.00
H451   H     0.26458   0.72326   0.71619   0.00000  Uiso   1.00
O452   O     0.14723   0.18760   0.75042   0.00000  Uiso   1.00
O453   O     0.58379   0.10333   0.90830   0.00000  Uiso   1.00
O454   O     0.32945   0.63359   0.58664   0.00000  Uiso   1.00
N455   N     0.24447   0.12185   0.70083   0.00000  Uiso   1.00
N456   N     0.55557   0.06182   0.81334   0.00000  Uiso   1.00
N457   N     0.37434   0.72707   0.58414   0.00000  Uiso   1.00
N458   N     0.16851   0.13102   0.79884   0.00000  Uiso   1.00
N459   N     0.47961   0.07099   0.91136   0.00000  Uiso   1.00
N460   N     0.29839   0.73624   0.68215   0.00000  Uiso   1.00
C461   C     0.90891   0.20883   0.36762   0.00000  Uiso   1.00
C462   C     0.93119   0.22965   0.31163   0.00000  Uiso   1.00
C463   C     0.95427   0.28864   0.31782   0.00000  Uiso   1.00
C464   C     0.97219   0.29839   0.26070   0.00000  Uiso   1.00
C465   C     0.00751   0.33795   0.18307   0.00000  Uiso   1.00
C466   C     0.83831   0.19076   0.37836   0.00000  Uiso   1.00
C467   C     0.78330   0.21706   0.44066   0.00000  Uiso   1.00
C468   C     0.72304   0.19407   0.43972   0.00000  Uiso   1.00
C469   C     0.61417   0.17323   0.46569   0.00000  Uiso   1.00
C470   C     0.95092   0.14606   0.33582   0.00000  Uiso   1.00
C471   C     0.99059   0.13477   0.36235   0.00000  Uiso   1.00
C472   C     0.02513   0.07413   0.32560   0.00000  Uiso   1.00
C473   C     0.09111   0.98390   0.28551   0.00000  Uiso   1.00
C474   C     0.89969   0.12123   0.25518   0.00000  Uiso   1.00
C475   C     0.92618   0.18206   0.25056   0.00000  Uiso   1.00
C476   C     0.94407   0.19172   0.19342   0.00000  Uiso   1.00
C477   C     0.96718   0.25072   0.19952   0.00000  Uiso   1.00
C478   C     0.83330   0.14318   0.31729   0.00000  Uiso   1.00
C479   C     0.77310   0.12014   0.31626   0.00000  Uiso   1.00
C480   C     0.71802   0.14640   0.37853   0.00000  Uiso   1.00
C481   C     0.94592   0.09848   0.27474   0.00000  Uiso   1.00
C482   C     0.98040   0.03785   0.23795   0.00000  Uiso   1.00
C483   C     0.02012   0.02647   0.26441   0.00000  Uiso   1.00
H484   H     0.91281   0.24588   0.41517   0.00000  Uiso   1.00
H485   H     0.95813   0.32545   0.36509   0.00000  Uiso   1.00
H486   H     0.78719   0.25388   0.48791   0.00000  Uiso   1.00
H487   H     0.99445   0.17160   0.40961   0.00000  Uiso   1.00
H488   H     0.00615   0.39270   0.28265   0.00000  Uiso   1.00
H489   H     0.64572   0.24177   0.54163   0.00000  Uiso   1.00
H490   H     0.08277   0.06827   0.37652   0.00000  Uiso   1.00
H491   H     0.89579   0.08418   0.20763   0.00000  Uiso   1.00
H492   H     0.94019   0.15489   0.14616   0.00000  Uiso   1.00
H493   H     0.76925   0.08332   0.26899   0.00000  Uiso   1.00
H494   H     0.97651   0.00104   0.19069   0.00000  Uiso   1.00
H495   H     0.99159   0.25427   0.10496   0.00000  Uiso   1.00
H496   H     0.63116   0.10333   0.36394   0.00000  Uiso   1.00
H497   H     0.06821   0.92984   0.19883   0.00000  Uiso   1.00
O498   O     0.02836   0.37292   0.15712   0.00000  Uiso   1.00
O499   O     0.55550   0.17490   0.49689   0.00000  Uiso   1.00
O500   O     0.12890   0.94727   0.28027   0.00000  Uiso   1.00
N501   N     0.99664   0.35041   0.24926   0.00000  Uiso   1.00
N502   N     0.65966   0.20931   0.49139   0.00000  Uiso   1.00
N503   N     0.06825   0.04710   0.33703   0.00000  Uiso   1.00
N504   N     0.98881   0.27592   0.15365   0.00000  Uiso   1.00
N505   N     0.65183   0.13482   0.39578   0.00000  Uiso   1.00
N506   N     0.06042   0.97260   0.24142   0.00000  Uiso   1.00
C507   C     0.67973   0.96181   0.86438   0.00000  Uiso   1.00
C508   C     0.71059   0.01625   0.90831   0.00000  Uiso   1.00
C509   C     0.72025   0.07611   0.91021   0.00000  Uiso   1.00
C510   C     0.74929   0.11930   0.95375   0.00000  Uiso   1.00
C511   C     0.79438   0.20628   0.01583   0.00000  Uiso   1.00
C512   C     0.73064   0.90313   0.82091   0.00000  Uiso   1.00
C513   C     0.75714   0.86789   0.74932   0.00000  Uiso   1.00
C514   C     0.80306   0.81585   0.71930   0.00000  Uiso   1.00
C515   C     0.87924   0.72718   0.64569   0.00000  Uiso   1.00
C516   C     0.62155   0.94564   0.91459   0.00000  Uiso   1.00
C517   C     0.55634   0.94613   0.92176   0.00000  Uiso   1.00
C518   C     0.51041   0.92986   0.97060   0.00000  Uiso   1.00
C519   C     0.41723   0.90721   0.04244   0.00000  Uiso   1.00
C520   C     0.71413   0.93205   0.93833   0.00000  Uiso   1.00
C521   C     0.72927   0.00008   0.94847   0.00000  Uiso   1.00
C522   C     0.75830   0.04319   0.99203   0.00000  Uiso   1.00
C523   C     0.76800   0.10311   0.99399   0.00000  Uiso   1.00
C524   C     0.74932   0.88697   0.86107   0.00000  Uiso   1.00
C525   C     0.79520   0.83496   0.83115   0.00000  Uiso   1.00
C526   C     0.82177   0.79965   0.75954   0.00000  Uiso   1.00
C527   C     0.64024   0.92948   0.95476   0.00000  Uiso   1.00
C528   C     0.59440   0.91321   0.00359   0.00000  Uiso   1.00
C529   C     0.52913   0.91367   0.01084   0.00000  Uiso   1.00
H530   H     0.66519   0.97439   0.83310   0.00000  Uiso   1.00
H531   H     0.70579   0.08860   0.87911   0.00000  Uiso   1.00
H532   H     0.74267   0.88041   0.71825   0.00000  Uiso   1.00
H533   H     0.54190   0.95864   0.89067   0.00000  Uiso   1.00
H534   H     0.75905   0.20809   0.94781   0.00000  Uiso   1.00
H535   H     0.83681   0.76909   0.60864   0.00000  Uiso   1.00
H536   H     0.41345   0.93405   0.97221   0.00000  Uiso   1.00
H537   H     0.72868   0.91946   0.96961   0.00000  Uiso   1.00
H538   H     0.77276   0.03066   0.02311   0.00000  Uiso   1.00
H539   H     0.80964   0.82246   0.86225   0.00000  Uiso   1.00
H540   H     0.60888   0.90070   0.03466   0.00000  Uiso   1.00
H541   H     0.81341   0.16107   0.06468   0.00000  Uiso   1.00
H542   H     0.89117   0.72205   0.72551   0.00000  Uiso   1.00
H543   H     0.46781   0.88703   0.08908   0.00000  Uiso   1.00
O544   O     0.81411   0.25872   0.03896   0.00000  Uiso   1.00
O545   O     0.91611   0.68275   0.59398   0.00000  Uiso   1.00
O546   O     0.36067   0.89919   0.07098   0.00000  Uiso   1.00
N547   N     0.76579   0.18177   0.96798   0.00000  Uiso   1.00
N548   N     0.83850   0.77133   0.65088   0.00000  Uiso   1.00
N549   N     0.44269   0.92554   0.99077   0.00000  Uiso   1.00
N550   N     0.79504   0.15647   0.03087   0.00000  Uiso   1.00
N551   N     0.86775   0.74602   0.71377   0.00000  Uiso   1.00
N552   N     0.47194   0.90024   0.05366   0.00000  Uiso   1.00
