data_job_00672
_audit_creation_date              2018-12-19
_audit_creation_method            'Materials Studio'
_symmetry_space_group_name_H-M    'P1'
_symmetry_Int_Tables_number       1
_symmetry_cell_setting            triclinic
loop_
_symmetry_equiv_pos_as_xyz
  x,y,z
_cell_length_a                    14.7065
_cell_length_b                    20.0690
_cell_length_c                    14.6928
_cell_angle_alpha                 90.0000
_cell_angle_beta                  90.0000
_cell_angle_gamma                 90.0000
loop_
_atom_site_label
_atom_site_type_symbol
_atom_site_fract_x
_atom_site_fract_y
_atom_site_fract_z
_atom_site_U_iso_or_equiv
_atom_site_adp_type
_atom_site_occupancy
C1     C     0.23912   0.90624   0.72449   0.00000  Uiso   1.00
C2     C     0.21897   0.97617   0.68924   0.00000  Uiso   1.00
C3     C     0.16149   0.02218   0.73000   0.00000  Uiso   1.00
C4     C     0.15211   0.08344   0.68711   0.00000  Uiso   1.00
C5     C     0.11372   0.18977   0.64463   0.00000  Uiso   1.00
C6     C     0.21492   0.85879   0.64714   0.00000  Uiso   1.00
C7     C     0.15403   0.80610   0.65252   0.00000  Uiso   1.00
C8     C     0.14125   0.76854   0.57419   0.00000  Uiso   1.00
C9     C     0.09661   0.69261   0.46637   0.00000  Uiso   1.00
C10    C     0.34211   0.90226   0.73522   0.00000  Uiso   1.00
C11    C     0.38818   0.88611   0.81465   0.00000  Uiso   1.00
C12    C     0.48249   0.88514   0.81047   0.00000  Uiso   1.00
C13    C     0.63534   0.87671   0.83941   0.00000  Uiso   1.00
C14    C     0.32469   0.93323   0.57583   0.00000  Uiso   1.00
C15    C     0.26545   0.99082   0.60849   0.00000  Uiso   1.00
C16    C     0.25616   0.05203   0.56553   0.00000  Uiso   1.00
C17    C     0.19868   0.09812   0.60623   0.00000  Uiso   1.00
C18    C     0.26139   0.87345   0.56639   0.00000  Uiso   1.00
C19    C     0.24871   0.83596   0.48804   0.00000  Uiso   1.00
C20    C     0.18781   0.78323   0.49330   0.00000  Uiso   1.00
C21    C     0.38859   0.91692   0.65447   0.00000  Uiso   1.00
C22    C     0.48285   0.91597   0.65017   0.00000  Uiso   1.00
C23    C     0.52905   0.89983   0.72958   0.00000  Uiso   1.00
H24    H     0.20294   0.89483   0.78735   0.00000  Uiso   1.00
H25    H     0.12553   0.01081   0.79249   0.00000  Uiso   1.00
H26    H     0.11808   0.79477   0.71501   0.00000  Uiso   1.00
H27    H     0.35219   0.87477   0.87712   0.00000  Uiso   1.00
H28    H     0.06017   0.14585   0.76255   0.00000  Uiso   1.00
H29    H     0.04450   0.69030   0.59921   0.00000  Uiso   1.00
H30    H     0.53816   0.85900   0.94104   0.00000  Uiso   1.00
H31    H     0.36088   0.94464   0.51297   0.00000  Uiso   1.00
H32    H     0.29214   0.06336   0.50304   0.00000  Uiso   1.00
H33    H     0.28469   0.84731   0.42557   0.00000  Uiso   1.00
H34    H     0.51879   0.92732   0.58768   0.00000  Uiso   1.00
H35    H     0.19540   0.18850   0.52763   0.00000  Uiso   1.00
H36    H     0.17972   0.73294   0.36429   0.00000  Uiso   1.00
H37    H     0.67338   0.90165   0.70611   0.00000  Uiso   1.00
O38    O     0.07969   0.24437   0.64350   0.00000  Uiso   1.00
O39    O     0.05914   0.64669   0.42920   0.00000  Uiso   1.00
O40    O     0.70681   0.86803   0.87768   0.00000  Uiso   1.00
N41    N     0.10145   0.13960   0.70863   0.00000  Uiso   1.00
N42    N     0.08678   0.71369   0.55591   0.00000  Uiso   1.00
N43    N     0.54831   0.87140   0.87549   0.00000  Uiso   1.00
N44    N     0.17421   0.16255   0.58222   0.00000  Uiso   1.00
N45    N     0.15954   0.73664   0.42950   0.00000  Uiso   1.00
N46    N     0.62108   0.89435   0.74908   0.00000  Uiso   1.00
C47    C     0.23912   0.40624   0.22449   0.00000  Uiso   1.00
C48    C     0.21897   0.47617   0.18924   0.00000  Uiso   1.00
C49    C     0.16149   0.52218   0.23000   0.00000  Uiso   1.00
C50    C     0.15211   0.58344   0.18711   0.00000  Uiso   1.00
C51    C     0.11372   0.68977   0.14463   0.00000  Uiso   1.00
C52    C     0.21492   0.35879   0.14714   0.00000  Uiso   1.00
C53    C     0.15403   0.30610   0.15252   0.00000  Uiso   1.00
C54    C     0.14125   0.26854   0.07419   0.00000  Uiso   1.00
C55    C     0.09661   0.19261   0.96637   0.00000  Uiso   1.00
C56    C     0.34211   0.40226   0.23522   0.00000  Uiso   1.00
C57    C     0.38818   0.38611   0.31465   0.00000  Uiso   1.00
C58    C     0.48249   0.38514   0.31047   0.00000  Uiso   1.00
C59    C     0.63534   0.37671   0.33941   0.00000  Uiso   1.00
C60    C     0.32469   0.43323   0.07583   0.00000  Uiso   1.00
C61    C     0.26545   0.49082   0.10849   0.00000  Uiso   1.00
C62    C     0.25616   0.55203   0.06553   0.00000  Uiso   1.00
C63    C     0.19868   0.59812   0.10623   0.00000  Uiso   1.00
C64    C     0.26139   0.37345   0.06639   0.00000  Uiso   1.00
C65    C     0.24871   0.33596   0.98804   0.00000  Uiso   1.00
C66    C     0.18781   0.28323   0.99330   0.00000  Uiso   1.00
C67    C     0.38859   0.41692   0.15447   0.00000  Uiso   1.00
C68    C     0.48285   0.41597   0.15017   0.00000  Uiso   1.00
C69    C     0.52905   0.39983   0.22958   0.00000  Uiso   1.00
H70    H     0.20294   0.39483   0.28735   0.00000  Uiso   1.00
H71    H     0.12553   0.51081   0.29249   0.00000  Uiso   1.00
H72    H     0.11808   0.29477   0.21501   0.00000  Uiso   1.00
H73    H     0.35219   0.37477   0.37712   0.00000  Uiso   1.00
H74    H     0.06017   0.64585   0.26255   0.00000  Uiso   1.00
H75    H     0.04450   0.19030   0.09921   0.00000  Uiso   1.00
H76    H     0.53816   0.35900   0.44104   0.00000  Uiso   1.00
H77    H     0.36088   0.44464   0.01297   0.00000  Uiso   1.00
H78    H     0.29214   0.56336   0.00304   0.00000  Uiso   1.00
H79    H     0.28469   0.34731   0.92557   0.00000  Uiso   1.00
H80    H     0.51879   0.42732   0.08768   0.00000  Uiso   1.00
H81    H     0.19540   0.68850   0.02763   0.00000  Uiso   1.00
H82    H     0.17972   0.23294   0.86429   0.00000  Uiso   1.00
H83    H     0.67338   0.40165   0.20611   0.00000  Uiso   1.00
O84    O     0.07969   0.74437   0.14350   0.00000  Uiso   1.00
O85    O     0.05914   0.14669   0.92920   0.00000  Uiso   1.00
O86    O     0.70681   0.36803   0.37768   0.00000  Uiso   1.00
N87    N     0.10145   0.63960   0.20863   0.00000  Uiso   1.00
N88    N     0.08678   0.21369   0.05591   0.00000  Uiso   1.00
N89    N     0.54831   0.37140   0.37549   0.00000  Uiso   1.00
N90    N     0.17421   0.66255   0.08222   0.00000  Uiso   1.00
N91    N     0.15954   0.23664   0.92950   0.00000  Uiso   1.00
N92    N     0.62108   0.39435   0.24908   0.00000  Uiso   1.00
C93    C     0.76088   0.09376   0.72449   0.00000  Uiso   1.00
C94    C     0.78103   0.02383   0.68924   0.00000  Uiso   1.00
C95    C     0.83851   0.97782   0.73000   0.00000  Uiso   1.00
C96    C     0.84789   0.91656   0.68711   0.00000  Uiso   1.00
C97    C     0.88628   0.81023   0.64463   0.00000  Uiso   1.00
C98    C     0.78508   0.14121   0.64714   0.00000  Uiso   1.00
C99    C     0.84597   0.19390   0.65252   0.00000  Uiso   1.00
C100   C     0.85875   0.23146   0.57419   0.00000  Uiso   1.00
C101   C     0.90339   0.30739   0.46637   0.00000  Uiso   1.00
C102   C     0.65789   0.09774   0.73522   0.00000  Uiso   1.00
C103   C     0.61182   0.11389   0.81465   0.00000  Uiso   1.00
C104   C     0.51751   0.11486   0.81047   0.00000  Uiso   1.00
C105   C     0.36466   0.12329   0.83941   0.00000  Uiso   1.00
C106   C     0.67531   0.06677   0.57583   0.00000  Uiso   1.00
C107   C     0.73455   0.00918   0.60849   0.00000  Uiso   1.00
C108   C     0.74384   0.94797   0.56553   0.00000  Uiso   1.00
C109   C     0.80132   0.90188   0.60623   0.00000  Uiso   1.00
C110   C     0.73861   0.12655   0.56639   0.00000  Uiso   1.00
C111   C     0.75129   0.16404   0.48804   0.00000  Uiso   1.00
C112   C     0.81219   0.21677   0.49330   0.00000  Uiso   1.00
C113   C     0.61141   0.08308   0.65447   0.00000  Uiso   1.00
C114   C     0.51715   0.08403   0.65017   0.00000  Uiso   1.00
C115   C     0.47095   0.10017   0.72958   0.00000  Uiso   1.00
H116   H     0.79706   0.10517   0.78735   0.00000  Uiso   1.00
H117   H     0.87447   0.98919   0.79249   0.00000  Uiso   1.00
H118   H     0.88192   0.20523   0.71501   0.00000  Uiso   1.00
H119   H     0.64781   0.12523   0.87712   0.00000  Uiso   1.00
H120   H     0.93983   0.85415   0.76255   0.00000  Uiso   1.00
H121   H     0.95550   0.30970   0.59921   0.00000  Uiso   1.00
H122   H     0.46184   0.14100   0.94104   0.00000  Uiso   1.00
H123   H     0.63912   0.05536   0.51297   0.00000  Uiso   1.00
H124   H     0.70786   0.93664   0.50304   0.00000  Uiso   1.00
H125   H     0.71531   0.15269   0.42557   0.00000  Uiso   1.00
H126   H     0.48121   0.07268   0.58768   0.00000  Uiso   1.00
H127   H     0.80460   0.81150   0.52763   0.00000  Uiso   1.00
H128   H     0.82028   0.26706   0.36429   0.00000  Uiso   1.00
H129   H     0.32662   0.09835   0.70611   0.00000  Uiso   1.00
O130   O     0.92031   0.75563   0.64350   0.00000  Uiso   1.00
O131   O     0.94086   0.35331   0.42920   0.00000  Uiso   1.00
O132   O     0.29319   0.13197   0.87768   0.00000  Uiso   1.00
N133   N     0.89855   0.86040   0.70863   0.00000  Uiso   1.00
N134   N     0.91322   0.28631   0.55591   0.00000  Uiso   1.00
N135   N     0.45169   0.12860   0.87549   0.00000  Uiso   1.00
N136   N     0.82579   0.83745   0.58222   0.00000  Uiso   1.00
N137   N     0.84046   0.26336   0.42950   0.00000  Uiso   1.00
N138   N     0.37892   0.10565   0.74908   0.00000  Uiso   1.00
C139   C     0.76088   0.59376   0.22449   0.00000  Uiso   1.00
C140   C     0.78103   0.52383   0.18924   0.00000  Uiso   1.00
C141   C     0.83851   0.47782   0.23000   0.00000  Uiso   1.00
C142   C     0.84789   0.41656   0.18711   0.00000  Uiso   1.00
C143   C     0.88628   0.31023   0.14463   0.00000  Uiso   1.00
C144   C     0.78508   0.64121   0.14714   0.00000  Uiso   1.00
C145   C     0.84597   0.69390   0.15252   0.00000  Uiso   1.00
C146   C     0.85875   0.73146   0.07419   0.00000  Uiso   1.00
C147   C     0.90339   0.80739   0.96637   0.00000  Uiso   1.00
C148   C     0.65789   0.59774   0.23522   0.00000  Uiso   1.00
C149   C     0.61182   0.61389   0.31465   0.00000  Uiso   1.00
C150   C     0.51751   0.61486   0.31047   0.00000  Uiso   1.00
C151   C     0.36466   0.62329   0.33941   0.00000  Uiso   1.00
C152   C     0.67531   0.56677   0.07583   0.00000  Uiso   1.00
C153   C     0.73455   0.50918   0.10849   0.00000  Uiso   1.00
C154   C     0.74384   0.44797   0.06553   0.00000  Uiso   1.00
C155   C     0.80132   0.40188   0.10623   0.00000  Uiso   1.00
C156   C     0.73861   0.62655   0.06639   0.00000  Uiso   1.00
C157   C     0.75129   0.66404   0.98804   0.00000  Uiso   1.00
C158   C     0.81219   0.71677   0.99330   0.00000  Uiso   1.00
C159   C     0.61141   0.58308   0.15447   0.00000  Uiso   1.00
C160   C     0.51715   0.58403   0.15017   0.00000  Uiso   1.00
C161   C     0.47095   0.60017   0.22958   0.00000  Uiso   1.00
H162   H     0.79706   0.60517   0.28735   0.00000  Uiso   1.00
H163   H     0.87447   0.48919   0.29249   0.00000  Uiso   1.00
H164   H     0.88192   0.70523   0.21501   0.00000  Uiso   1.00
H165   H     0.64781   0.62523   0.37712   0.00000  Uiso   1.00
H166   H     0.93983   0.35415   0.26255   0.00000  Uiso   1.00
H167   H     0.95550   0.80970   0.09921   0.00000  Uiso   1.00
H168   H     0.46184   0.64100   0.44104   0.00000  Uiso   1.00
H169   H     0.63912   0.55536   0.01297   0.00000  Uiso   1.00
H170   H     0.70786   0.43664   0.00304   0.00000  Uiso   1.00
H171   H     0.71531   0.65269   0.92557   0.00000  Uiso   1.00
H172   H     0.48121   0.57268   0.08768   0.00000  Uiso   1.00
H173   H     0.80460   0.31150   0.02763   0.00000  Uiso   1.00
H174   H     0.82028   0.76706   0.86429   0.00000  Uiso   1.00
H175   H     0.32662   0.59835   0.20611   0.00000  Uiso   1.00
O176   O     0.92031   0.25563   0.14350   0.00000  Uiso   1.00
O177   O     0.94086   0.85331   0.92920   0.00000  Uiso   1.00
O178   O     0.29319   0.63197   0.37768   0.00000  Uiso   1.00
N179   N     0.89855   0.36040   0.20863   0.00000  Uiso   1.00
N180   N     0.91322   0.78631   0.05591   0.00000  Uiso   1.00
N181   N     0.45169   0.62860   0.37549   0.00000  Uiso   1.00
N182   N     0.82579   0.33745   0.08222   0.00000  Uiso   1.00
N183   N     0.84046   0.76336   0.92950   0.00000  Uiso   1.00
N184   N     0.37892   0.60565   0.24908   0.00000  Uiso   1.00
C185   C     0.73912   0.59376   0.72449   0.00000  Uiso   1.00
C186   C     0.71897   0.52383   0.68924   0.00000  Uiso   1.00
C187   C     0.66149   0.47782   0.73000   0.00000  Uiso   1.00
C188   C     0.65211   0.41656   0.68711   0.00000  Uiso   1.00
C189   C     0.61372   0.31023   0.64463   0.00000  Uiso   1.00
C190   C     0.71492   0.64121   0.64714   0.00000  Uiso   1.00
C191   C     0.65403   0.69390   0.65252   0.00000  Uiso   1.00
C192   C     0.64125   0.73146   0.57419   0.00000  Uiso   1.00
C193   C     0.59661   0.80739   0.46637   0.00000  Uiso   1.00
C194   C     0.84211   0.59774   0.73522   0.00000  Uiso   1.00
C195   C     0.88818   0.61389   0.81465   0.00000  Uiso   1.00
C196   C     0.98249   0.61486   0.81047   0.00000  Uiso   1.00
C197   C     0.13534   0.62329   0.83941   0.00000  Uiso   1.00
C198   C     0.82469   0.56677   0.57583   0.00000  Uiso   1.00
C199   C     0.76545   0.50918   0.60849   0.00000  Uiso   1.00
C200   C     0.75616   0.44797   0.56553   0.00000  Uiso   1.00
C201   C     0.69868   0.40188   0.60623   0.00000  Uiso   1.00
C202   C     0.76139   0.62655   0.56639   0.00000  Uiso   1.00
C203   C     0.74871   0.66404   0.48804   0.00000  Uiso   1.00
C204   C     0.68781   0.71677   0.49330   0.00000  Uiso   1.00
C205   C     0.88859   0.58308   0.65447   0.00000  Uiso   1.00
C206   C     0.98285   0.58403   0.65017   0.00000  Uiso   1.00
C207   C     0.02905   0.60017   0.72958   0.00000  Uiso   1.00
H208   H     0.70294   0.60517   0.78735   0.00000  Uiso   1.00
H209   H     0.62553   0.48919   0.79249   0.00000  Uiso   1.00
H210   H     0.61808   0.70523   0.71501   0.00000  Uiso   1.00
H211   H     0.85219   0.62523   0.87712   0.00000  Uiso   1.00
H212   H     0.56017   0.35415   0.76255   0.00000  Uiso   1.00
H213   H     0.54450   0.80970   0.59921   0.00000  Uiso   1.00
H214   H     0.03816   0.64100   0.94104   0.00000  Uiso   1.00
H215   H     0.86088   0.55536   0.51297   0.00000  Uiso   1.00
H216   H     0.79214   0.43664   0.50304   0.00000  Uiso   1.00
H217   H     0.78469   0.65269   0.42557   0.00000  Uiso   1.00
H218   H     0.01879   0.57268   0.58768   0.00000  Uiso   1.00
H219   H     0.69540   0.31150   0.52763   0.00000  Uiso   1.00
H220   H     0.67972   0.76706   0.36429   0.00000  Uiso   1.00
H221   H     0.17338   0.59835   0.70611   0.00000  Uiso   1.00
O222   O     0.57969   0.25563   0.64350   0.00000  Uiso   1.00
O223   O     0.55914   0.85331   0.42920   0.00000  Uiso   1.00
O224   O     0.20681   0.63197   0.87768   0.00000  Uiso   1.00
N225   N     0.60145   0.36040   0.70863   0.00000  Uiso   1.00
N226   N     0.58678   0.78631   0.55591   0.00000  Uiso   1.00
N227   N     0.04831   0.62860   0.87549   0.00000  Uiso   1.00
N228   N     0.67421   0.33745   0.58222   0.00000  Uiso   1.00
N229   N     0.65954   0.76336   0.42950   0.00000  Uiso   1.00
N230   N     0.12108   0.60565   0.74908   0.00000  Uiso   1.00
C231   C     0.73912   0.09376   0.22449   0.00000  Uiso   1.00
C232   C     0.71897   0.02383   0.18924   0.00000  Uiso   1.00
C233   C     0.66149   0.97782   0.23000   0.00000  Uiso   1.00
C234   C     0.65211   0.91656   0.18711   0.00000  Uiso   1.00
C235   C     0.61372   0.81023   0.14463   0.00000  Uiso   1.00
C236   C     0.71492   0.14121   0.14714   0.00000  Uiso   1.00
C237   C     0.65403   0.19390   0.15252   0.00000  Uiso   1.00
C238   C     0.64125   0.23146   0.07419   0.00000  Uiso   1.00
C239   C     0.59661   0.30739   0.96637   0.00000  Uiso   1.00
C240   C     0.84211   0.09774   0.23522   0.00000  Uiso   1.00
C241   C     0.88818   0.11389   0.31465   0.00000  Uiso   1.00
C242   C     0.98249   0.11486   0.31047   0.00000  Uiso   1.00
C243   C     0.13534   0.12329   0.33941   0.00000  Uiso   1.00
C244   C     0.82469   0.06677   0.07583   0.00000  Uiso   1.00
C245   C     0.76545   0.00918   0.10849   0.00000  Uiso   1.00
C246   C     0.75616   0.94797   0.06553   0.00000  Uiso   1.00
C247   C     0.69868   0.90188   0.10623   0.00000  Uiso   1.00
C248   C     0.76139   0.12655   0.06639   0.00000  Uiso   1.00
C249   C     0.74871   0.16404   0.98804   0.00000  Uiso   1.00
C250   C     0.68781   0.21677   0.99330   0.00000  Uiso   1.00
C251   C     0.88859   0.08308   0.15447   0.00000  Uiso   1.00
C252   C     0.98285   0.08403   0.15017   0.00000  Uiso   1.00
C253   C     0.02905   0.10017   0.22958   0.00000  Uiso   1.00
H254   H     0.70294   0.10517   0.28735   0.00000  Uiso   1.00
H255   H     0.62553   0.98919   0.29249   0.00000  Uiso   1.00
H256   H     0.61808   0.20523   0.21501   0.00000  Uiso   1.00
H257   H     0.85219   0.12523   0.37712   0.00000  Uiso   1.00
H258   H     0.56017   0.85415   0.26255   0.00000  Uiso   1.00
H259   H     0.54450   0.30970   0.09921   0.00000  Uiso   1.00
H260   H     0.03816   0.14100   0.44104   0.00000  Uiso   1.00
H261   H     0.86088   0.05536   0.01297   0.00000  Uiso   1.00
H262   H     0.79214   0.93664   0.00304   0.00000  Uiso   1.00
H263   H     0.78469   0.15269   0.92557   0.00000  Uiso   1.00
H264   H     0.01879   0.07268   0.08768   0.00000  Uiso   1.00
H265   H     0.69540   0.81150   0.02763   0.00000  Uiso   1.00
H266   H     0.67972   0.26706   0.86429   0.00000  Uiso   1.00
H267   H     0.17338   0.09835   0.20611   0.00000  Uiso   1.00
O268   O     0.57969   0.75563   0.14350   0.00000  Uiso   1.00
O269   O     0.55914   0.35331   0.92920   0.00000  Uiso   1.00
O270   O     0.20681   0.13197   0.37768   0.00000  Uiso   1.00
N271   N     0.60145   0.86040   0.20863   0.00000  Uiso   1.00
N272   N     0.58678   0.28631   0.05591   0.00000  Uiso   1.00
N273   N     0.04831   0.12860   0.37549   0.00000  Uiso   1.00
N274   N     0.67421   0.83745   0.08222   0.00000  Uiso   1.00
N275   N     0.65954   0.26336   0.92950   0.00000  Uiso   1.00
N276   N     0.12108   0.10565   0.24908   0.00000  Uiso   1.00
C277   C     0.26088   0.40624   0.72449   0.00000  Uiso   1.00
C278   C     0.28103   0.47617   0.68924   0.00000  Uiso   1.00
C279   C     0.33851   0.52218   0.73000   0.00000  Uiso   1.00
C280   C     0.34789   0.58344   0.68711   0.00000  Uiso   1.00
C281   C     0.38628   0.68977   0.64463   0.00000  Uiso   1.00
C282   C     0.28508   0.35879   0.64714   0.00000  Uiso   1.00
C283   C     0.34597   0.30610   0.65252   0.00000  Uiso   1.00
C284   C     0.35875   0.26854   0.57419   0.00000  Uiso   1.00
C285   C     0.40339   0.19261   0.46637   0.00000  Uiso   1.00
C286   C     0.15789   0.40226   0.73522   0.00000  Uiso   1.00
C287   C     0.11182   0.38611   0.81465   0.00000  Uiso   1.00
C288   C     0.01751   0.38514   0.81047   0.00000  Uiso   1.00
C289   C     0.86466   0.37671   0.83941   0.00000  Uiso   1.00
C290   C     0.17531   0.43323   0.57583   0.00000  Uiso   1.00
C291   C     0.23455   0.49082   0.60849   0.00000  Uiso   1.00
C292   C     0.24384   0.55203   0.56553   0.00000  Uiso   1.00
C293   C     0.30132   0.59812   0.60623   0.00000  Uiso   1.00
C294   C     0.23861   0.37345   0.56639   0.00000  Uiso   1.00
C295   C     0.25129   0.33596   0.48804   0.00000  Uiso   1.00
C296   C     0.31219   0.28323   0.49330   0.00000  Uiso   1.00
C297   C     0.11141   0.41692   0.65447   0.00000  Uiso   1.00
C298   C     0.01715   0.41597   0.65017   0.00000  Uiso   1.00
C299   C     0.97095   0.39983   0.72958   0.00000  Uiso   1.00
H300   H     0.29706   0.39483   0.78735   0.00000  Uiso   1.00
H301   H     0.37447   0.51081   0.79249   0.00000  Uiso   1.00
H302   H     0.38192   0.29477   0.71501   0.00000  Uiso   1.00
H303   H     0.14781   0.37477   0.87712   0.00000  Uiso   1.00
H304   H     0.43983   0.64585   0.76255   0.00000  Uiso   1.00
H305   H     0.45550   0.19030   0.59921   0.00000  Uiso   1.00
H306   H     0.96184   0.35900   0.94104   0.00000  Uiso   1.00
H307   H     0.13912   0.44464   0.51297   0.00000  Uiso   1.00
H308   H     0.20786   0.56336   0.50304   0.00000  Uiso   1.00
H309   H     0.21531   0.34731   0.42557   0.00000  Uiso   1.00
H310   H     0.98121   0.42732   0.58768   0.00000  Uiso   1.00
H311   H     0.30460   0.68850   0.52763   0.00000  Uiso   1.00
H312   H     0.32028   0.23294   0.36429   0.00000  Uiso   1.00
H313   H     0.82662   0.40165   0.70611   0.00000  Uiso   1.00
O314   O     0.42031   0.74437   0.64350   0.00000  Uiso   1.00
O315   O     0.44086   0.14669   0.42920   0.00000  Uiso   1.00
O316   O     0.79319   0.36803   0.87768   0.00000  Uiso   1.00
N317   N     0.39855   0.63960   0.70863   0.00000  Uiso   1.00
N318   N     0.41322   0.21369   0.55591   0.00000  Uiso   1.00
N319   N     0.95169   0.37140   0.87549   0.00000  Uiso   1.00
N320   N     0.32579   0.66255   0.58222   0.00000  Uiso   1.00
N321   N     0.34046   0.23664   0.42950   0.00000  Uiso   1.00
N322   N     0.87892   0.39435   0.74908   0.00000  Uiso   1.00
C323   C     0.26088   0.90624   0.22449   0.00000  Uiso   1.00
C324   C     0.28103   0.97617   0.18924   0.00000  Uiso   1.00
C325   C     0.33851   0.02218   0.23000   0.00000  Uiso   1.00
C326   C     0.34789   0.08344   0.18711   0.00000  Uiso   1.00
C327   C     0.38628   0.18977   0.14463   0.00000  Uiso   1.00
C328   C     0.28508   0.85879   0.14714   0.00000  Uiso   1.00
C329   C     0.34597   0.80610   0.15252   0.00000  Uiso   1.00
C330   C     0.35875   0.76854   0.07419   0.00000  Uiso   1.00
C331   C     0.40339   0.69261   0.96637   0.00000  Uiso   1.00
C332   C     0.15789   0.90226   0.23522   0.00000  Uiso   1.00
C333   C     0.11182   0.88611   0.31465   0.00000  Uiso   1.00
C334   C     0.01751   0.88514   0.31047   0.00000  Uiso   1.00
C335   C     0.86466   0.87671   0.33941   0.00000  Uiso   1.00
C336   C     0.17531   0.93323   0.07583   0.00000  Uiso   1.00
C337   C     0.23455   0.99082   0.10849   0.00000  Uiso   1.00
C338   C     0.24384   0.05203   0.06553   0.00000  Uiso   1.00
C339   C     0.30132   0.09812   0.10623   0.00000  Uiso   1.00
C340   C     0.23861   0.87345   0.06639   0.00000  Uiso   1.00
C341   C     0.25129   0.83596   0.98804   0.00000  Uiso   1.00
C342   C     0.31219   0.78323   0.99330   0.00000  Uiso   1.00
C343   C     0.11141   0.91692   0.15447   0.00000  Uiso   1.00
C344   C     0.01715   0.91597   0.15017   0.00000  Uiso   1.00
C345   C     0.97095   0.89983   0.22958   0.00000  Uiso   1.00
H346   H     0.29706   0.89483   0.28735   0.00000  Uiso   1.00
H347   H     0.37447   0.01081   0.29249   0.00000  Uiso   1.00
H348   H     0.38192   0.79477   0.21501   0.00000  Uiso   1.00
H349   H     0.14781   0.87477   0.37712   0.00000  Uiso   1.00
H350   H     0.43983   0.14585   0.26255   0.00000  Uiso   1.00
H351   H     0.45550   0.69030   0.09921   0.00000  Uiso   1.00
H352   H     0.96184   0.85900   0.44104   0.00000  Uiso   1.00
H353   H     0.13912   0.94464   0.01297   0.00000  Uiso   1.00
H354   H     0.20786   0.06336   0.00304   0.00000  Uiso   1.00
H355   H     0.21531   0.84731   0.92557   0.00000  Uiso   1.00
H356   H     0.98121   0.92732   0.08768   0.00000  Uiso   1.00
H357   H     0.30460   0.18850   0.02763   0.00000  Uiso   1.00
H358   H     0.32028   0.73294   0.86429   0.00000  Uiso   1.00
H359   H     0.82662   0.90165   0.20611   0.00000  Uiso   1.00
O360   O     0.42031   0.24437   0.14350   0.00000  Uiso   1.00
O361   O     0.44086   0.64669   0.92920   0.00000  Uiso   1.00
O362   O     0.79319   0.86803   0.37768   0.00000  Uiso   1.00
N363   N     0.39855   0.13960   0.20863   0.00000  Uiso   1.00
N364   N     0.41322   0.71369   0.05591   0.00000  Uiso   1.00
N365   N     0.95169   0.87140   0.37549   0.00000  Uiso   1.00
N366   N     0.32579   0.16255   0.08222   0.00000  Uiso   1.00
N367   N     0.34046   0.73664   0.92950   0.00000  Uiso   1.00
N368   N     0.87892   0.89435   0.24908   0.00000  Uiso   1.00
