data_job_05676
_audit_creation_date              2018-12-19
_audit_creation_method            'Materials Studio'
_symmetry_space_group_name_H-M    'P1'
_symmetry_Int_Tables_number       1
_symmetry_cell_setting            triclinic
loop_
_symmetry_equiv_pos_as_xyz
  x,y,z
_cell_length_a                    11.6702
_cell_length_b                    14.1873
_cell_length_c                    29.9944
_cell_angle_alpha                 90.0000
_cell_angle_beta                  106.5535
_cell_angle_gamma                 90.0000
loop_
_atom_site_label
_atom_site_type_symbol
_atom_site_fract_x
_atom_site_fract_y
_atom_site_fract_z
_atom_site_U_iso_or_equiv
_atom_site_adp_type
_atom_site_occupancy
C1     C     0.18122   0.17824   0.14168   0.00000  Uiso   1.00
C2     C     0.23805   0.11651   0.18380   0.00000  Uiso   1.00
C3     C     0.31857   0.14661   0.22491   0.00000  Uiso   1.00
C4     C     0.36029   0.07927   0.25930   0.00000  Uiso   1.00
C5     C     0.45429   0.99771   0.32569   0.00000  Uiso   1.00
C6     C     0.21184   0.13210   0.10060   0.00000  Uiso   1.00
C7     C     0.27030   0.17532   0.07175   0.00000  Uiso   1.00
C8     C     0.28994   0.12110   0.03610   0.00000  Uiso   1.00
C9     C     0.34316   0.06377   0.97329   0.00000  Uiso   1.00
C10    C     0.04644   0.16746   0.13239   0.00000  Uiso   1.00
C11    C     0.96583   0.24041   0.13026   0.00000  Uiso   1.00
C12    C     0.84621   0.21596   0.12136   0.00000  Uiso   1.00
C13    C     0.64263   0.21354   0.10791   0.00000  Uiso   1.00
C14    C     0.11213   0.00511   0.12964   0.00000  Uiso   1.00
C15    C     0.20053   0.02247   0.17725   0.00000  Uiso   1.00
C16    C     0.24213   0.95506   0.21159   0.00000  Uiso   1.00
C17    C     0.32270   0.98506   0.25275   0.00000  Uiso   1.00
C18    C     0.17431   0.03807   0.09405   0.00000  Uiso   1.00
C19    C     0.19386   0.98377   0.05843   0.00000  Uiso   1.00
C20    C     0.25235   0.02689   0.02954   0.00000  Uiso   1.00
C21    C     0.00891   0.07342   0.12585   0.00000  Uiso   1.00
C22    C     0.88940   0.04886   0.11694   0.00000  Uiso   1.00
C23    C     0.80862   0.12176   0.11480   0.00000  Uiso   1.00
H24    H     0.21043   0.25145   0.14677   0.00000  Uiso   1.00
H25    H     0.34759   0.21939   0.22996   0.00000  Uiso   1.00
H26    H     0.29931   0.24809   0.07682   0.00000  Uiso   1.00
H27    H     0.99490   0.31317   0.13532   0.00000  Uiso   1.00
H28    H     0.48315   0.14237   0.31930   0.00000  Uiso   1.00
H29    H     0.38131   0.20290   0.99639   0.00000  Uiso   1.00
H30    H     0.73939   0.34014   0.11975   0.00000  Uiso   1.00
H31    H     0.08292   0.93189   0.12454   0.00000  Uiso   1.00
H32    H     0.21308   0.88230   0.20652   0.00000  Uiso   1.00
H33    H     0.16481   0.91100   0.05338   0.00000  Uiso   1.00
H34    H     0.86039   0.97608   0.11188   0.00000  Uiso   1.00
H35    H     0.37398   0.86877   0.30028   0.00000  Uiso   1.00
H36    H     0.27214   0.92931   0.97736   0.00000  Uiso   1.00
H37    H     0.63022   0.06654   0.10072   0.00000  Uiso   1.00
O38    O     0.51652   0.97870   0.36411   0.00000  Uiso   1.00
O39    O     0.38289   0.05813   0.94046   0.00000  Uiso   1.00
O40    O     0.54071   0.23817   0.10230   0.00000  Uiso   1.00
N41    N     0.43957   0.08479   0.30358   0.00000  Uiso   1.00
N42    N     0.34438   0.14138   0.00168   0.00000  Uiso   1.00
N43    N     0.74423   0.26968   0.11700   0.00000  Uiso   1.00
N44    N     0.38083   0.93757   0.29334   0.00000  Uiso   1.00
N45    N     0.28564   0.99416   0.99144   0.00000  Uiso   1.00
N46    N     0.68549   0.12246   0.10676   0.00000  Uiso   1.00
C47    C     0.68122   0.67824   0.14168   0.00000  Uiso   1.00
C48    C     0.73805   0.61651   0.18380   0.00000  Uiso   1.00
C49    C     0.81857   0.64661   0.22491   0.00000  Uiso   1.00
C50    C     0.86029   0.57927   0.25930   0.00000  Uiso   1.00
C51    C     0.95429   0.49771   0.32569   0.00000  Uiso   1.00
C52    C     0.71184   0.63210   0.10060   0.00000  Uiso   1.00
C53    C     0.77030   0.67532   0.07175   0.00000  Uiso   1.00
C54    C     0.78994   0.62110   0.03610   0.00000  Uiso   1.00
C55    C     0.84316   0.56377   0.97329   0.00000  Uiso   1.00
C56    C     0.54644   0.66746   0.13239   0.00000  Uiso   1.00
C57    C     0.46583   0.74041   0.13026   0.00000  Uiso   1.00
C58    C     0.34621   0.71596   0.12136   0.00000  Uiso   1.00
C59    C     0.14263   0.71354   0.10791   0.00000  Uiso   1.00
C60    C     0.61213   0.50511   0.12964   0.00000  Uiso   1.00
C61    C     0.70053   0.52247   0.17725   0.00000  Uiso   1.00
C62    C     0.74213   0.45506   0.21159   0.00000  Uiso   1.00
C63    C     0.82270   0.48506   0.25275   0.00000  Uiso   1.00
C64    C     0.67431   0.53807   0.09405   0.00000  Uiso   1.00
C65    C     0.69386   0.48377   0.05843   0.00000  Uiso   1.00
C66    C     0.75235   0.52689   0.02954   0.00000  Uiso   1.00
C67    C     0.50891   0.57342   0.12585   0.00000  Uiso   1.00
C68    C     0.38940   0.54886   0.11694   0.00000  Uiso   1.00
C69    C     0.30862   0.62176   0.11480   0.00000  Uiso   1.00
H70    H     0.71043   0.75145   0.14677   0.00000  Uiso   1.00
H71    H     0.84759   0.71939   0.22996   0.00000  Uiso   1.00
H72    H     0.79931   0.74809   0.07682   0.00000  Uiso   1.00
H73    H     0.49490   0.81317   0.13532   0.00000  Uiso   1.00
H74    H     0.98315   0.64237   0.31930   0.00000  Uiso   1.00
H75    H     0.88131   0.70290   0.99639   0.00000  Uiso   1.00
H76    H     0.23939   0.84014   0.11975   0.00000  Uiso   1.00
H77    H     0.58292   0.43189   0.12454   0.00000  Uiso   1.00
H78    H     0.71308   0.38230   0.20652   0.00000  Uiso   1.00
H79    H     0.66481   0.41100   0.05338   0.00000  Uiso   1.00
H80    H     0.36039   0.47608   0.11188   0.00000  Uiso   1.00
H81    H     0.87398   0.36877   0.30028   0.00000  Uiso   1.00
H82    H     0.77214   0.42931   0.97736   0.00000  Uiso   1.00
H83    H     0.13022   0.56654   0.10072   0.00000  Uiso   1.00
O84    O     0.01652   0.47870   0.36411   0.00000  Uiso   1.00
O85    O     0.88289   0.55813   0.94046   0.00000  Uiso   1.00
O86    O     0.04071   0.73817   0.10230   0.00000  Uiso   1.00
N87    N     0.93957   0.58479   0.30358   0.00000  Uiso   1.00
N88    N     0.84438   0.64138   0.00168   0.00000  Uiso   1.00
N89    N     0.24423   0.76968   0.11700   0.00000  Uiso   1.00
N90    N     0.88083   0.43757   0.29334   0.00000  Uiso   1.00
N91    N     0.78564   0.49416   0.99144   0.00000  Uiso   1.00
N92    N     0.18549   0.62246   0.10676   0.00000  Uiso   1.00
C93    C     0.81878   0.17824   0.35832   0.00000  Uiso   1.00
C94    C     0.76195   0.11651   0.31620   0.00000  Uiso   1.00
C95    C     0.68143   0.14661   0.27509   0.00000  Uiso   1.00
C96    C     0.63971   0.07927   0.24070   0.00000  Uiso   1.00
C97    C     0.54571   0.99771   0.17431   0.00000  Uiso   1.00
C98    C     0.78816   0.13210   0.39940   0.00000  Uiso   1.00
C99    C     0.72970   0.17532   0.42825   0.00000  Uiso   1.00
C100   C     0.71006   0.12110   0.46390   0.00000  Uiso   1.00
C101   C     0.65684   0.06377   0.52671   0.00000  Uiso   1.00
C102   C     0.95356   0.16746   0.36761   0.00000  Uiso   1.00
C103   C     0.03417   0.24041   0.36974   0.00000  Uiso   1.00
C104   C     0.15379   0.21596   0.37864   0.00000  Uiso   1.00
C105   C     0.35737   0.21354   0.39209   0.00000  Uiso   1.00
C106   C     0.88787   0.00511   0.37036   0.00000  Uiso   1.00
C107   C     0.79947   0.02247   0.32275   0.00000  Uiso   1.00
C108   C     0.75787   0.95506   0.28841   0.00000  Uiso   1.00
C109   C     0.67730   0.98506   0.24725   0.00000  Uiso   1.00
C110   C     0.82569   0.03807   0.40595   0.00000  Uiso   1.00
C111   C     0.80614   0.98377   0.44157   0.00000  Uiso   1.00
C112   C     0.74765   0.02689   0.47046   0.00000  Uiso   1.00
C113   C     0.99109   0.07342   0.37415   0.00000  Uiso   1.00
C114   C     0.11060   0.04886   0.38306   0.00000  Uiso   1.00
C115   C     0.19138   0.12176   0.38520   0.00000  Uiso   1.00
H116   H     0.78957   0.25145   0.35323   0.00000  Uiso   1.00
H117   H     0.65241   0.21939   0.27004   0.00000  Uiso   1.00
H118   H     0.70069   0.24809   0.42318   0.00000  Uiso   1.00
H119   H     0.00510   0.31317   0.36468   0.00000  Uiso   1.00
H120   H     0.51685   0.14237   0.18070   0.00000  Uiso   1.00
H121   H     0.61869   0.20290   0.50361   0.00000  Uiso   1.00
H122   H     0.26061   0.34014   0.38025   0.00000  Uiso   1.00
H123   H     0.91708   0.93189   0.37546   0.00000  Uiso   1.00
H124   H     0.78692   0.88230   0.29348   0.00000  Uiso   1.00
H125   H     0.83519   0.91100   0.44662   0.00000  Uiso   1.00
H126   H     0.13961   0.97608   0.38812   0.00000  Uiso   1.00
H127   H     0.62602   0.86877   0.19972   0.00000  Uiso   1.00
H128   H     0.72786   0.92931   0.52264   0.00000  Uiso   1.00
H129   H     0.36978   0.06654   0.39928   0.00000  Uiso   1.00
O130   O     0.48348   0.97870   0.13589   0.00000  Uiso   1.00
O131   O     0.61711   0.05813   0.55954   0.00000  Uiso   1.00
O132   O     0.45929   0.23817   0.39770   0.00000  Uiso   1.00
N133   N     0.56043   0.08479   0.19642   0.00000  Uiso   1.00
N134   N     0.65562   0.14138   0.49832   0.00000  Uiso   1.00
N135   N     0.25577   0.26968   0.38300   0.00000  Uiso   1.00
N136   N     0.61917   0.93757   0.20666   0.00000  Uiso   1.00
N137   N     0.71436   0.99416   0.50856   0.00000  Uiso   1.00
N138   N     0.31451   0.12246   0.39324   0.00000  Uiso   1.00
C139   C     0.31878   0.67824   0.35832   0.00000  Uiso   1.00
C140   C     0.26195   0.61651   0.31620   0.00000  Uiso   1.00
C141   C     0.18143   0.64661   0.27509   0.00000  Uiso   1.00
C142   C     0.13971   0.57927   0.24070   0.00000  Uiso   1.00
C143   C     0.04571   0.49771   0.17431   0.00000  Uiso   1.00
C144   C     0.28816   0.63210   0.39940   0.00000  Uiso   1.00
C145   C     0.22970   0.67532   0.42825   0.00000  Uiso   1.00
C146   C     0.21006   0.62110   0.46390   0.00000  Uiso   1.00
C147   C     0.15684   0.56377   0.52671   0.00000  Uiso   1.00
C148   C     0.45356   0.66746   0.36761   0.00000  Uiso   1.00
C149   C     0.53417   0.74041   0.36974   0.00000  Uiso   1.00
C150   C     0.65379   0.71596   0.37864   0.00000  Uiso   1.00
C151   C     0.85737   0.71354   0.39209   0.00000  Uiso   1.00
C152   C     0.38787   0.50511   0.37036   0.00000  Uiso   1.00
C153   C     0.29947   0.52247   0.32275   0.00000  Uiso   1.00
C154   C     0.25787   0.45506   0.28841   0.00000  Uiso   1.00
C155   C     0.17730   0.48506   0.24725   0.00000  Uiso   1.00
C156   C     0.32569   0.53807   0.40595   0.00000  Uiso   1.00
C157   C     0.30614   0.48377   0.44157   0.00000  Uiso   1.00
C158   C     0.24765   0.52689   0.47046   0.00000  Uiso   1.00
C159   C     0.49109   0.57342   0.37415   0.00000  Uiso   1.00
C160   C     0.61060   0.54886   0.38306   0.00000  Uiso   1.00
C161   C     0.69138   0.62176   0.38520   0.00000  Uiso   1.00
H162   H     0.28957   0.75145   0.35323   0.00000  Uiso   1.00
H163   H     0.15241   0.71939   0.27004   0.00000  Uiso   1.00
H164   H     0.20069   0.74809   0.42318   0.00000  Uiso   1.00
H165   H     0.50510   0.81317   0.36468   0.00000  Uiso   1.00
H166   H     0.01685   0.64237   0.18070   0.00000  Uiso   1.00
H167   H     0.11869   0.70290   0.50361   0.00000  Uiso   1.00
H168   H     0.76061   0.84014   0.38025   0.00000  Uiso   1.00
H169   H     0.41708   0.43189   0.37546   0.00000  Uiso   1.00
H170   H     0.28692   0.38230   0.29348   0.00000  Uiso   1.00
H171   H     0.33519   0.41100   0.44662   0.00000  Uiso   1.00
H172   H     0.63961   0.47608   0.38812   0.00000  Uiso   1.00
H173   H     0.12602   0.36877   0.19972   0.00000  Uiso   1.00
H174   H     0.22786   0.42931   0.52264   0.00000  Uiso   1.00
H175   H     0.86978   0.56654   0.39928   0.00000  Uiso   1.00
O176   O     0.98348   0.47870   0.13589   0.00000  Uiso   1.00
O177   O     0.11711   0.55813   0.55954   0.00000  Uiso   1.00
O178   O     0.95929   0.73817   0.39770   0.00000  Uiso   1.00
N179   N     0.06043   0.58479   0.19642   0.00000  Uiso   1.00
N180   N     0.15562   0.64138   0.49832   0.00000  Uiso   1.00
N181   N     0.75577   0.76968   0.38300   0.00000  Uiso   1.00
N182   N     0.11917   0.43757   0.20666   0.00000  Uiso   1.00
N183   N     0.21436   0.49416   0.50856   0.00000  Uiso   1.00
N184   N     0.81451   0.62246   0.39324   0.00000  Uiso   1.00
C185   C     0.81878   0.82176   0.85832   0.00000  Uiso   1.00
C186   C     0.76195   0.88349   0.81620   0.00000  Uiso   1.00
C187   C     0.68143   0.85339   0.77509   0.00000  Uiso   1.00
C188   C     0.63971   0.92073   0.74070   0.00000  Uiso   1.00
C189   C     0.54571   0.00229   0.67431   0.00000  Uiso   1.00
C190   C     0.78816   0.86790   0.89940   0.00000  Uiso   1.00
C191   C     0.72970   0.82468   0.92825   0.00000  Uiso   1.00
C192   C     0.71006   0.87890   0.96390   0.00000  Uiso   1.00
C193   C     0.65684   0.93623   0.02671   0.00000  Uiso   1.00
C194   C     0.95356   0.83254   0.86761   0.00000  Uiso   1.00
C195   C     0.03417   0.75959   0.86974   0.00000  Uiso   1.00
C196   C     0.15379   0.78404   0.87864   0.00000  Uiso   1.00
C197   C     0.35737   0.78646   0.89209   0.00000  Uiso   1.00
C198   C     0.88787   0.99489   0.87036   0.00000  Uiso   1.00
C199   C     0.79947   0.97753   0.82275   0.00000  Uiso   1.00
C200   C     0.75787   0.04494   0.78841   0.00000  Uiso   1.00
C201   C     0.67730   0.01494   0.74725   0.00000  Uiso   1.00
C202   C     0.82569   0.96193   0.90595   0.00000  Uiso   1.00
C203   C     0.80614   0.01623   0.94157   0.00000  Uiso   1.00
C204   C     0.74765   0.97311   0.97046   0.00000  Uiso   1.00
C205   C     0.99109   0.92658   0.87415   0.00000  Uiso   1.00
C206   C     0.11060   0.95114   0.88306   0.00000  Uiso   1.00
C207   C     0.19138   0.87824   0.88520   0.00000  Uiso   1.00
H208   H     0.78957   0.74855   0.85323   0.00000  Uiso   1.00
H209   H     0.65241   0.78061   0.77004   0.00000  Uiso   1.00
H210   H     0.70069   0.75191   0.92318   0.00000  Uiso   1.00
H211   H     0.00510   0.68683   0.86468   0.00000  Uiso   1.00
H212   H     0.51685   0.85763   0.68070   0.00000  Uiso   1.00
H213   H     0.61869   0.79710   0.00361   0.00000  Uiso   1.00
H214   H     0.26061   0.65986   0.88025   0.00000  Uiso   1.00
H215   H     0.91708   0.06811   0.87546   0.00000  Uiso   1.00
H216   H     0.78692   0.11770   0.79348   0.00000  Uiso   1.00
H217   H     0.83519   0.08900   0.94662   0.00000  Uiso   1.00
H218   H     0.13961   0.02392   0.88812   0.00000  Uiso   1.00
H219   H     0.62602   0.13123   0.69972   0.00000  Uiso   1.00
H220   H     0.72786   0.07069   0.02264   0.00000  Uiso   1.00
H221   H     0.36978   0.93346   0.89928   0.00000  Uiso   1.00
O222   O     0.48348   0.02130   0.63589   0.00000  Uiso   1.00
O223   O     0.61711   0.94187   0.05954   0.00000  Uiso   1.00
O224   O     0.45929   0.76183   0.89770   0.00000  Uiso   1.00
N225   N     0.56043   0.91521   0.69642   0.00000  Uiso   1.00
N226   N     0.65562   0.85862   0.99832   0.00000  Uiso   1.00
N227   N     0.25577   0.73032   0.88300   0.00000  Uiso   1.00
N228   N     0.61917   0.06243   0.70666   0.00000  Uiso   1.00
N229   N     0.71436   0.00584   0.00856   0.00000  Uiso   1.00
N230   N     0.31451   0.87754   0.89324   0.00000  Uiso   1.00
C231   C     0.31878   0.32176   0.85832   0.00000  Uiso   1.00
C232   C     0.26195   0.38349   0.81620   0.00000  Uiso   1.00
C233   C     0.18143   0.35339   0.77509   0.00000  Uiso   1.00
C234   C     0.13971   0.42073   0.74070   0.00000  Uiso   1.00
C235   C     0.04571   0.50229   0.67431   0.00000  Uiso   1.00
C236   C     0.28816   0.36790   0.89940   0.00000  Uiso   1.00
C237   C     0.22970   0.32468   0.92825   0.00000  Uiso   1.00
C238   C     0.21006   0.37890   0.96390   0.00000  Uiso   1.00
C239   C     0.15684   0.43623   0.02671   0.00000  Uiso   1.00
C240   C     0.45356   0.33254   0.86761   0.00000  Uiso   1.00
C241   C     0.53417   0.25959   0.86974   0.00000  Uiso   1.00
C242   C     0.65379   0.28404   0.87864   0.00000  Uiso   1.00
C243   C     0.85737   0.28646   0.89209   0.00000  Uiso   1.00
C244   C     0.38787   0.49489   0.87036   0.00000  Uiso   1.00
C245   C     0.29947   0.47753   0.82275   0.00000  Uiso   1.00
C246   C     0.25787   0.54494   0.78841   0.00000  Uiso   1.00
C247   C     0.17730   0.51494   0.74725   0.00000  Uiso   1.00
C248   C     0.32569   0.46193   0.90595   0.00000  Uiso   1.00
C249   C     0.30614   0.51623   0.94157   0.00000  Uiso   1.00
C250   C     0.24765   0.47311   0.97046   0.00000  Uiso   1.00
C251   C     0.49109   0.42658   0.87415   0.00000  Uiso   1.00
C252   C     0.61060   0.45114   0.88306   0.00000  Uiso   1.00
C253   C     0.69138   0.37824   0.88520   0.00000  Uiso   1.00
H254   H     0.28957   0.24855   0.85323   0.00000  Uiso   1.00
H255   H     0.15241   0.28061   0.77004   0.00000  Uiso   1.00
H256   H     0.20069   0.25191   0.92318   0.00000  Uiso   1.00
H257   H     0.50510   0.18683   0.86468   0.00000  Uiso   1.00
H258   H     0.01685   0.35763   0.68070   0.00000  Uiso   1.00
H259   H     0.11869   0.29710   0.00361   0.00000  Uiso   1.00
H260   H     0.76061   0.15986   0.88025   0.00000  Uiso   1.00
H261   H     0.41708   0.56811   0.87546   0.00000  Uiso   1.00
H262   H     0.28692   0.61770   0.79348   0.00000  Uiso   1.00
H263   H     0.33519   0.58900   0.94662   0.00000  Uiso   1.00
H264   H     0.63961   0.52392   0.88812   0.00000  Uiso   1.00
H265   H     0.12602   0.63123   0.69972   0.00000  Uiso   1.00
H266   H     0.22786   0.57069   0.02264   0.00000  Uiso   1.00
H267   H     0.86978   0.43346   0.89928   0.00000  Uiso   1.00
O268   O     0.98348   0.52130   0.63589   0.00000  Uiso   1.00
O269   O     0.11711   0.44187   0.05954   0.00000  Uiso   1.00
O270   O     0.95929   0.26183   0.89770   0.00000  Uiso   1.00
N271   N     0.06043   0.41521   0.69642   0.00000  Uiso   1.00
N272   N     0.15562   0.35862   0.99832   0.00000  Uiso   1.00
N273   N     0.75577   0.23032   0.88300   0.00000  Uiso   1.00
N274   N     0.11917   0.56243   0.70666   0.00000  Uiso   1.00
N275   N     0.21436   0.50584   0.00856   0.00000  Uiso   1.00
N276   N     0.81451   0.37754   0.89324   0.00000  Uiso   1.00
C277   C     0.18122   0.82176   0.64168   0.00000  Uiso   1.00
C278   C     0.23805   0.88349   0.68380   0.00000  Uiso   1.00
C279   C     0.31857   0.85339   0.72491   0.00000  Uiso   1.00
C280   C     0.36029   0.92073   0.75930   0.00000  Uiso   1.00
C281   C     0.45429   0.00229   0.82569   0.00000  Uiso   1.00
C282   C     0.21184   0.86790   0.60060   0.00000  Uiso   1.00
C283   C     0.27030   0.82468   0.57175   0.00000  Uiso   1.00
C284   C     0.28994   0.87890   0.53610   0.00000  Uiso   1.00
C285   C     0.34316   0.93623   0.47329   0.00000  Uiso   1.00
C286   C     0.04644   0.83254   0.63239   0.00000  Uiso   1.00
C287   C     0.96583   0.75959   0.63026   0.00000  Uiso   1.00
C288   C     0.84621   0.78404   0.62136   0.00000  Uiso   1.00
C289   C     0.64263   0.78646   0.60791   0.00000  Uiso   1.00
C290   C     0.11213   0.99489   0.62964   0.00000  Uiso   1.00
C291   C     0.20053   0.97753   0.67725   0.00000  Uiso   1.00
C292   C     0.24213   0.04494   0.71159   0.00000  Uiso   1.00
C293   C     0.32270   0.01494   0.75275   0.00000  Uiso   1.00
C294   C     0.17431   0.96193   0.59405   0.00000  Uiso   1.00
C295   C     0.19386   0.01623   0.55843   0.00000  Uiso   1.00
C296   C     0.25235   0.97311   0.52954   0.00000  Uiso   1.00
C297   C     0.00891   0.92658   0.62585   0.00000  Uiso   1.00
C298   C     0.88940   0.95114   0.61694   0.00000  Uiso   1.00
C299   C     0.80862   0.87824   0.61480   0.00000  Uiso   1.00
H300   H     0.21043   0.74855   0.64677   0.00000  Uiso   1.00
H301   H     0.34759   0.78061   0.72996   0.00000  Uiso   1.00
H302   H     0.29931   0.75191   0.57682   0.00000  Uiso   1.00
H303   H     0.99490   0.68683   0.63532   0.00000  Uiso   1.00
H304   H     0.48315   0.85763   0.81930   0.00000  Uiso   1.00
H305   H     0.38131   0.79710   0.49639   0.00000  Uiso   1.00
H306   H     0.73939   0.65986   0.61975   0.00000  Uiso   1.00
H307   H     0.08292   0.06811   0.62454   0.00000  Uiso   1.00
H308   H     0.21308   0.11770   0.70652   0.00000  Uiso   1.00
H309   H     0.16481   0.08900   0.55338   0.00000  Uiso   1.00
H310   H     0.86039   0.02392   0.61188   0.00000  Uiso   1.00
H311   H     0.37398   0.13123   0.80028   0.00000  Uiso   1.00
H312   H     0.27214   0.07069   0.47736   0.00000  Uiso   1.00
H313   H     0.63022   0.93346   0.60072   0.00000  Uiso   1.00
O314   O     0.51652   0.02130   0.86411   0.00000  Uiso   1.00
O315   O     0.38289   0.94187   0.44046   0.00000  Uiso   1.00
O316   O     0.54071   0.76183   0.60230   0.00000  Uiso   1.00
N317   N     0.43957   0.91521   0.80358   0.00000  Uiso   1.00
N318   N     0.34438   0.85862   0.50168   0.00000  Uiso   1.00
N319   N     0.74423   0.73032   0.61700   0.00000  Uiso   1.00
N320   N     0.38083   0.06243   0.79334   0.00000  Uiso   1.00
N321   N     0.28564   0.00584   0.49144   0.00000  Uiso   1.00
N322   N     0.68549   0.87754   0.60676   0.00000  Uiso   1.00
C323   C     0.68122   0.32176   0.64168   0.00000  Uiso   1.00
C324   C     0.73805   0.38349   0.68380   0.00000  Uiso   1.00
C325   C     0.81857   0.35339   0.72491   0.00000  Uiso   1.00
C326   C     0.86029   0.42073   0.75930   0.00000  Uiso   1.00
C327   C     0.95429   0.50229   0.82569   0.00000  Uiso   1.00
C328   C     0.71184   0.36790   0.60060   0.00000  Uiso   1.00
C329   C     0.77030   0.32468   0.57175   0.00000  Uiso   1.00
C330   C     0.78994   0.37890   0.53610   0.00000  Uiso   1.00
C331   C     0.84316   0.43623   0.47329   0.00000  Uiso   1.00
C332   C     0.54644   0.33254   0.63239   0.00000  Uiso   1.00
C333   C     0.46583   0.25959   0.63026   0.00000  Uiso   1.00
C334   C     0.34621   0.28404   0.62136   0.00000  Uiso   1.00
C335   C     0.14263   0.28646   0.60791   0.00000  Uiso   1.00
C336   C     0.61213   0.49489   0.62964   0.00000  Uiso   1.00
C337   C     0.70053   0.47753   0.67725   0.00000  Uiso   1.00
C338   C     0.74213   0.54494   0.71159   0.00000  Uiso   1.00
C339   C     0.82270   0.51494   0.75275   0.00000  Uiso   1.00
C340   C     0.67431   0.46193   0.59405   0.00000  Uiso   1.00
C341   C     0.69386   0.51623   0.55843   0.00000  Uiso   1.00
C342   C     0.75235   0.47311   0.52954   0.00000  Uiso   1.00
C343   C     0.50891   0.42658   0.62585   0.00000  Uiso   1.00
C344   C     0.38940   0.45114   0.61694   0.00000  Uiso   1.00
C345   C     0.30862   0.37824   0.61480   0.00000  Uiso   1.00
H346   H     0.71043   0.24855   0.64677   0.00000  Uiso   1.00
H347   H     0.84759   0.28061   0.72996   0.00000  Uiso   1.00
H348   H     0.79931   0.25191   0.57682   0.00000  Uiso   1.00
H349   H     0.49490   0.18683   0.63532   0.00000  Uiso   1.00
H350   H     0.98315   0.35763   0.81930   0.00000  Uiso   1.00
H351   H     0.88131   0.29710   0.49639   0.00000  Uiso   1.00
H352   H     0.23939   0.15986   0.61975   0.00000  Uiso   1.00
H353   H     0.58292   0.56811   0.62454   0.00000  Uiso   1.00
H354   H     0.71308   0.61770   0.70652   0.00000  Uiso   1.00
H355   H     0.66481   0.58900   0.55338   0.00000  Uiso   1.00
H356   H     0.36039   0.52392   0.61188   0.00000  Uiso   1.00
H357   H     0.87398   0.63123   0.80028   0.00000  Uiso   1.00
H358   H     0.77214   0.57069   0.47736   0.00000  Uiso   1.00
H359   H     0.13022   0.43346   0.60072   0.00000  Uiso   1.00
O360   O     0.01652   0.52130   0.86411   0.00000  Uiso   1.00
O361   O     0.88289   0.44187   0.44046   0.00000  Uiso   1.00
O362   O     0.04071   0.26183   0.60230   0.00000  Uiso   1.00
N363   N     0.93957   0.41521   0.80358   0.00000  Uiso   1.00
N364   N     0.84438   0.35862   0.50168   0.00000  Uiso   1.00
N365   N     0.24423   0.23032   0.61700   0.00000  Uiso   1.00
N366   N     0.88083   0.56243   0.79334   0.00000  Uiso   1.00
N367   N     0.78564   0.50584   0.49144   0.00000  Uiso   1.00
N368   N     0.18549   0.37754   0.60676   0.00000  Uiso   1.00
