data_job_01681
_audit_creation_date              2018-12-19
_audit_creation_method            'Materials Studio'
_symmetry_space_group_name_H-M    'P1'
_symmetry_Int_Tables_number       1
_symmetry_cell_setting            triclinic
loop_
_symmetry_equiv_pos_as_xyz
  x,y,z
_cell_length_a                    12.6234
_cell_length_b                    16.5677
_cell_length_c                    20.7268
_cell_angle_alpha                 90.0000
_cell_angle_beta                  90.0000
_cell_angle_gamma                 90.0000
loop_
_atom_site_label
_atom_site_type_symbol
_atom_site_fract_x
_atom_site_fract_y
_atom_site_fract_z
_atom_site_U_iso_or_equiv
_atom_site_adp_type
_atom_site_occupancy
C1     C     0.75253   0.75875   0.28253   0.00000  Uiso   1.00
C2     C     0.83432   0.77627   0.33483   0.00000  Uiso   1.00
C3     C     0.92798   0.73412   0.34453   0.00000  Uiso   1.00
C4     C     0.99217   0.75952   0.39499   0.00000  Uiso   1.00
C5     C     0.12350   0.77678   0.47024   0.00000  Uiso   1.00
C6     C     0.64783   0.74515   0.31759   0.00000  Uiso   1.00
C7     C     0.58469   0.67684   0.31278   0.00000  Uiso   1.00
C8     C     0.49188   0.67605   0.34873   0.00000  Uiso   1.00
C9     C     0.33364   0.64502   0.39717   0.00000  Uiso   1.00
C10    C     0.73940   0.83711   0.24477   0.00000  Uiso   1.00
C11    C     0.75322   0.84612   0.17874   0.00000  Uiso   1.00
C12    C     0.73748   0.92275   0.15337   0.00000  Uiso   1.00
C13    C     0.72141   0.03450   0.08876   0.00000  Uiso   1.00
C14    C     0.69997   0.87882   0.35490   0.00000  Uiso   1.00
C15    C     0.80577   0.84149   0.37414   0.00000  Uiso   1.00
C16    C     0.86983   0.86696   0.42460   0.00000  Uiso   1.00
C17    C     0.96358   0.82486   0.43437   0.00000  Uiso   1.00
C18    C     0.61928   0.81036   0.35690   0.00000  Uiso   1.00
C19    C     0.52654   0.80968   0.39286   0.00000  Uiso   1.00
C20    C     0.46328   0.74138   0.38811   0.00000  Uiso   1.00
C21    C     0.71086   0.90233   0.28408   0.00000  Uiso   1.00
C22    C     0.69508   0.97896   0.25881   0.00000  Uiso   1.00
C23    C     0.70888   0.98808   0.19276   0.00000  Uiso   1.00
H24    H     0.77475   0.70797   0.25193   0.00000  Uiso   1.00
H25    H     0.95004   0.68365   0.31410   0.00000  Uiso   1.00
H26    H     0.60680   0.62638   0.28235   0.00000  Uiso   1.00
H27    H     0.77531   0.79563   0.14833   0.00000  Uiso   1.00
H28    H     0.13178   0.68542   0.40038   0.00000  Uiso   1.00
H29    H     0.40802   0.56468   0.33342   0.00000  Uiso   1.00
H30    H     0.76336   0.92158   0.05081   0.00000  Uiso   1.00
H31    H     0.67774   0.92959   0.38551   0.00000  Uiso   1.00
H32    H     0.84772   0.91743   0.45501   0.00000  Uiso   1.00
H33    H     0.50447   0.86016   0.42327   0.00000  Uiso   1.00
H34    H     0.67299   0.02941   0.28925   0.00000  Uiso   1.00
H35    H     0.04873   0.87516   0.51475   0.00000  Uiso   1.00
H36    H     0.32496   0.75442   0.44780   0.00000  Uiso   1.00
H37    H     0.68031   0.11133   0.16519   0.00000  Uiso   1.00
O38    O     0.20381   0.76827   0.50089   0.00000  Uiso   1.00
O39    O     0.25425   0.60987   0.41304   0.00000  Uiso   1.00
O40    O     0.72045   0.07812   0.04226   0.00000  Uiso   1.00
N41    N     0.08892   0.73176   0.41775   0.00000  Uiso   1.00
N42    N     0.41225   0.61886   0.35516   0.00000  Uiso   1.00
N43    N     0.74444   0.95253   0.09094   0.00000  Uiso   1.00
N44    N     0.04423   0.83386   0.47929   0.00000  Uiso   1.00
N45    N     0.36756   0.72097   0.41670   0.00000  Uiso   1.00
N46    N     0.69975   0.05463   0.15248   0.00000  Uiso   1.00
C47    C     0.25253   0.25875   0.28253   0.00000  Uiso   1.00
C48    C     0.33432   0.27627   0.33483   0.00000  Uiso   1.00
C49    C     0.42798   0.23412   0.34453   0.00000  Uiso   1.00
C50    C     0.49217   0.25952   0.39499   0.00000  Uiso   1.00
C51    C     0.62350   0.27678   0.47024   0.00000  Uiso   1.00
C52    C     0.14783   0.24515   0.31759   0.00000  Uiso   1.00
C53    C     0.08469   0.17684   0.31278   0.00000  Uiso   1.00
C54    C     0.99188   0.17605   0.34873   0.00000  Uiso   1.00
C55    C     0.83364   0.14502   0.39717   0.00000  Uiso   1.00
C56    C     0.23940   0.33711   0.24477   0.00000  Uiso   1.00
C57    C     0.25322   0.34612   0.17874   0.00000  Uiso   1.00
C58    C     0.23748   0.42275   0.15337   0.00000  Uiso   1.00
C59    C     0.22141   0.53450   0.08876   0.00000  Uiso   1.00
C60    C     0.19997   0.37882   0.35490   0.00000  Uiso   1.00
C61    C     0.30577   0.34149   0.37414   0.00000  Uiso   1.00
C62    C     0.36983   0.36696   0.42460   0.00000  Uiso   1.00
C63    C     0.46358   0.32486   0.43437   0.00000  Uiso   1.00
C64    C     0.11928   0.31036   0.35690   0.00000  Uiso   1.00
C65    C     0.02654   0.30968   0.39286   0.00000  Uiso   1.00
C66    C     0.96328   0.24138   0.38811   0.00000  Uiso   1.00
C67    C     0.21086   0.40233   0.28408   0.00000  Uiso   1.00
C68    C     0.19508   0.47896   0.25881   0.00000  Uiso   1.00
C69    C     0.20888   0.48808   0.19276   0.00000  Uiso   1.00
H70    H     0.27475   0.20797   0.25193   0.00000  Uiso   1.00
H71    H     0.45004   0.18365   0.31410   0.00000  Uiso   1.00
H72    H     0.10680   0.12638   0.28235   0.00000  Uiso   1.00
H73    H     0.27531   0.29563   0.14833   0.00000  Uiso   1.00
H74    H     0.63178   0.18542   0.40038   0.00000  Uiso   1.00
H75    H     0.90802   0.06468   0.33342   0.00000  Uiso   1.00
H76    H     0.26336   0.42158   0.05081   0.00000  Uiso   1.00
H77    H     0.17774   0.42959   0.38551   0.00000  Uiso   1.00
H78    H     0.34772   0.41743   0.45501   0.00000  Uiso   1.00
H79    H     0.00447   0.36016   0.42327   0.00000  Uiso   1.00
H80    H     0.17299   0.52941   0.28925   0.00000  Uiso   1.00
H81    H     0.54873   0.37516   0.51475   0.00000  Uiso   1.00
H82    H     0.82496   0.25442   0.44780   0.00000  Uiso   1.00
H83    H     0.18031   0.61133   0.16519   0.00000  Uiso   1.00
O84    O     0.70381   0.26827   0.50089   0.00000  Uiso   1.00
O85    O     0.75425   0.10987   0.41304   0.00000  Uiso   1.00
O86    O     0.22045   0.57812   0.04226   0.00000  Uiso   1.00
N87    N     0.58892   0.23176   0.41775   0.00000  Uiso   1.00
N88    N     0.91225   0.11886   0.35516   0.00000  Uiso   1.00
N89    N     0.24444   0.45253   0.09094   0.00000  Uiso   1.00
N90    N     0.54423   0.33386   0.47929   0.00000  Uiso   1.00
N91    N     0.86756   0.22097   0.41670   0.00000  Uiso   1.00
N92    N     0.19975   0.55463   0.15248   0.00000  Uiso   1.00
C93    C     0.24747   0.24125   0.78253   0.00000  Uiso   1.00
C94    C     0.16568   0.22373   0.83483   0.00000  Uiso   1.00
C95    C     0.07202   0.26588   0.84453   0.00000  Uiso   1.00
C96    C     0.00783   0.24048   0.89499   0.00000  Uiso   1.00
C97    C     0.87650   0.22322   0.97024   0.00000  Uiso   1.00
C98    C     0.35217   0.25485   0.81759   0.00000  Uiso   1.00
C99    C     0.41531   0.32316   0.81278   0.00000  Uiso   1.00
C100   C     0.50812   0.32395   0.84873   0.00000  Uiso   1.00
C101   C     0.66636   0.35498   0.89717   0.00000  Uiso   1.00
C102   C     0.26060   0.16289   0.74477   0.00000  Uiso   1.00
C103   C     0.24678   0.15388   0.67874   0.00000  Uiso   1.00
C104   C     0.26252   0.07725   0.65337   0.00000  Uiso   1.00
C105   C     0.27859   0.96550   0.58876   0.00000  Uiso   1.00
C106   C     0.30003   0.12118   0.85490   0.00000  Uiso   1.00
C107   C     0.19423   0.15851   0.87414   0.00000  Uiso   1.00
C108   C     0.13017   0.13304   0.92460   0.00000  Uiso   1.00
C109   C     0.03642   0.17514   0.93437   0.00000  Uiso   1.00
C110   C     0.38072   0.18964   0.85690   0.00000  Uiso   1.00
C111   C     0.47346   0.19032   0.89286   0.00000  Uiso   1.00
C112   C     0.53672   0.25862   0.88811   0.00000  Uiso   1.00
C113   C     0.28914   0.09767   0.78408   0.00000  Uiso   1.00
C114   C     0.30492   0.02104   0.75881   0.00000  Uiso   1.00
C115   C     0.29112   0.01192   0.69276   0.00000  Uiso   1.00
H116   H     0.22525   0.29203   0.75193   0.00000  Uiso   1.00
H117   H     0.04996   0.31635   0.81410   0.00000  Uiso   1.00
H118   H     0.39320   0.37362   0.78235   0.00000  Uiso   1.00
H119   H     0.22469   0.20437   0.64833   0.00000  Uiso   1.00
H120   H     0.86822   0.31458   0.90038   0.00000  Uiso   1.00
H121   H     0.59198   0.43532   0.83342   0.00000  Uiso   1.00
H122   H     0.23664   0.07842   0.55081   0.00000  Uiso   1.00
H123   H     0.32226   0.07041   0.88551   0.00000  Uiso   1.00
H124   H     0.15228   0.08257   0.95501   0.00000  Uiso   1.00
H125   H     0.49553   0.13984   0.92327   0.00000  Uiso   1.00
H126   H     0.32701   0.97059   0.78925   0.00000  Uiso   1.00
H127   H     0.95127   0.12484   0.01475   0.00000  Uiso   1.00
H128   H     0.67504   0.24558   0.94780   0.00000  Uiso   1.00
H129   H     0.31969   0.88867   0.66519   0.00000  Uiso   1.00
O130   O     0.79619   0.23173   0.00089   0.00000  Uiso   1.00
O131   O     0.74575   0.39013   0.91304   0.00000  Uiso   1.00
O132   O     0.27955   0.92188   0.54226   0.00000  Uiso   1.00
N133   N     0.91108   0.26824   0.91775   0.00000  Uiso   1.00
N134   N     0.58775   0.38114   0.85516   0.00000  Uiso   1.00
N135   N     0.25556   0.04747   0.59094   0.00000  Uiso   1.00
N136   N     0.95577   0.16614   0.97929   0.00000  Uiso   1.00
N137   N     0.63244   0.27903   0.91670   0.00000  Uiso   1.00
N138   N     0.30025   0.94537   0.65248   0.00000  Uiso   1.00
C139   C     0.74747   0.74125   0.78253   0.00000  Uiso   1.00
C140   C     0.66568   0.72373   0.83483   0.00000  Uiso   1.00
C141   C     0.57202   0.76588   0.84453   0.00000  Uiso   1.00
C142   C     0.50783   0.74048   0.89499   0.00000  Uiso   1.00
C143   C     0.37650   0.72322   0.97024   0.00000  Uiso   1.00
C144   C     0.85217   0.75485   0.81759   0.00000  Uiso   1.00
C145   C     0.91531   0.82316   0.81278   0.00000  Uiso   1.00
C146   C     0.00812   0.82395   0.84873   0.00000  Uiso   1.00
C147   C     0.16636   0.85498   0.89717   0.00000  Uiso   1.00
C148   C     0.76060   0.66289   0.74477   0.00000  Uiso   1.00
C149   C     0.74678   0.65388   0.67874   0.00000  Uiso   1.00
C150   C     0.76252   0.57725   0.65337   0.00000  Uiso   1.00
C151   C     0.77859   0.46550   0.58876   0.00000  Uiso   1.00
C152   C     0.80003   0.62118   0.85490   0.00000  Uiso   1.00
C153   C     0.69423   0.65851   0.87414   0.00000  Uiso   1.00
C154   C     0.63017   0.63304   0.92460   0.00000  Uiso   1.00
C155   C     0.53642   0.67514   0.93437   0.00000  Uiso   1.00
C156   C     0.88072   0.68964   0.85690   0.00000  Uiso   1.00
C157   C     0.97346   0.69032   0.89286   0.00000  Uiso   1.00
C158   C     0.03672   0.75862   0.88811   0.00000  Uiso   1.00
C159   C     0.78914   0.59767   0.78408   0.00000  Uiso   1.00
C160   C     0.80492   0.52104   0.75881   0.00000  Uiso   1.00
C161   C     0.79112   0.51192   0.69276   0.00000  Uiso   1.00
H162   H     0.72525   0.79203   0.75193   0.00000  Uiso   1.00
H163   H     0.54996   0.81635   0.81410   0.00000  Uiso   1.00
H164   H     0.89320   0.87362   0.78235   0.00000  Uiso   1.00
H165   H     0.72469   0.70437   0.64833   0.00000  Uiso   1.00
H166   H     0.36822   0.81458   0.90038   0.00000  Uiso   1.00
H167   H     0.09198   0.93532   0.83342   0.00000  Uiso   1.00
H168   H     0.73664   0.57842   0.55081   0.00000  Uiso   1.00
H169   H     0.82226   0.57041   0.88551   0.00000  Uiso   1.00
H170   H     0.65228   0.58257   0.95501   0.00000  Uiso   1.00
H171   H     0.99553   0.63984   0.92327   0.00000  Uiso   1.00
H172   H     0.82701   0.47059   0.78925   0.00000  Uiso   1.00
H173   H     0.45127   0.62484   0.01475   0.00000  Uiso   1.00
H174   H     0.17504   0.74558   0.94780   0.00000  Uiso   1.00
H175   H     0.81969   0.38867   0.66519   0.00000  Uiso   1.00
O176   O     0.29619   0.73173   0.00089   0.00000  Uiso   1.00
O177   O     0.24575   0.89013   0.91304   0.00000  Uiso   1.00
O178   O     0.77955   0.42188   0.54226   0.00000  Uiso   1.00
N179   N     0.41108   0.76824   0.91775   0.00000  Uiso   1.00
N180   N     0.08775   0.88114   0.85516   0.00000  Uiso   1.00
N181   N     0.75556   0.54747   0.59094   0.00000  Uiso   1.00
N182   N     0.45577   0.66614   0.97929   0.00000  Uiso   1.00
N183   N     0.13244   0.77903   0.91670   0.00000  Uiso   1.00
N184   N     0.80025   0.44537   0.65248   0.00000  Uiso   1.00
C185   C     0.24747   0.75875   0.21747   0.00000  Uiso   1.00
C186   C     0.16568   0.77627   0.16517   0.00000  Uiso   1.00
C187   C     0.07202   0.73412   0.15547   0.00000  Uiso   1.00
C188   C     0.00783   0.75952   0.10501   0.00000  Uiso   1.00
C189   C     0.87650   0.77678   0.02976   0.00000  Uiso   1.00
C190   C     0.35217   0.74515   0.18241   0.00000  Uiso   1.00
C191   C     0.41531   0.67684   0.18722   0.00000  Uiso   1.00
C192   C     0.50812   0.67605   0.15127   0.00000  Uiso   1.00
C193   C     0.66636   0.64502   0.10283   0.00000  Uiso   1.00
C194   C     0.26060   0.83711   0.25523   0.00000  Uiso   1.00
C195   C     0.24678   0.84612   0.32126   0.00000  Uiso   1.00
C196   C     0.26252   0.92275   0.34663   0.00000  Uiso   1.00
C197   C     0.27859   0.03450   0.41124   0.00000  Uiso   1.00
C198   C     0.30003   0.87882   0.14510   0.00000  Uiso   1.00
C199   C     0.19423   0.84149   0.12586   0.00000  Uiso   1.00
C200   C     0.13017   0.86696   0.07540   0.00000  Uiso   1.00
C201   C     0.03642   0.82486   0.06563   0.00000  Uiso   1.00
C202   C     0.38072   0.81036   0.14310   0.00000  Uiso   1.00
C203   C     0.47346   0.80968   0.10714   0.00000  Uiso   1.00
C204   C     0.53672   0.74138   0.11189   0.00000  Uiso   1.00
C205   C     0.28914   0.90233   0.21592   0.00000  Uiso   1.00
C206   C     0.30492   0.97896   0.24119   0.00000  Uiso   1.00
C207   C     0.29112   0.98808   0.30724   0.00000  Uiso   1.00
H208   H     0.22525   0.70797   0.24807   0.00000  Uiso   1.00
H209   H     0.04996   0.68365   0.18590   0.00000  Uiso   1.00
H210   H     0.39320   0.62638   0.21765   0.00000  Uiso   1.00
H211   H     0.22469   0.79563   0.35167   0.00000  Uiso   1.00
H212   H     0.86822   0.68542   0.09962   0.00000  Uiso   1.00
H213   H     0.59198   0.56468   0.16658   0.00000  Uiso   1.00
H214   H     0.23664   0.92158   0.44919   0.00000  Uiso   1.00
H215   H     0.32226   0.92959   0.11449   0.00000  Uiso   1.00
H216   H     0.15228   0.91743   0.04499   0.00000  Uiso   1.00
H217   H     0.49553   0.86016   0.07673   0.00000  Uiso   1.00
H218   H     0.32701   0.02941   0.21075   0.00000  Uiso   1.00
H219   H     0.95127   0.87516   0.98525   0.00000  Uiso   1.00
H220   H     0.67504   0.75442   0.05220   0.00000  Uiso   1.00
H221   H     0.31969   0.11133   0.33481   0.00000  Uiso   1.00
O222   O     0.79619   0.76827   0.99911   0.00000  Uiso   1.00
O223   O     0.74575   0.60987   0.08696   0.00000  Uiso   1.00
O224   O     0.27955   0.07812   0.45774   0.00000  Uiso   1.00
N225   N     0.91108   0.73176   0.08225   0.00000  Uiso   1.00
N226   N     0.58775   0.61886   0.14484   0.00000  Uiso   1.00
N227   N     0.25556   0.95253   0.40906   0.00000  Uiso   1.00
N228   N     0.95577   0.83386   0.02071   0.00000  Uiso   1.00
N229   N     0.63244   0.72097   0.08330   0.00000  Uiso   1.00
N230   N     0.30025   0.05463   0.34752   0.00000  Uiso   1.00
C231   C     0.74747   0.25875   0.21747   0.00000  Uiso   1.00
C232   C     0.66568   0.27627   0.16517   0.00000  Uiso   1.00
C233   C     0.57202   0.23412   0.15547   0.00000  Uiso   1.00
C234   C     0.50783   0.25952   0.10501   0.00000  Uiso   1.00
C235   C     0.37650   0.27678   0.02976   0.00000  Uiso   1.00
C236   C     0.85217   0.24515   0.18241   0.00000  Uiso   1.00
C237   C     0.91531   0.17684   0.18722   0.00000  Uiso   1.00
C238   C     0.00812   0.17605   0.15127   0.00000  Uiso   1.00
C239   C     0.16636   0.14502   0.10283   0.00000  Uiso   1.00
C240   C     0.76060   0.33711   0.25523   0.00000  Uiso   1.00
C241   C     0.74678   0.34612   0.32126   0.00000  Uiso   1.00
C242   C     0.76252   0.42275   0.34663   0.00000  Uiso   1.00
C243   C     0.77859   0.53450   0.41124   0.00000  Uiso   1.00
C244   C     0.80003   0.37882   0.14510   0.00000  Uiso   1.00
C245   C     0.69423   0.34149   0.12586   0.00000  Uiso   1.00
C246   C     0.63017   0.36696   0.07540   0.00000  Uiso   1.00
C247   C     0.53642   0.32486   0.06563   0.00000  Uiso   1.00
C248   C     0.88072   0.31036   0.14310   0.00000  Uiso   1.00
C249   C     0.97346   0.30968   0.10714   0.00000  Uiso   1.00
C250   C     0.03672   0.24138   0.11189   0.00000  Uiso   1.00
C251   C     0.78914   0.40233   0.21592   0.00000  Uiso   1.00
C252   C     0.80492   0.47896   0.24119   0.00000  Uiso   1.00
C253   C     0.79112   0.48808   0.30724   0.00000  Uiso   1.00
H254   H     0.72525   0.20797   0.24807   0.00000  Uiso   1.00
H255   H     0.54996   0.18365   0.18590   0.00000  Uiso   1.00
H256   H     0.89320   0.12638   0.21765   0.00000  Uiso   1.00
H257   H     0.72469   0.29563   0.35167   0.00000  Uiso   1.00
H258   H     0.36822   0.18542   0.09962   0.00000  Uiso   1.00
H259   H     0.09198   0.06468   0.16658   0.00000  Uiso   1.00
H260   H     0.73664   0.42158   0.44919   0.00000  Uiso   1.00
H261   H     0.82226   0.42959   0.11449   0.00000  Uiso   1.00
H262   H     0.65228   0.41743   0.04499   0.00000  Uiso   1.00
H263   H     0.99553   0.36016   0.07673   0.00000  Uiso   1.00
H264   H     0.82701   0.52941   0.21075   0.00000  Uiso   1.00
H265   H     0.45127   0.37516   0.98525   0.00000  Uiso   1.00
H266   H     0.17504   0.25442   0.05220   0.00000  Uiso   1.00
H267   H     0.81969   0.61133   0.33481   0.00000  Uiso   1.00
O268   O     0.29619   0.26827   0.99911   0.00000  Uiso   1.00
O269   O     0.24575   0.10987   0.08696   0.00000  Uiso   1.00
O270   O     0.77955   0.57812   0.45774   0.00000  Uiso   1.00
N271   N     0.41108   0.23176   0.08225   0.00000  Uiso   1.00
N272   N     0.08775   0.11886   0.14484   0.00000  Uiso   1.00
N273   N     0.75556   0.45253   0.40906   0.00000  Uiso   1.00
N274   N     0.45577   0.33386   0.02071   0.00000  Uiso   1.00
N275   N     0.13244   0.22097   0.08330   0.00000  Uiso   1.00
N276   N     0.80025   0.55463   0.34752   0.00000  Uiso   1.00
C277   C     0.75253   0.24125   0.71747   0.00000  Uiso   1.00
C278   C     0.83432   0.22373   0.66517   0.00000  Uiso   1.00
C279   C     0.92798   0.26588   0.65547   0.00000  Uiso   1.00
C280   C     0.99217   0.24048   0.60501   0.00000  Uiso   1.00
C281   C     0.12350   0.22322   0.52976   0.00000  Uiso   1.00
C282   C     0.64783   0.25485   0.68241   0.00000  Uiso   1.00
C283   C     0.58469   0.32316   0.68722   0.00000  Uiso   1.00
C284   C     0.49188   0.32395   0.65127   0.00000  Uiso   1.00
C285   C     0.33364   0.35498   0.60283   0.00000  Uiso   1.00
C286   C     0.73940   0.16289   0.75523   0.00000  Uiso   1.00
C287   C     0.75322   0.15388   0.82126   0.00000  Uiso   1.00
C288   C     0.73748   0.07725   0.84663   0.00000  Uiso   1.00
C289   C     0.72141   0.96550   0.91124   0.00000  Uiso   1.00
C290   C     0.69997   0.12118   0.64510   0.00000  Uiso   1.00
C291   C     0.80577   0.15851   0.62586   0.00000  Uiso   1.00
C292   C     0.86983   0.13304   0.57540   0.00000  Uiso   1.00
C293   C     0.96358   0.17514   0.56563   0.00000  Uiso   1.00
C294   C     0.61928   0.18964   0.64310   0.00000  Uiso   1.00
C295   C     0.52654   0.19032   0.60714   0.00000  Uiso   1.00
C296   C     0.46328   0.25862   0.61189   0.00000  Uiso   1.00
C297   C     0.71086   0.09767   0.71592   0.00000  Uiso   1.00
C298   C     0.69508   0.02104   0.74119   0.00000  Uiso   1.00
C299   C     0.70888   0.01192   0.80724   0.00000  Uiso   1.00
H300   H     0.77475   0.29203   0.74807   0.00000  Uiso   1.00
H301   H     0.95004   0.31635   0.68590   0.00000  Uiso   1.00
H302   H     0.60680   0.37362   0.71765   0.00000  Uiso   1.00
H303   H     0.77531   0.20437   0.85167   0.00000  Uiso   1.00
H304   H     0.13178   0.31458   0.59962   0.00000  Uiso   1.00
H305   H     0.40802   0.43532   0.66658   0.00000  Uiso   1.00
H306   H     0.76336   0.07842   0.94919   0.00000  Uiso   1.00
H307   H     0.67774   0.07041   0.61449   0.00000  Uiso   1.00
H308   H     0.84772   0.08257   0.54499   0.00000  Uiso   1.00
H309   H     0.50447   0.13984   0.57673   0.00000  Uiso   1.00
H310   H     0.67299   0.97059   0.71075   0.00000  Uiso   1.00
H311   H     0.04873   0.12484   0.48525   0.00000  Uiso   1.00
H312   H     0.32496   0.24558   0.55220   0.00000  Uiso   1.00
H313   H     0.68031   0.88867   0.83481   0.00000  Uiso   1.00
O314   O     0.20381   0.23173   0.49911   0.00000  Uiso   1.00
O315   O     0.25425   0.39013   0.58696   0.00000  Uiso   1.00
O316   O     0.72045   0.92188   0.95774   0.00000  Uiso   1.00
N317   N     0.08892   0.26824   0.58225   0.00000  Uiso   1.00
N318   N     0.41225   0.38114   0.64484   0.00000  Uiso   1.00
N319   N     0.74444   0.04747   0.90906   0.00000  Uiso   1.00
N320   N     0.04423   0.16614   0.52071   0.00000  Uiso   1.00
N321   N     0.36756   0.27903   0.58330   0.00000  Uiso   1.00
N322   N     0.69975   0.94537   0.84752   0.00000  Uiso   1.00
C323   C     0.25253   0.74125   0.71747   0.00000  Uiso   1.00
C324   C     0.33432   0.72373   0.66517   0.00000  Uiso   1.00
C325   C     0.42798   0.76588   0.65547   0.00000  Uiso   1.00
C326   C     0.49217   0.74048   0.60501   0.00000  Uiso   1.00
C327   C     0.62350   0.72322   0.52976   0.00000  Uiso   1.00
C328   C     0.14783   0.75485   0.68241   0.00000  Uiso   1.00
C329   C     0.08469   0.82316   0.68722   0.00000  Uiso   1.00
C330   C     0.99188   0.82395   0.65127   0.00000  Uiso   1.00
C331   C     0.83364   0.85498   0.60283   0.00000  Uiso   1.00
C332   C     0.23940   0.66289   0.75523   0.00000  Uiso   1.00
C333   C     0.25322   0.65388   0.82126   0.00000  Uiso   1.00
C334   C     0.23748   0.57725   0.84663   0.00000  Uiso   1.00
C335   C     0.22141   0.46550   0.91124   0.00000  Uiso   1.00
C336   C     0.19997   0.62118   0.64510   0.00000  Uiso   1.00
C337   C     0.30577   0.65851   0.62586   0.00000  Uiso   1.00
C338   C     0.36983   0.63304   0.57540   0.00000  Uiso   1.00
C339   C     0.46358   0.67514   0.56563   0.00000  Uiso   1.00
C340   C     0.11928   0.68964   0.64310   0.00000  Uiso   1.00
C341   C     0.02654   0.69032   0.60714   0.00000  Uiso   1.00
C342   C     0.96328   0.75862   0.61189   0.00000  Uiso   1.00
C343   C     0.21086   0.59767   0.71592   0.00000  Uiso   1.00
C344   C     0.19508   0.52104   0.74119   0.00000  Uiso   1.00
C345   C     0.20888   0.51192   0.80724   0.00000  Uiso   1.00
H346   H     0.27475   0.79203   0.74807   0.00000  Uiso   1.00
H347   H     0.45004   0.81635   0.68590   0.00000  Uiso   1.00
H348   H     0.10680   0.87362   0.71765   0.00000  Uiso   1.00
H349   H     0.27531   0.70437   0.85167   0.00000  Uiso   1.00
H350   H     0.63178   0.81458   0.59962   0.00000  Uiso   1.00
H351   H     0.90802   0.93532   0.66658   0.00000  Uiso   1.00
H352   H     0.26336   0.57842   0.94919   0.00000  Uiso   1.00
H353   H     0.17774   0.57041   0.61449   0.00000  Uiso   1.00
H354   H     0.34772   0.58257   0.54499   0.00000  Uiso   1.00
H355   H     0.00447   0.63984   0.57673   0.00000  Uiso   1.00
H356   H     0.17299   0.47059   0.71075   0.00000  Uiso   1.00
H357   H     0.54873   0.62484   0.48525   0.00000  Uiso   1.00
H358   H     0.82496   0.74558   0.55220   0.00000  Uiso   1.00
H359   H     0.18031   0.38867   0.83481   0.00000  Uiso   1.00
O360   O     0.70381   0.73173   0.49911   0.00000  Uiso   1.00
O361   O     0.75425   0.89013   0.58696   0.00000  Uiso   1.00
O362   O     0.22045   0.42188   0.95774   0.00000  Uiso   1.00
N363   N     0.58892   0.76824   0.58225   0.00000  Uiso   1.00
N364   N     0.91225   0.88114   0.64484   0.00000  Uiso   1.00
N365   N     0.24444   0.54747   0.90906   0.00000  Uiso   1.00
N366   N     0.54423   0.66614   0.52071   0.00000  Uiso   1.00
N367   N     0.86756   0.77903   0.58330   0.00000  Uiso   1.00
N368   N     0.19975   0.44537   0.84752   0.00000  Uiso   1.00
