data_job_02045
_audit_creation_date              2018-12-19
_audit_creation_method            'Materials Studio'
_symmetry_space_group_name_H-M    'P1'
_symmetry_Int_Tables_number       1
_symmetry_cell_setting            triclinic
loop_
_symmetry_equiv_pos_as_xyz
  x,y,z
_cell_length_a                    12.4760
_cell_length_b                    22.6726
_cell_length_c                    21.8620
_cell_angle_alpha                 90.0000
_cell_angle_beta                  79.0048
_cell_angle_gamma                 90.0000
loop_
_atom_site_label
_atom_site_type_symbol
_atom_site_fract_x
_atom_site_fract_y
_atom_site_fract_z
_atom_site_U_iso_or_equiv
_atom_site_adp_type
_atom_site_occupancy
C1     C     0.35170   0.10170   0.33589   0.00000  Uiso   1.00
C2     C     0.23749   0.07802   0.36135   0.00000  Uiso   1.00
C3     C     0.18390   0.03479   0.33375   0.00000  Uiso   1.00
C4     C     0.07979   0.01924   0.36437   0.00000  Uiso   1.00
C5     C     0.90984   0.97844   0.39533   0.00000  Uiso   1.00
C6     C     0.33922   0.16823   0.32979   0.00000  Uiso   1.00
C7     C     0.37117   0.20084   0.27566   0.00000  Uiso   1.00
C8     C     0.35270   0.26123   0.27971   0.00000  Uiso   1.00
C9     C     0.34076   0.36047   0.26170   0.00000  Uiso   1.00
C10    C     0.41699   0.09260   0.38742   0.00000  Uiso   1.00
C11    C     0.51434   0.06164   0.38174   0.00000  Uiso   1.00
C12    C     0.56137   0.05836   0.43431   0.00000  Uiso   1.00
C13    C     0.67018   0.04018   0.50578   0.00000  Uiso   1.00
C14    C     0.26212   0.15096   0.43934   0.00000  Uiso   1.00
C15    C     0.18884   0.10479   0.41754   0.00000  Uiso   1.00
C16    C     0.08479   0.08930   0.44821   0.00000  Uiso   1.00
C17    C     0.03105   0.04605   0.42066   0.00000  Uiso   1.00
C18    C     0.29056   0.19499   0.38598   0.00000  Uiso   1.00
C19    C     0.27206   0.25534   0.39012   0.00000  Uiso   1.00
C20    C     0.30396   0.28804   0.33600   0.00000  Uiso   1.00
C21    C     0.36833   0.11936   0.44362   0.00000  Uiso   1.00
C22    C     0.41523   0.11614   0.49620   0.00000  Uiso   1.00
C23    C     0.51263   0.08517   0.49061   0.00000  Uiso   1.00
H24    H     0.38958   0.08087   0.29214   0.00000  Uiso   1.00
H25    H     0.22157   0.01410   0.29026   0.00000  Uiso   1.00
H26    H     0.40883   0.18012   0.23218   0.00000  Uiso   1.00
H27    H     0.55197   0.04094   0.33825   0.00000  Uiso   1.00
H28    H     0.01384   0.95189   0.31294   0.00000  Uiso   1.00
H29    H     0.40870   0.30195   0.19049   0.00000  Uiso   1.00
H30    H     0.71056   0.00846   0.41415   0.00000  Uiso   1.00
H31    H     0.22424   0.17180   0.48309   0.00000  Uiso   1.00
H32    H     0.04716   0.11001   0.49169   0.00000  Uiso   1.00
H33    H     0.23441   0.27604   0.43361   0.00000  Uiso   1.00
H34    H     0.37755   0.13685   0.53968   0.00000  Uiso   1.00
H35    H     0.87227   0.02974   0.47643   0.00000  Uiso   1.00
H36    H     0.26714   0.37981   0.35397   0.00000  Uiso   1.00
H37    H     0.56899   0.08631   0.57764   0.00000  Uiso   1.00
O38    O     0.82953   0.94854   0.39689   0.00000  Uiso   1.00
O39    O     0.34760   0.40782   0.23623   0.00000  Uiso   1.00
O40    O     0.74362   0.02276   0.52967   0.00000  Uiso   1.00
N41    N     0.00483   0.97868   0.35025   0.00000  Uiso   1.00
N42    N     0.37399   0.30597   0.23575   0.00000  Uiso   1.00
N43    N     0.65621   0.03159   0.44486   0.00000  Uiso   1.00
N44    N     0.92865   0.02057   0.43822   0.00000  Uiso   1.00
N45    N     0.29781   0.34786   0.32373   0.00000  Uiso   1.00
N46    N     0.58004   0.07348   0.53283   0.00000  Uiso   1.00
C47    C     0.85170   0.60170   0.33589   0.00000  Uiso   1.00
C48    C     0.73749   0.57802   0.36135   0.00000  Uiso   1.00
C49    C     0.68390   0.53479   0.33375   0.00000  Uiso   1.00
C50    C     0.57979   0.51924   0.36437   0.00000  Uiso   1.00
C51    C     0.40984   0.47844   0.39533   0.00000  Uiso   1.00
C52    C     0.83922   0.66823   0.32979   0.00000  Uiso   1.00
C53    C     0.87117   0.70084   0.27566   0.00000  Uiso   1.00
C54    C     0.85270   0.76123   0.27971   0.00000  Uiso   1.00
C55    C     0.84076   0.86047   0.26170   0.00000  Uiso   1.00
C56    C     0.91699   0.59260   0.38742   0.00000  Uiso   1.00
C57    C     0.01434   0.56164   0.38174   0.00000  Uiso   1.00
C58    C     0.06137   0.55836   0.43431   0.00000  Uiso   1.00
C59    C     0.17018   0.54018   0.50578   0.00000  Uiso   1.00
C60    C     0.76212   0.65096   0.43934   0.00000  Uiso   1.00
C61    C     0.68884   0.60479   0.41754   0.00000  Uiso   1.00
C62    C     0.58479   0.58930   0.44821   0.00000  Uiso   1.00
C63    C     0.53105   0.54605   0.42066   0.00000  Uiso   1.00
C64    C     0.79056   0.69499   0.38598   0.00000  Uiso   1.00
C65    C     0.77206   0.75534   0.39012   0.00000  Uiso   1.00
C66    C     0.80396   0.78804   0.33600   0.00000  Uiso   1.00
C67    C     0.86833   0.61936   0.44362   0.00000  Uiso   1.00
C68    C     0.91523   0.61614   0.49620   0.00000  Uiso   1.00
C69    C     0.01263   0.58517   0.49061   0.00000  Uiso   1.00
H70    H     0.88958   0.58087   0.29214   0.00000  Uiso   1.00
H71    H     0.72157   0.51410   0.29026   0.00000  Uiso   1.00
H72    H     0.90883   0.68012   0.23218   0.00000  Uiso   1.00
H73    H     0.05197   0.54094   0.33825   0.00000  Uiso   1.00
H74    H     0.51384   0.45189   0.31294   0.00000  Uiso   1.00
H75    H     0.90870   0.80195   0.19049   0.00000  Uiso   1.00
H76    H     0.21056   0.50846   0.41415   0.00000  Uiso   1.00
H77    H     0.72424   0.67180   0.48309   0.00000  Uiso   1.00
H78    H     0.54716   0.61001   0.49169   0.00000  Uiso   1.00
H79    H     0.73441   0.77604   0.43361   0.00000  Uiso   1.00
H80    H     0.87755   0.63685   0.53968   0.00000  Uiso   1.00
H81    H     0.37227   0.52974   0.47643   0.00000  Uiso   1.00
H82    H     0.76714   0.87981   0.35397   0.00000  Uiso   1.00
H83    H     0.06899   0.58631   0.57764   0.00000  Uiso   1.00
O84    O     0.32953   0.44854   0.39689   0.00000  Uiso   1.00
O85    O     0.84760   0.90782   0.23623   0.00000  Uiso   1.00
O86    O     0.24362   0.52276   0.52967   0.00000  Uiso   1.00
N87    N     0.50483   0.47868   0.35025   0.00000  Uiso   1.00
N88    N     0.87399   0.80597   0.23575   0.00000  Uiso   1.00
N89    N     0.15621   0.53159   0.44486   0.00000  Uiso   1.00
N90    N     0.42865   0.52057   0.43822   0.00000  Uiso   1.00
N91    N     0.79781   0.84786   0.32373   0.00000  Uiso   1.00
N92    N     0.08004   0.57348   0.53283   0.00000  Uiso   1.00
C93    C     0.64830   0.10170   0.16411   0.00000  Uiso   1.00
C94    C     0.76251   0.07802   0.13865   0.00000  Uiso   1.00
C95    C     0.81610   0.03479   0.16625   0.00000  Uiso   1.00
C96    C     0.92021   0.01924   0.13563   0.00000  Uiso   1.00
C97    C     0.09016   0.97844   0.10467   0.00000  Uiso   1.00
C98    C     0.66078   0.16823   0.17021   0.00000  Uiso   1.00
C99    C     0.62883   0.20084   0.22434   0.00000  Uiso   1.00
C100   C     0.64730   0.26123   0.22029   0.00000  Uiso   1.00
C101   C     0.65924   0.36047   0.23830   0.00000  Uiso   1.00
C102   C     0.58301   0.09260   0.11258   0.00000  Uiso   1.00
C103   C     0.48566   0.06164   0.11826   0.00000  Uiso   1.00
C104   C     0.43863   0.05836   0.06569   0.00000  Uiso   1.00
C105   C     0.32982   0.04018   0.99422   0.00000  Uiso   1.00
C106   C     0.73788   0.15096   0.06066   0.00000  Uiso   1.00
C107   C     0.81116   0.10479   0.08246   0.00000  Uiso   1.00
C108   C     0.91521   0.08930   0.05179   0.00000  Uiso   1.00
C109   C     0.96895   0.04605   0.07934   0.00000  Uiso   1.00
C110   C     0.70944   0.19499   0.11402   0.00000  Uiso   1.00
C111   C     0.72794   0.25534   0.10988   0.00000  Uiso   1.00
C112   C     0.69604   0.28804   0.16400   0.00000  Uiso   1.00
C113   C     0.63167   0.11936   0.05638   0.00000  Uiso   1.00
C114   C     0.58477   0.11614   0.00380   0.00000  Uiso   1.00
C115   C     0.48737   0.08517   0.00939   0.00000  Uiso   1.00
H116   H     0.61042   0.08087   0.20786   0.00000  Uiso   1.00
H117   H     0.77843   0.01410   0.20974   0.00000  Uiso   1.00
H118   H     0.59117   0.18012   0.26782   0.00000  Uiso   1.00
H119   H     0.44803   0.04094   0.16175   0.00000  Uiso   1.00
H120   H     0.98616   0.95189   0.18706   0.00000  Uiso   1.00
H121   H     0.59130   0.30195   0.30951   0.00000  Uiso   1.00
H122   H     0.28944   0.00846   0.08585   0.00000  Uiso   1.00
H123   H     0.77576   0.17180   0.01691   0.00000  Uiso   1.00
H124   H     0.95284   0.11001   0.00831   0.00000  Uiso   1.00
H125   H     0.76559   0.27604   0.06639   0.00000  Uiso   1.00
H126   H     0.62245   0.13685   0.96032   0.00000  Uiso   1.00
H127   H     0.12773   0.02974   0.02357   0.00000  Uiso   1.00
H128   H     0.73286   0.37981   0.14603   0.00000  Uiso   1.00
H129   H     0.43101   0.08631   0.92236   0.00000  Uiso   1.00
O130   O     0.17047   0.94854   0.10311   0.00000  Uiso   1.00
O131   O     0.65240   0.40782   0.26377   0.00000  Uiso   1.00
O132   O     0.25638   0.02276   0.97033   0.00000  Uiso   1.00
N133   N     0.99517   0.97868   0.14975   0.00000  Uiso   1.00
N134   N     0.62601   0.30597   0.26425   0.00000  Uiso   1.00
N135   N     0.34379   0.03159   0.05514   0.00000  Uiso   1.00
N136   N     0.07135   0.02057   0.06178   0.00000  Uiso   1.00
N137   N     0.70219   0.34786   0.17627   0.00000  Uiso   1.00
N138   N     0.41996   0.07348   0.96717   0.00000  Uiso   1.00
C139   C     0.14830   0.60170   0.16411   0.00000  Uiso   1.00
C140   C     0.26251   0.57802   0.13865   0.00000  Uiso   1.00
C141   C     0.31610   0.53479   0.16625   0.00000  Uiso   1.00
C142   C     0.42021   0.51924   0.13563   0.00000  Uiso   1.00
C143   C     0.59016   0.47844   0.10467   0.00000  Uiso   1.00
C144   C     0.16078   0.66823   0.17021   0.00000  Uiso   1.00
C145   C     0.12883   0.70084   0.22434   0.00000  Uiso   1.00
C146   C     0.14730   0.76123   0.22029   0.00000  Uiso   1.00
C147   C     0.15924   0.86047   0.23830   0.00000  Uiso   1.00
C148   C     0.08301   0.59260   0.11258   0.00000  Uiso   1.00
C149   C     0.98566   0.56164   0.11826   0.00000  Uiso   1.00
C150   C     0.93863   0.55836   0.06569   0.00000  Uiso   1.00
C151   C     0.82982   0.54018   0.99422   0.00000  Uiso   1.00
C152   C     0.23788   0.65096   0.06066   0.00000  Uiso   1.00
C153   C     0.31116   0.60479   0.08246   0.00000  Uiso   1.00
C154   C     0.41521   0.58930   0.05179   0.00000  Uiso   1.00
C155   C     0.46895   0.54605   0.07934   0.00000  Uiso   1.00
C156   C     0.20944   0.69499   0.11402   0.00000  Uiso   1.00
C157   C     0.22794   0.75534   0.10988   0.00000  Uiso   1.00
C158   C     0.19604   0.78804   0.16400   0.00000  Uiso   1.00
C159   C     0.13167   0.61936   0.05638   0.00000  Uiso   1.00
C160   C     0.08477   0.61614   0.00380   0.00000  Uiso   1.00
C161   C     0.98737   0.58517   0.00939   0.00000  Uiso   1.00
H162   H     0.11042   0.58087   0.20786   0.00000  Uiso   1.00
H163   H     0.27843   0.51410   0.20974   0.00000  Uiso   1.00
H164   H     0.09117   0.68012   0.26782   0.00000  Uiso   1.00
H165   H     0.94803   0.54094   0.16175   0.00000  Uiso   1.00
H166   H     0.48616   0.45189   0.18706   0.00000  Uiso   1.00
H167   H     0.09130   0.80195   0.30951   0.00000  Uiso   1.00
H168   H     0.78944   0.50846   0.08585   0.00000  Uiso   1.00
H169   H     0.27576   0.67180   0.01691   0.00000  Uiso   1.00
H170   H     0.45284   0.61001   0.00831   0.00000  Uiso   1.00
H171   H     0.26559   0.77604   0.06639   0.00000  Uiso   1.00
H172   H     0.12245   0.63685   0.96032   0.00000  Uiso   1.00
H173   H     0.62773   0.52974   0.02357   0.00000  Uiso   1.00
H174   H     0.23286   0.87981   0.14603   0.00000  Uiso   1.00
H175   H     0.93101   0.58631   0.92236   0.00000  Uiso   1.00
O176   O     0.67047   0.44854   0.10311   0.00000  Uiso   1.00
O177   O     0.15240   0.90782   0.26377   0.00000  Uiso   1.00
O178   O     0.75638   0.52276   0.97033   0.00000  Uiso   1.00
N179   N     0.49517   0.47868   0.14975   0.00000  Uiso   1.00
N180   N     0.12601   0.80597   0.26425   0.00000  Uiso   1.00
N181   N     0.84379   0.53159   0.05514   0.00000  Uiso   1.00
N182   N     0.57135   0.52057   0.06178   0.00000  Uiso   1.00
N183   N     0.20219   0.84786   0.17627   0.00000  Uiso   1.00
N184   N     0.91996   0.57348   0.96717   0.00000  Uiso   1.00
C185   C     0.64830   0.89830   0.66411   0.00000  Uiso   1.00
C186   C     0.76251   0.92198   0.63865   0.00000  Uiso   1.00
C187   C     0.81610   0.96521   0.66625   0.00000  Uiso   1.00
C188   C     0.92021   0.98076   0.63563   0.00000  Uiso   1.00
C189   C     0.09016   0.02156   0.60467   0.00000  Uiso   1.00
C190   C     0.66078   0.83177   0.67021   0.00000  Uiso   1.00
C191   C     0.62883   0.79916   0.72434   0.00000  Uiso   1.00
C192   C     0.64730   0.73877   0.72029   0.00000  Uiso   1.00
C193   C     0.65924   0.63953   0.73830   0.00000  Uiso   1.00
C194   C     0.58301   0.90740   0.61258   0.00000  Uiso   1.00
C195   C     0.48566   0.93836   0.61826   0.00000  Uiso   1.00
C196   C     0.43863   0.94164   0.56569   0.00000  Uiso   1.00
C197   C     0.32982   0.95982   0.49422   0.00000  Uiso   1.00
C198   C     0.73788   0.84904   0.56066   0.00000  Uiso   1.00
C199   C     0.81116   0.89521   0.58246   0.00000  Uiso   1.00
C200   C     0.91521   0.91070   0.55179   0.00000  Uiso   1.00
C201   C     0.96895   0.95395   0.57934   0.00000  Uiso   1.00
C202   C     0.70944   0.80501   0.61402   0.00000  Uiso   1.00
C203   C     0.72794   0.74466   0.60988   0.00000  Uiso   1.00
C204   C     0.69604   0.71196   0.66400   0.00000  Uiso   1.00
C205   C     0.63167   0.88064   0.55638   0.00000  Uiso   1.00
C206   C     0.58477   0.88386   0.50380   0.00000  Uiso   1.00
C207   C     0.48737   0.91483   0.50939   0.00000  Uiso   1.00
H208   H     0.61042   0.91913   0.70786   0.00000  Uiso   1.00
H209   H     0.77843   0.98590   0.70974   0.00000  Uiso   1.00
H210   H     0.59117   0.81988   0.76782   0.00000  Uiso   1.00
H211   H     0.44803   0.95906   0.66175   0.00000  Uiso   1.00
H212   H     0.98616   0.04811   0.68706   0.00000  Uiso   1.00
H213   H     0.59130   0.69805   0.80951   0.00000  Uiso   1.00
H214   H     0.28944   0.99154   0.58585   0.00000  Uiso   1.00
H215   H     0.77576   0.82820   0.51691   0.00000  Uiso   1.00
H216   H     0.95284   0.88999   0.50831   0.00000  Uiso   1.00
H217   H     0.76559   0.72396   0.56639   0.00000  Uiso   1.00
H218   H     0.62245   0.86315   0.46032   0.00000  Uiso   1.00
H219   H     0.12773   0.97026   0.52357   0.00000  Uiso   1.00
H220   H     0.73286   0.62019   0.64603   0.00000  Uiso   1.00
H221   H     0.43101   0.91369   0.42236   0.00000  Uiso   1.00
O222   O     0.17047   0.05146   0.60311   0.00000  Uiso   1.00
O223   O     0.65240   0.59218   0.76377   0.00000  Uiso   1.00
O224   O     0.25638   0.97724   0.47033   0.00000  Uiso   1.00
N225   N     0.99517   0.02132   0.64975   0.00000  Uiso   1.00
N226   N     0.62601   0.69403   0.76425   0.00000  Uiso   1.00
N227   N     0.34379   0.96841   0.55514   0.00000  Uiso   1.00
N228   N     0.07135   0.97943   0.56178   0.00000  Uiso   1.00
N229   N     0.70219   0.65214   0.67627   0.00000  Uiso   1.00
N230   N     0.41996   0.92652   0.46717   0.00000  Uiso   1.00
C231   C     0.14830   0.39830   0.66411   0.00000  Uiso   1.00
C232   C     0.26251   0.42198   0.63865   0.00000  Uiso   1.00
C233   C     0.31610   0.46521   0.66625   0.00000  Uiso   1.00
C234   C     0.42021   0.48076   0.63563   0.00000  Uiso   1.00
C235   C     0.59016   0.52156   0.60467   0.00000  Uiso   1.00
C236   C     0.16078   0.33177   0.67021   0.00000  Uiso   1.00
C237   C     0.12883   0.29916   0.72434   0.00000  Uiso   1.00
C238   C     0.14730   0.23877   0.72029   0.00000  Uiso   1.00
C239   C     0.15924   0.13953   0.73830   0.00000  Uiso   1.00
C240   C     0.08301   0.40740   0.61258   0.00000  Uiso   1.00
C241   C     0.98566   0.43836   0.61826   0.00000  Uiso   1.00
C242   C     0.93863   0.44164   0.56569   0.00000  Uiso   1.00
C243   C     0.82982   0.45982   0.49422   0.00000  Uiso   1.00
C244   C     0.23788   0.34904   0.56066   0.00000  Uiso   1.00
C245   C     0.31116   0.39521   0.58246   0.00000  Uiso   1.00
C246   C     0.41521   0.41070   0.55179   0.00000  Uiso   1.00
C247   C     0.46895   0.45395   0.57934   0.00000  Uiso   1.00
C248   C     0.20944   0.30501   0.61402   0.00000  Uiso   1.00
C249   C     0.22794   0.24466   0.60988   0.00000  Uiso   1.00
C250   C     0.19604   0.21196   0.66400   0.00000  Uiso   1.00
C251   C     0.13167   0.38064   0.55638   0.00000  Uiso   1.00
C252   C     0.08477   0.38386   0.50380   0.00000  Uiso   1.00
C253   C     0.98737   0.41483   0.50939   0.00000  Uiso   1.00
H254   H     0.11042   0.41913   0.70786   0.00000  Uiso   1.00
H255   H     0.27843   0.48590   0.70974   0.00000  Uiso   1.00
H256   H     0.09117   0.31988   0.76782   0.00000  Uiso   1.00
H257   H     0.94803   0.45906   0.66175   0.00000  Uiso   1.00
H258   H     0.48616   0.54811   0.68706   0.00000  Uiso   1.00
H259   H     0.09130   0.19805   0.80951   0.00000  Uiso   1.00
H260   H     0.78944   0.49154   0.58585   0.00000  Uiso   1.00
H261   H     0.27576   0.32820   0.51691   0.00000  Uiso   1.00
H262   H     0.45284   0.38999   0.50831   0.00000  Uiso   1.00
H263   H     0.26559   0.22396   0.56639   0.00000  Uiso   1.00
H264   H     0.12245   0.36315   0.46032   0.00000  Uiso   1.00
H265   H     0.62773   0.47026   0.52357   0.00000  Uiso   1.00
H266   H     0.23286   0.12019   0.64603   0.00000  Uiso   1.00
H267   H     0.93101   0.41369   0.42236   0.00000  Uiso   1.00
O268   O     0.67047   0.55146   0.60311   0.00000  Uiso   1.00
O269   O     0.15240   0.09218   0.76377   0.00000  Uiso   1.00
O270   O     0.75638   0.47724   0.47033   0.00000  Uiso   1.00
N271   N     0.49517   0.52132   0.64975   0.00000  Uiso   1.00
N272   N     0.12601   0.19403   0.76425   0.00000  Uiso   1.00
N273   N     0.84379   0.46841   0.55514   0.00000  Uiso   1.00
N274   N     0.57135   0.47943   0.56178   0.00000  Uiso   1.00
N275   N     0.20219   0.15214   0.67627   0.00000  Uiso   1.00
N276   N     0.91996   0.42652   0.46717   0.00000  Uiso   1.00
C277   C     0.35170   0.89830   0.83589   0.00000  Uiso   1.00
C278   C     0.23749   0.92198   0.86135   0.00000  Uiso   1.00
C279   C     0.18390   0.96521   0.83375   0.00000  Uiso   1.00
C280   C     0.07979   0.98076   0.86437   0.00000  Uiso   1.00
C281   C     0.90984   0.02156   0.89533   0.00000  Uiso   1.00
C282   C     0.33922   0.83177   0.82979   0.00000  Uiso   1.00
C283   C     0.37117   0.79916   0.77566   0.00000  Uiso   1.00
C284   C     0.35270   0.73877   0.77971   0.00000  Uiso   1.00
C285   C     0.34076   0.63953   0.76170   0.00000  Uiso   1.00
C286   C     0.41699   0.90740   0.88742   0.00000  Uiso   1.00
C287   C     0.51434   0.93836   0.88174   0.00000  Uiso   1.00
C288   C     0.56137   0.94164   0.93431   0.00000  Uiso   1.00
C289   C     0.67018   0.95982   0.00578   0.00000  Uiso   1.00
C290   C     0.26212   0.84904   0.93934   0.00000  Uiso   1.00
C291   C     0.18884   0.89521   0.91754   0.00000  Uiso   1.00
C292   C     0.08479   0.91070   0.94821   0.00000  Uiso   1.00
C293   C     0.03105   0.95395   0.92066   0.00000  Uiso   1.00
C294   C     0.29056   0.80501   0.88598   0.00000  Uiso   1.00
C295   C     0.27206   0.74466   0.89012   0.00000  Uiso   1.00
C296   C     0.30396   0.71196   0.83600   0.00000  Uiso   1.00
C297   C     0.36833   0.88064   0.94362   0.00000  Uiso   1.00
C298   C     0.41523   0.88386   0.99620   0.00000  Uiso   1.00
C299   C     0.51263   0.91483   0.99061   0.00000  Uiso   1.00
H300   H     0.38958   0.91913   0.79214   0.00000  Uiso   1.00
H301   H     0.22157   0.98590   0.79026   0.00000  Uiso   1.00
H302   H     0.40883   0.81988   0.73218   0.00000  Uiso   1.00
H303   H     0.55197   0.95906   0.83825   0.00000  Uiso   1.00
H304   H     0.01384   0.04811   0.81294   0.00000  Uiso   1.00
H305   H     0.40870   0.69805   0.69049   0.00000  Uiso   1.00
H306   H     0.71056   0.99154   0.91415   0.00000  Uiso   1.00
H307   H     0.22424   0.82820   0.98309   0.00000  Uiso   1.00
H308   H     0.04716   0.88999   0.99169   0.00000  Uiso   1.00
H309   H     0.23441   0.72396   0.93361   0.00000  Uiso   1.00
H310   H     0.37755   0.86315   0.03968   0.00000  Uiso   1.00
H311   H     0.87227   0.97026   0.97643   0.00000  Uiso   1.00
H312   H     0.26714   0.62019   0.85397   0.00000  Uiso   1.00
H313   H     0.56899   0.91369   0.07764   0.00000  Uiso   1.00
O314   O     0.82953   0.05146   0.89689   0.00000  Uiso   1.00
O315   O     0.34760   0.59218   0.73623   0.00000  Uiso   1.00
O316   O     0.74362   0.97724   0.02967   0.00000  Uiso   1.00
N317   N     0.00483   0.02132   0.85025   0.00000  Uiso   1.00
N318   N     0.37399   0.69403   0.73575   0.00000  Uiso   1.00
N319   N     0.65621   0.96841   0.94486   0.00000  Uiso   1.00
N320   N     0.92865   0.97943   0.93822   0.00000  Uiso   1.00
N321   N     0.29781   0.65214   0.82373   0.00000  Uiso   1.00
N322   N     0.58004   0.92652   0.03283   0.00000  Uiso   1.00
C323   C     0.85170   0.39830   0.83589   0.00000  Uiso   1.00
C324   C     0.73749   0.42198   0.86135   0.00000  Uiso   1.00
C325   C     0.68390   0.46521   0.83375   0.00000  Uiso   1.00
C326   C     0.57979   0.48076   0.86437   0.00000  Uiso   1.00
C327   C     0.40984   0.52156   0.89533   0.00000  Uiso   1.00
C328   C     0.83922   0.33177   0.82979   0.00000  Uiso   1.00
C329   C     0.87117   0.29916   0.77566   0.00000  Uiso   1.00
C330   C     0.85270   0.23877   0.77971   0.00000  Uiso   1.00
C331   C     0.84076   0.13953   0.76170   0.00000  Uiso   1.00
C332   C     0.91699   0.40740   0.88742   0.00000  Uiso   1.00
C333   C     0.01434   0.43836   0.88174   0.00000  Uiso   1.00
C334   C     0.06137   0.44164   0.93431   0.00000  Uiso   1.00
C335   C     0.17018   0.45982   0.00578   0.00000  Uiso   1.00
C336   C     0.76212   0.34904   0.93934   0.00000  Uiso   1.00
C337   C     0.68884   0.39521   0.91754   0.00000  Uiso   1.00
C338   C     0.58479   0.41070   0.94821   0.00000  Uiso   1.00
C339   C     0.53105   0.45395   0.92066   0.00000  Uiso   1.00
C340   C     0.79056   0.30501   0.88598   0.00000  Uiso   1.00
C341   C     0.77206   0.24466   0.89012   0.00000  Uiso   1.00
C342   C     0.80396   0.21196   0.83600   0.00000  Uiso   1.00
C343   C     0.86833   0.38064   0.94362   0.00000  Uiso   1.00
C344   C     0.91523   0.38386   0.99620   0.00000  Uiso   1.00
C345   C     0.01263   0.41483   0.99061   0.00000  Uiso   1.00
H346   H     0.88958   0.41913   0.79214   0.00000  Uiso   1.00
H347   H     0.72157   0.48590   0.79026   0.00000  Uiso   1.00
H348   H     0.90883   0.31988   0.73218   0.00000  Uiso   1.00
H349   H     0.05197   0.45906   0.83825   0.00000  Uiso   1.00
H350   H     0.51384   0.54811   0.81294   0.00000  Uiso   1.00
H351   H     0.90870   0.19805   0.69049   0.00000  Uiso   1.00
H352   H     0.21056   0.49154   0.91415   0.00000  Uiso   1.00
H353   H     0.72424   0.32820   0.98309   0.00000  Uiso   1.00
H354   H     0.54716   0.38999   0.99169   0.00000  Uiso   1.00
H355   H     0.73441   0.22396   0.93361   0.00000  Uiso   1.00
H356   H     0.87755   0.36315   0.03968   0.00000  Uiso   1.00
H357   H     0.37227   0.47026   0.97643   0.00000  Uiso   1.00
H358   H     0.76714   0.12019   0.85397   0.00000  Uiso   1.00
H359   H     0.06899   0.41369   0.07764   0.00000  Uiso   1.00
O360   O     0.32953   0.55146   0.89689   0.00000  Uiso   1.00
O361   O     0.84760   0.09218   0.73623   0.00000  Uiso   1.00
O362   O     0.24362   0.47724   0.02967   0.00000  Uiso   1.00
N363   N     0.50483   0.52132   0.85025   0.00000  Uiso   1.00
N364   N     0.87399   0.19403   0.73575   0.00000  Uiso   1.00
N365   N     0.15621   0.46841   0.94486   0.00000  Uiso   1.00
N366   N     0.42865   0.47943   0.93822   0.00000  Uiso   1.00
N367   N     0.79781   0.15214   0.82373   0.00000  Uiso   1.00
N368   N     0.08004   0.42652   0.03283   0.00000  Uiso   1.00
