data_job_06399
_audit_creation_date              2018-12-19
_audit_creation_method            'Materials Studio'
_symmetry_space_group_name_H-M    'P1'
_symmetry_Int_Tables_number       1
_symmetry_cell_setting            triclinic
loop_
_symmetry_equiv_pos_as_xyz
  x,y,z
_cell_length_a                    16.6258
_cell_length_b                    16.2383
_cell_length_c                    15.3001
_cell_angle_alpha                 96.2469
_cell_angle_beta                  96.4190
_cell_angle_gamma                 94.9941
loop_
_atom_site_label
_atom_site_type_symbol
_atom_site_fract_x
_atom_site_fract_y
_atom_site_fract_z
_atom_site_U_iso_or_equiv
_atom_site_adp_type
_atom_site_occupancy
C1     C     0.09830   0.96697   0.39419   0.00000  Uiso   1.00
C2     C     0.04120   0.94516   0.30800   0.00000  Uiso   1.00
C3     C     0.96718   0.97664   0.28837   0.00000  Uiso   1.00
C4     C     0.92398   0.94893   0.20592   0.00000  Uiso   1.00
C5     C     0.83077   0.92373   0.08132   0.00000  Uiso   1.00
C6     C     0.11127   0.88456   0.43022   0.00000  Uiso   1.00
C7     C     0.09618   0.86509   0.51336   0.00000  Uiso   1.00
C8     C     0.11198   0.78636   0.53378   0.00000  Uiso   1.00
C9     C     0.12761   0.66709   0.59896   0.00000  Uiso   1.00
C10    C     0.18004   0.99911   0.36791   0.00000  Uiso   1.00
C11    C     0.22278   0.07594   0.39868   0.00000  Uiso   1.00
C12    C     0.29648   0.09365   0.36666   0.00000  Uiso   1.00
C13    C     0.41888   0.15224   0.33509   0.00000  Uiso   1.00
C14    C     0.15320   0.86180   0.28264   0.00000  Uiso   1.00
C15    C     0.07102   0.88804   0.24741   0.00000  Uiso   1.00
C16    C     0.02792   0.86028   0.16496   0.00000  Uiso   1.00
C17    C     0.95386   0.89171   0.14521   0.00000  Uiso   1.00
C18    C     0.14109   0.82744   0.36963   0.00000  Uiso   1.00
C19    C     0.15692   0.74873   0.38994   0.00000  Uiso   1.00
C20    C     0.14185   0.72914   0.47309   0.00000  Uiso   1.00
C21    C     0.20986   0.94199   0.30732   0.00000  Uiso   1.00
C22    C     0.28351   0.95958   0.27525   0.00000  Uiso   1.00
C23    C     0.32636   0.03642   0.30596   0.00000  Uiso   1.00
H24    H     0.07508   0.01144   0.44136   0.00000  Uiso   1.00
H25    H     0.94412   0.02084   0.33528   0.00000  Uiso   1.00
H26    H     0.07311   0.90931   0.56023   0.00000  Uiso   1.00
H27    H     0.19969   0.12013   0.44556   0.00000  Uiso   1.00
H28    H     0.81207   0.00604   0.19097   0.00000  Uiso   1.00
H29    H     0.08407   0.77088   0.66530   0.00000  Uiso   1.00
H30    H     0.35098   0.21544   0.42350   0.00000  Uiso   1.00
H31    H     0.17641   0.81733   0.23547   0.00000  Uiso   1.00
H32    H     0.05101   0.81608   0.11809   0.00000  Uiso   1.00
H33    H     0.18000   0.70454   0.34304   0.00000  Uiso   1.00
H34    H     0.30657   0.91536   0.22837   0.00000  Uiso   1.00
H35    H     0.89882   0.83985   0.01469   0.00000  Uiso   1.00
H36    H     0.17083   0.60469   0.48902   0.00000  Uiso   1.00
H37    H     0.43773   0.04924   0.24721   0.00000  Uiso   1.00
O38    O     0.77111   0.92560   0.02934   0.00000  Uiso   1.00
O39    O     0.12799   0.61709   0.65164   0.00000  Uiso   1.00
O40    O     0.47815   0.20033   0.33440   0.00000  Uiso   1.00
N41    N     0.84970   0.96711   0.16558   0.00000  Uiso   1.00
N42    N     0.10400   0.74725   0.60905   0.00000  Uiso   1.00
N43    N     0.35354   0.16286   0.38300   0.00000  Uiso   1.00
N44    N     0.89639   0.87768   0.07073   0.00000  Uiso   1.00
N45    N     0.15068   0.65782   0.51419   0.00000  Uiso   1.00
N46    N     0.40023   0.07343   0.28814   0.00000  Uiso   1.00
C47    C     0.39113   0.09872   0.96943   0.00000  Uiso   1.00
C48    C     0.31285   0.04061   0.94479   0.00000  Uiso   1.00
C49    C     0.29582   0.96521   0.97707   0.00000  Uiso   1.00
C50    C     0.22078   0.92125   0.94637   0.00000  Uiso   1.00
C51    C     0.10776   0.82637   0.91731   0.00000  Uiso   1.00
C52    C     0.42456   0.11117   0.88245   0.00000  Uiso   1.00
C53    C     0.50146   0.09511   0.86233   0.00000  Uiso   1.00
C54    C     0.52046   0.11057   0.77916   0.00000  Uiso   1.00
C55    C     0.58089   0.12530   0.65335   0.00000  Uiso   1.00
C56    C     0.36540   0.18277   0.00435   0.00000  Uiso   1.00
C57    C     0.39258   0.22692   0.08672   0.00000  Uiso   1.00
C58    C     0.36178   0.30267   0.10617   0.00000  Uiso   1.00
C59    C     0.33035   0.42856   0.16963   0.00000  Uiso   1.00
C60    C     0.28813   0.15475   0.85750   0.00000  Uiso   1.00
C61    C     0.25691   0.07104   0.88399   0.00000  Uiso   1.00
C62    C     0.18187   0.02719   0.85323   0.00000  Uiso   1.00
C63    C     0.16474   0.95174   0.88547   0.00000  Uiso   1.00
C64    C     0.36862   0.14160   0.82165   0.00000  Uiso   1.00
C65    C     0.38751   0.15710   0.73849   0.00000  Uiso   1.00
C66    C     0.46442   0.14106   0.71825   0.00000  Uiso   1.00
C67    C     0.30946   0.21320   0.94356   0.00000  Uiso   1.00
C68    C     0.27862   0.28891   0.96288   0.00000  Uiso   1.00
C69    C     0.30574   0.33316   0.04526   0.00000  Uiso   1.00
H70    H     0.43469   0.07503   0.01676   0.00000  Uiso   1.00
H71    H     0.33914   0.94167   0.02411   0.00000  Uiso   1.00
H72    H     0.54475   0.07157   0.90940   0.00000  Uiso   1.00
H73    H     0.43587   0.20335   0.13375   0.00000  Uiso   1.00
H74    H     0.20855   0.80723   0.00543   0.00000  Uiso   1.00
H75    H     0.64209   0.08114   0.76355   0.00000  Uiso   1.00
H76    H     0.41251   0.35904   0.23665   0.00000  Uiso   1.00
H77    H     0.24458   0.17844   0.81016   0.00000  Uiso   1.00
H78    H     0.13859   0.05076   0.80618   0.00000  Uiso   1.00
H79    H     0.34420   0.18065   0.69146   0.00000  Uiso   1.00
H80    H     0.23533   0.31244   0.91582   0.00000  Uiso   1.00
H81    H     0.04578   0.89577   0.82855   0.00000  Uiso   1.00
H82    H     0.47932   0.16968   0.58667   0.00000  Uiso   1.00
H83    H     0.24974   0.44758   0.05976   0.00000  Uiso   1.00
O84    O     0.06088   0.76562   0.91807   0.00000  Uiso   1.00
O85    O     0.62968   0.12500   0.60075   0.00000  Uiso   1.00
O86    O     0.32847   0.48959   0.22144   0.00000  Uiso   1.00
N87    N     0.18478   0.84560   0.96436   0.00000  Uiso   1.00
N88    N     0.59011   0.10168   0.73821   0.00000  Uiso   1.00
N89    N     0.37548   0.36150   0.18051   0.00000  Uiso   1.00
N90    N     0.09719   0.89324   0.86918   0.00000  Uiso   1.00
N91    N     0.50252   0.14932   0.64303   0.00000  Uiso   1.00
N92    N     0.28790   0.40914   0.08533   0.00000  Uiso   1.00
C93    C     0.96619   0.39179   0.10027   0.00000  Uiso   1.00
C94    C     0.94513   0.31137   0.03737   0.00000  Uiso   1.00
C95    C     0.97557   0.29320   0.95741   0.00000  Uiso   1.00
C96    C     0.94880   0.21624   0.90952   0.00000  Uiso   1.00
C97    C     0.92446   0.10001   0.80711   0.00000  Uiso   1.00
C98    C     0.88548   0.42659   0.11314   0.00000  Uiso   1.00
C99    C     0.86578   0.50529   0.09688   0.00000  Uiso   1.00
C100   C     0.78881   0.52532   0.11279   0.00000  Uiso   1.00
C101   C     0.67190   0.58800   0.12806   0.00000  Uiso   1.00
C102   C     0.99828   0.36589   0.18947   0.00000  Uiso   1.00
C103   C     0.07341   0.39357   0.23742   0.00000  Uiso   1.00
C104   C     0.09139   0.36251   0.31761   0.00000  Uiso   1.00
C105   C     0.14961   0.33093   0.45141   0.00000  Uiso   1.00
C106   C     0.86452   0.28743   0.15743   0.00000  Uiso   1.00
C107   C     0.88990   0.25470   0.06842   0.00000  Uiso   1.00
C108   C     0.86308   0.17774   0.02064   0.00000  Uiso   1.00
C109   C     0.89348   0.15945   0.94062   0.00000  Uiso   1.00
C110   C     0.83026   0.36991   0.14418   0.00000  Uiso   1.00
C111   C     0.75330   0.38984   0.16012   0.00000  Uiso   1.00
C112   C     0.73348   0.46854   0.14389   0.00000  Uiso   1.00
C113   C     0.94306   0.30921   0.22052   0.00000  Uiso   1.00
C114   C     0.96092   0.27811   0.30065   0.00000  Uiso   1.00
C115   C     0.03607   0.30573   0.34871   0.00000  Uiso   1.00
H116   H     0.00918   0.43592   0.07611   0.00000  Uiso   1.00
H117   H     0.01829   0.33708   0.93341   0.00000  Uiso   1.00
H118   H     0.90853   0.54914   0.07287   0.00000  Uiso   1.00
H119   H     0.11613   0.43743   0.21338   0.00000  Uiso   1.00
H120   H     0.00403   0.20251   0.78887   0.00000  Uiso   1.00
H121   H     0.77260   0.64967   0.08296   0.00000  Uiso   1.00
H122   H     0.21035   0.41411   0.37926   0.00000  Uiso   1.00
H123   H     0.82152   0.24330   0.18160   0.00000  Uiso   1.00
H124   H     0.82034   0.13389   0.04468   0.00000  Uiso   1.00
H125   H     0.71058   0.34596   0.18414   0.00000  Uiso   1.00
H126   H     0.91817   0.23424   0.32465   0.00000  Uiso   1.00
H127   H     0.84336   0.03760   0.87919   0.00000  Uiso   1.00
H128   H     0.61193   0.48476   0.17328   0.00000  Uiso   1.00
H129   H     0.04968   0.24919   0.46957   0.00000  Uiso   1.00
O130   O     0.92628   0.05157   0.74205   0.00000  Uiso   1.00
O131   O     0.62267   0.63823   0.12790   0.00000  Uiso   1.00
O132   O     0.19698   0.32917   0.51663   0.00000  Uiso   1.00
N133   N     0.96639   0.17871   0.82892   0.00000  Uiso   1.00
N134   N     0.75001   0.59677   0.10387   0.00000  Uiso   1.00
N135   N     0.15926   0.37655   0.38089   0.00000  Uiso   1.00
N136   N     0.87993   0.08997   0.87752   0.00000  Uiso   1.00
N137   N     0.66356   0.50803   0.15247   0.00000  Uiso   1.00
N138   N     0.07281   0.28782   0.42949   0.00000  Uiso   1.00
C139   C     0.59834   0.89185   0.46936   0.00000  Uiso   1.00
C140   C     0.54171   0.81163   0.44477   0.00000  Uiso   1.00
C141   C     0.46809   0.79403   0.47690   0.00000  Uiso   1.00
C142   C     0.42528   0.71715   0.44629   0.00000  Uiso   1.00
C143   C     0.33280   0.60130   0.41729   0.00000  Uiso   1.00
C144   C     0.61038   0.92615   0.38232   0.00000  Uiso   1.00
C145   C     0.59450   0.00483   0.36195   0.00000  Uiso   1.00
C146   C     0.60951   0.02436   0.27876   0.00000  Uiso   1.00
C147   C     0.62369   0.08632   0.15283   0.00000  Uiso   1.00
C148   C     0.68055   0.86568   0.50457   0.00000  Uiso   1.00
C149   C     0.72368   0.89353   0.58698   0.00000  Uiso   1.00
C150   C     0.79778   0.86217   0.60672   0.00000  Uiso   1.00
C151   C     0.92091   0.83024   0.67060   0.00000  Uiso   1.00
C152   C     0.65324   0.78664   0.35786   0.00000  Uiso   1.00
C153   C     0.57153   0.75449   0.38421   0.00000  Uiso   1.00
C154   C     0.52883   0.67762   0.35354   0.00000  Uiso   1.00
C155   C     0.45516   0.65990   0.38562   0.00000  Uiso   1.00
C156   C     0.64020   0.86901   0.32175   0.00000  Uiso   1.00
C157   C     0.65524   0.88843   0.23858   0.00000  Uiso   1.00
C158   C     0.63939   0.96711   0.21809   0.00000  Uiso   1.00
C159   C     0.71037   0.80853   0.44401   0.00000  Uiso   1.00
C160   C     0.78442   0.77713   0.46362   0.00000  Uiso   1.00
C161   C     0.82766   0.80492   0.54605   0.00000  Uiso   1.00
H162   H     0.57513   0.93635   0.51651   0.00000  Uiso   1.00
H163   H     0.44503   0.83827   0.52377   0.00000  Uiso   1.00
H164   H     0.57143   0.04904   0.40883   0.00000  Uiso   1.00
H165   H     0.70059   0.93776   0.63383   0.00000  Uiso   1.00
H166   H     0.31393   0.70434   0.50508   0.00000  Uiso   1.00
H167   H     0.58048   0.14878   0.26275   0.00000  Uiso   1.00
H168   H     0.85284   0.91412   0.73721   0.00000  Uiso   1.00
H169   H     0.67646   0.74215   0.31070   0.00000  Uiso   1.00
H170   H     0.55192   0.63341   0.30667   0.00000  Uiso   1.00
H171   H     0.67832   0.84419   0.19173   0.00000  Uiso   1.00
H172   H     0.80748   0.73290   0.41674   0.00000  Uiso   1.00
H173   H     0.40068   0.53808   0.32887   0.00000  Uiso   1.00
H174   H     0.66724   0.98252   0.08654   0.00000  Uiso   1.00
H175   H     0.93959   0.74785   0.56100   0.00000  Uiso   1.00
O176   O     0.27354   0.55319   0.41801   0.00000  Uiso   1.00
O177   O     0.62327   0.13628   0.10009   0.00000  Uiso   1.00
O178   O     0.98058   0.82841   0.72257   0.00000  Uiso   1.00
N179   N     0.35145   0.68013   0.46418   0.00000  Uiso   1.00
N180   N     0.60065   0.09565   0.23760   0.00000  Uiso   1.00
N181   N     0.85528   0.87627   0.68118   0.00000  Uiso   1.00
N182   N     0.39813   0.59066   0.36936   0.00000  Uiso   1.00
N183   N     0.64733   0.00618   0.14279   0.00000  Uiso   1.00
N184   N     0.90196   0.78680   0.58636   0.00000  Uiso   1.00
C185   C     0.89101   0.46697   0.60029   0.00000  Uiso   1.00
C186   C     0.81244   0.44528   0.53724   0.00000  Uiso   1.00
C187   C     0.79456   0.47644   0.45714   0.00000  Uiso   1.00
C188   C     0.71939   0.44891   0.40913   0.00000  Uiso   1.00
C189   C     0.60581   0.42382   0.30647   0.00000  Uiso   1.00
C190   C     0.92520   0.38444   0.61347   0.00000  Uiso   1.00
C191   C     0.00214   0.36446   0.59748   0.00000  Uiso   1.00
C192   C     0.02189   0.28572   0.61365   0.00000  Uiso   1.00
C193   C     0.08340   0.16620   0.62941   0.00000  Uiso   1.00
C194   C     0.86569   0.49969   0.68934   0.00000  Uiso   1.00
C195   C     0.89261   0.57661   0.73716   0.00000  Uiso   1.00
C196   C     0.86227   0.59489   0.81721   0.00000  Uiso   1.00
C197   C     0.83138   0.65431   0.95077   0.00000  Uiso   1.00
C198   C     0.78930   0.36266   0.65745   0.00000  Uiso   1.00
C199   C     0.75720   0.38862   0.56828   0.00000  Uiso   1.00
C200   C     0.68203   0.36104   0.52038   0.00000  Uiso   1.00
C201   C     0.66404   0.39216   0.44022   0.00000  Uiso   1.00
C202   C     0.86996   0.32778   0.64451   0.00000  Uiso   1.00
C203   C     0.88961   0.24905   0.66071   0.00000  Uiso   1.00
C204   C     0.96655   0.22896   0.64475   0.00000  Uiso   1.00
C205   C     0.81045   0.44303   0.72038   0.00000  Uiso   1.00
C206   C     0.78007   0.46120   0.80038   0.00000  Uiso   1.00
C207   C     0.80693   0.53813   0.84831   0.00000  Uiso   1.00
H208   H     0.93403   0.51108   0.57613   0.00000  Uiso   1.00
H209   H     0.83733   0.52028   0.43314   0.00000  Uiso   1.00
H210   H     0.04488   0.40832   0.57346   0.00000  Uiso   1.00
H211   H     0.93536   0.62044   0.71311   0.00000  Uiso   1.00
H212   H     0.70578   0.50549   0.28828   0.00000  Uiso   1.00
H213   H     0.14341   0.26942   0.58420   0.00000  Uiso   1.00
H214   H     0.91247   0.71670   0.87867   0.00000  Uiso   1.00
H215   H     0.74629   0.31854   0.68162   0.00000  Uiso   1.00
H216   H     0.63929   0.31719   0.54442   0.00000  Uiso   1.00
H217   H     0.84684   0.20523   0.68474   0.00000  Uiso   1.00
H218   H     0.73732   0.41734   0.82439   0.00000  Uiso   1.00
H219   H     0.54504   0.34064   0.37860   0.00000  Uiso   1.00
H220   H     0.98268   0.10458   0.67452   0.00000  Uiso   1.00
H221   H     0.75173   0.55186   0.96899   0.00000  Uiso   1.00
O222   O     0.55842   0.42563   0.24127   0.00000  Uiso   1.00
O223   O     0.13259   0.11593   0.62951   0.00000  Uiso   1.00
O224   O     0.82959   0.70275   0.01585   0.00000  Uiso   1.00
N225   N     0.68263   0.46689   0.32838   0.00000  Uiso   1.00
N226   N     0.09179   0.24618   0.60502   0.00000  Uiso   1.00
N227   N     0.87589   0.66434   0.88035   0.00000  Uiso   1.00
N228   N     0.59614   0.37819   0.37698   0.00000  Uiso   1.00
N229   N     0.00529   0.15748   0.65362   0.00000  Uiso   1.00
N230   N     0.78940   0.57564   0.92895   0.00000  Uiso   1.00
C231   C     0.46627   0.59866   0.89424   0.00000  Uiso   1.00
C232   C     0.44503   0.54023   0.80815   0.00000  Uiso   1.00
C233   C     0.47592   0.46457   0.78881   0.00000  Uiso   1.00
C234   C     0.44889   0.42035   0.70639   0.00000  Uiso   1.00
C235   C     0.42439   0.32499   0.58199   0.00000  Uiso   1.00
C236   C     0.38573   0.61173   0.93001   0.00000  Uiso   1.00
C237   C     0.36679   0.59619   0.01314   0.00000  Uiso   1.00
C238   C     0.28985   0.61218   0.03332   0.00000  Uiso   1.00
C239   C     0.17331   0.62787   0.09813   0.00000  Uiso   1.00
C240   C     0.49747   0.68239   0.86782   0.00000  Uiso   1.00
C241   C     0.57247   0.72628   0.89868   0.00000  Uiso   1.00
C242   C     0.58960   0.80177   0.86650   0.00000  Uiso   1.00
C243   C     0.64656   0.92718   0.83476   0.00000  Uiso   1.00
C244   C     0.36331   0.65468   0.78226   0.00000  Uiso   1.00
C245   C     0.38910   0.57067   0.74733   0.00000  Uiso   1.00
C246   C     0.36202   0.52656   0.66492   0.00000  Uiso   1.00
C247   C     0.39287   0.45084   0.64546   0.00000  Uiso   1.00
C248   C     0.32981   0.64216   0.86920   0.00000  Uiso   1.00
C249   C     0.25288   0.65818   0.88925   0.00000  Uiso   1.00
C250   C     0.23382   0.64266   0.97239   0.00000  Uiso   1.00
C251   C     0.44155   0.71283   0.80700   0.00000  Uiso   1.00
C252   C     0.45857   0.78827   0.77478   0.00000  Uiso   1.00
C253   C     0.53358   0.83226   0.80557   0.00000  Uiso   1.00
H254   H     0.50980   0.57496   0.94159   0.00000  Uiso   1.00
H255   H     0.51920   0.44103   0.83590   0.00000  Uiso   1.00
H256   H     0.41008   0.57265   0.06020   0.00000  Uiso   1.00
H257   H     0.61573   0.70271   0.94574   0.00000  Uiso   1.00
H258   H     0.50493   0.30596   0.69191   0.00000  Uiso   1.00
H259   H     0.27486   0.58349   0.16486   0.00000  Uiso   1.00
H260   H     0.70852   0.85777   0.92352   0.00000  Uiso   1.00
H261   H     0.31977   0.67838   0.73491   0.00000  Uiso   1.00
H262   H     0.31874   0.55012   0.61787   0.00000  Uiso   1.00
H263   H     0.20962   0.68173   0.84217   0.00000  Uiso   1.00
H264   H     0.41528   0.81180   0.72772   0.00000  Uiso   1.00
H265   H     0.34223   0.39449   0.51495   0.00000  Uiso   1.00
H266   H     0.11216   0.67204   0.98791   0.00000  Uiso   1.00
H267   H     0.54582   0.94631   0.74656   0.00000  Uiso   1.00
O268   O     0.42631   0.26397   0.53017   0.00000  Uiso   1.00
O269   O     0.12448   0.62811   0.15068   0.00000  Uiso   1.00
O270   O     0.69343   0.98794   0.83404   0.00000  Uiso   1.00
N271   N     0.46679   0.34440   0.66631   0.00000  Uiso   1.00
N272   N     0.25169   0.60387   0.10850   0.00000  Uiso   1.00
N273   N     0.65712   0.86030   0.88288   0.00000  Uiso   1.00
N274   N     0.37925   0.39204   0.57109   0.00000  Uiso   1.00
N275   N     0.16414   0.65151   0.01328   0.00000  Uiso   1.00
N276   N     0.56957   0.90795   0.78766   0.00000  Uiso   1.00
