data_job_04001
_audit_creation_date              2018-12-19
_audit_creation_method            'Materials Studio'
_symmetry_space_group_name_H-M    'P1'
_symmetry_Int_Tables_number       1
_symmetry_cell_setting            triclinic
loop_
_symmetry_equiv_pos_as_xyz
  x,y,z
_cell_length_a                    32.8376
_cell_length_b                    22.5309
_cell_length_c                    11.5151
_cell_angle_alpha                 90.0000
_cell_angle_beta                  86.2290
_cell_angle_gamma                 90.0000
loop_
_atom_site_label
_atom_site_type_symbol
_atom_site_fract_x
_atom_site_fract_y
_atom_site_fract_z
_atom_site_U_iso_or_equiv
_atom_site_adp_type
_atom_site_occupancy
C1     C     0.88158   0.83816   0.79520   0.00000  Uiso   1.00
C2     C     0.90637   0.81978   0.68441   0.00000  Uiso   1.00
C3     C     0.94732   0.80404   0.67680   0.00000  Uiso   1.00
C4     C     0.96443   0.78863   0.56748   0.00000  Uiso   1.00
C5     C     0.00644   0.76008   0.41036   0.00000  Uiso   1.00
C6     C     0.86404   0.89919   0.77049   0.00000  Uiso   1.00
C7     C     0.86938   0.95022   0.83527   0.00000  Uiso   1.00
C8     C     0.85085   0.00166   0.79843   0.00000  Uiso   1.00
C9     C     0.82711   0.09638   0.77501   0.00000  Uiso   1.00
C10    C     0.84525   0.79593   0.80693   0.00000  Uiso   1.00
C11    C     0.83479   0.76015   0.90237   0.00000  Uiso   1.00
C12    C     0.80043   0.72467   0.89622   0.00000  Uiso   1.00
C13    C     0.74751   0.65906   0.92938   0.00000  Uiso   1.00
C14    C     0.83915   0.83878   0.61460   0.00000  Uiso   1.00
C15    C     0.88333   0.82012   0.58631   0.00000  Uiso   1.00
C16    C     0.90038   0.80474   0.47698   0.00000  Uiso   1.00
C17    C     0.94134   0.78897   0.46921   0.00000  Uiso   1.00
C18    C     0.84099   0.89953   0.67240   0.00000  Uiso   1.00
C19    C     0.82244   0.95091   0.63546   0.00000  Uiso   1.00
C20    C     0.82776   0.00200   0.70016   0.00000  Uiso   1.00
C21    C     0.82220   0.79627   0.70884   0.00000  Uiso   1.00
C22    C     0.78785   0.76084   0.70254   0.00000  Uiso   1.00
C23    C     0.77734   0.72501   0.79795   0.00000  Uiso   1.00
H24    H     0.89952   0.83789   0.87157   0.00000  Uiso   1.00
H25    H     0.96515   0.80379   0.75273   0.00000  Uiso   1.00
H26    H     0.88722   0.94994   0.91119   0.00000  Uiso   1.00
H27    H     0.85263   0.75990   0.97826   0.00000  Uiso   1.00
H28    H     0.02775   0.76614   0.57771   0.00000  Uiso   1.00
H29    H     0.86342   0.07430   0.91184   0.00000  Uiso   1.00
H30    H     0.79048   0.67357   0.05329   0.00000  Uiso   1.00
H31    H     0.82121   0.83905   0.53822   0.00000  Uiso   1.00
H32    H     0.88254   0.80500   0.40108   0.00000  Uiso   1.00
H33    H     0.80461   0.95116   0.55954   0.00000  Uiso   1.00
H34    H     0.77002   0.76112   0.62662   0.00000  Uiso   1.00
H35    H     0.96070   0.76714   0.29229   0.00000  Uiso   1.00
H36    H     0.79637   0.07530   0.62644   0.00000  Uiso   1.00
H37    H     0.72343   0.67456   0.76788   0.00000  Uiso   1.00
O38    O     0.03599   0.74424   0.35080   0.00000  Uiso   1.00
O39    O     0.82038   0.14853   0.78919   0.00000  Uiso   1.00
O40    O     0.72470   0.62278   0.97476   0.00000  Uiso   1.00
N41    N     0.00355   0.77104   0.52936   0.00000  Uiso   1.00
N42    N     0.84991   0.05915   0.84175   0.00000  Uiso   1.00
N43    N     0.78172   0.68451   0.97400   0.00000  Uiso   1.00
N44    N     0.96747   0.77157   0.37578   0.00000  Uiso   1.00
N45    N     0.81384   0.05969   0.68817   0.00000  Uiso   1.00
N46    N     0.74564   0.68505   0.82043   0.00000  Uiso   1.00
C47    C     0.38158   0.33816   0.79520   0.00000  Uiso   1.00
C48    C     0.40637   0.31978   0.68441   0.00000  Uiso   1.00
C49    C     0.44732   0.30404   0.67680   0.00000  Uiso   1.00
C50    C     0.46443   0.28863   0.56748   0.00000  Uiso   1.00
C51    C     0.50644   0.26008   0.41036   0.00000  Uiso   1.00
C52    C     0.36404   0.39919   0.77049   0.00000  Uiso   1.00
C53    C     0.36938   0.45022   0.83527   0.00000  Uiso   1.00
C54    C     0.35085   0.50166   0.79843   0.00000  Uiso   1.00
C55    C     0.32711   0.59638   0.77501   0.00000  Uiso   1.00
C56    C     0.34525   0.29593   0.80693   0.00000  Uiso   1.00
C57    C     0.33479   0.26015   0.90237   0.00000  Uiso   1.00
C58    C     0.30043   0.22467   0.89622   0.00000  Uiso   1.00
C59    C     0.24751   0.15906   0.92938   0.00000  Uiso   1.00
C60    C     0.33915   0.33878   0.61460   0.00000  Uiso   1.00
C61    C     0.38333   0.32012   0.58631   0.00000  Uiso   1.00
C62    C     0.40038   0.30474   0.47698   0.00000  Uiso   1.00
C63    C     0.44134   0.28897   0.46921   0.00000  Uiso   1.00
C64    C     0.34099   0.39953   0.67240   0.00000  Uiso   1.00
C65    C     0.32244   0.45091   0.63546   0.00000  Uiso   1.00
C66    C     0.32776   0.50200   0.70016   0.00000  Uiso   1.00
C67    C     0.32220   0.29627   0.70884   0.00000  Uiso   1.00
C68    C     0.28785   0.26084   0.70254   0.00000  Uiso   1.00
C69    C     0.27734   0.22501   0.79795   0.00000  Uiso   1.00
H70    H     0.39952   0.33789   0.87157   0.00000  Uiso   1.00
H71    H     0.46515   0.30379   0.75273   0.00000  Uiso   1.00
H72    H     0.38722   0.44994   0.91119   0.00000  Uiso   1.00
H73    H     0.35263   0.25990   0.97826   0.00000  Uiso   1.00
H74    H     0.52775   0.26614   0.57771   0.00000  Uiso   1.00
H75    H     0.36342   0.57430   0.91184   0.00000  Uiso   1.00
H76    H     0.29048   0.17357   0.05329   0.00000  Uiso   1.00
H77    H     0.32121   0.33905   0.53822   0.00000  Uiso   1.00
H78    H     0.38254   0.30500   0.40108   0.00000  Uiso   1.00
H79    H     0.30461   0.45116   0.55954   0.00000  Uiso   1.00
H80    H     0.27002   0.26112   0.62662   0.00000  Uiso   1.00
H81    H     0.46070   0.26714   0.29229   0.00000  Uiso   1.00
H82    H     0.29637   0.57530   0.62644   0.00000  Uiso   1.00
H83    H     0.22343   0.17456   0.76788   0.00000  Uiso   1.00
O84    O     0.53599   0.24424   0.35080   0.00000  Uiso   1.00
O85    O     0.32038   0.64853   0.78919   0.00000  Uiso   1.00
O86    O     0.22470   0.12278   0.97476   0.00000  Uiso   1.00
N87    N     0.50355   0.27104   0.52936   0.00000  Uiso   1.00
N88    N     0.34991   0.55915   0.84175   0.00000  Uiso   1.00
N89    N     0.28172   0.18451   0.97400   0.00000  Uiso   1.00
N90    N     0.46747   0.27157   0.37578   0.00000  Uiso   1.00
N91    N     0.31384   0.55969   0.68817   0.00000  Uiso   1.00
N92    N     0.24564   0.18505   0.82043   0.00000  Uiso   1.00
C93    C     0.11842   0.83816   0.70480   0.00000  Uiso   1.00
C94    C     0.09363   0.81978   0.81559   0.00000  Uiso   1.00
C95    C     0.05268   0.80404   0.82320   0.00000  Uiso   1.00
C96    C     0.03557   0.78863   0.93252   0.00000  Uiso   1.00
C97    C     0.99356   0.76008   0.08964   0.00000  Uiso   1.00
C98    C     0.13596   0.89919   0.72951   0.00000  Uiso   1.00
C99    C     0.13062   0.95022   0.66473   0.00000  Uiso   1.00
C100   C     0.14915   0.00166   0.70157   0.00000  Uiso   1.00
C101   C     0.17289   0.09638   0.72499   0.00000  Uiso   1.00
C102   C     0.15475   0.79593   0.69307   0.00000  Uiso   1.00
C103   C     0.16521   0.76015   0.59763   0.00000  Uiso   1.00
C104   C     0.19957   0.72467   0.60378   0.00000  Uiso   1.00
C105   C     0.25249   0.65906   0.57062   0.00000  Uiso   1.00
C106   C     0.16085   0.83878   0.88540   0.00000  Uiso   1.00
C107   C     0.11667   0.82012   0.91369   0.00000  Uiso   1.00
C108   C     0.09962   0.80474   0.02302   0.00000  Uiso   1.00
C109   C     0.05866   0.78897   0.03079   0.00000  Uiso   1.00
C110   C     0.15901   0.89953   0.82760   0.00000  Uiso   1.00
C111   C     0.17756   0.95091   0.86454   0.00000  Uiso   1.00
C112   C     0.17224   0.00200   0.79984   0.00000  Uiso   1.00
C113   C     0.17780   0.79627   0.79116   0.00000  Uiso   1.00
C114   C     0.21215   0.76084   0.79746   0.00000  Uiso   1.00
C115   C     0.22266   0.72501   0.70205   0.00000  Uiso   1.00
H116   H     0.10048   0.83789   0.62843   0.00000  Uiso   1.00
H117   H     0.03485   0.80379   0.74727   0.00000  Uiso   1.00
H118   H     0.11278   0.94994   0.58881   0.00000  Uiso   1.00
H119   H     0.14737   0.75990   0.52174   0.00000  Uiso   1.00
H120   H     0.97225   0.76614   0.92229   0.00000  Uiso   1.00
H121   H     0.13658   0.07430   0.58816   0.00000  Uiso   1.00
H122   H     0.20952   0.67357   0.44671   0.00000  Uiso   1.00
H123   H     0.17879   0.83905   0.96178   0.00000  Uiso   1.00
H124   H     0.11746   0.80500   0.09892   0.00000  Uiso   1.00
H125   H     0.19539   0.95116   0.94046   0.00000  Uiso   1.00
H126   H     0.22998   0.76112   0.87338   0.00000  Uiso   1.00
H127   H     0.03930   0.76714   0.20771   0.00000  Uiso   1.00
H128   H     0.20363   0.07530   0.87356   0.00000  Uiso   1.00
H129   H     0.27657   0.67456   0.73212   0.00000  Uiso   1.00
O130   O     0.96401   0.74424   0.14920   0.00000  Uiso   1.00
O131   O     0.17962   0.14853   0.71081   0.00000  Uiso   1.00
O132   O     0.27530   0.62278   0.52524   0.00000  Uiso   1.00
N133   N     0.99645   0.77104   0.97064   0.00000  Uiso   1.00
N134   N     0.15009   0.05915   0.65825   0.00000  Uiso   1.00
N135   N     0.21828   0.68451   0.52600   0.00000  Uiso   1.00
N136   N     0.03253   0.77157   0.12422   0.00000  Uiso   1.00
N137   N     0.18616   0.05969   0.81183   0.00000  Uiso   1.00
N138   N     0.25436   0.68505   0.67957   0.00000  Uiso   1.00
C139   C     0.61842   0.33816   0.70480   0.00000  Uiso   1.00
C140   C     0.59363   0.31978   0.81559   0.00000  Uiso   1.00
C141   C     0.55268   0.30404   0.82320   0.00000  Uiso   1.00
C142   C     0.53557   0.28863   0.93252   0.00000  Uiso   1.00
C143   C     0.49356   0.26008   0.08964   0.00000  Uiso   1.00
C144   C     0.63596   0.39919   0.72951   0.00000  Uiso   1.00
C145   C     0.63062   0.45022   0.66473   0.00000  Uiso   1.00
C146   C     0.64915   0.50166   0.70157   0.00000  Uiso   1.00
C147   C     0.67289   0.59638   0.72499   0.00000  Uiso   1.00
C148   C     0.65475   0.29593   0.69307   0.00000  Uiso   1.00
C149   C     0.66521   0.26015   0.59763   0.00000  Uiso   1.00
C150   C     0.69957   0.22467   0.60378   0.00000  Uiso   1.00
C151   C     0.75249   0.15906   0.57062   0.00000  Uiso   1.00
C152   C     0.66085   0.33878   0.88540   0.00000  Uiso   1.00
C153   C     0.61667   0.32012   0.91369   0.00000  Uiso   1.00
C154   C     0.59962   0.30474   0.02302   0.00000  Uiso   1.00
C155   C     0.55866   0.28897   0.03079   0.00000  Uiso   1.00
C156   C     0.65901   0.39953   0.82760   0.00000  Uiso   1.00
C157   C     0.67756   0.45091   0.86454   0.00000  Uiso   1.00
C158   C     0.67224   0.50200   0.79984   0.00000  Uiso   1.00
C159   C     0.67780   0.29627   0.79116   0.00000  Uiso   1.00
C160   C     0.71215   0.26084   0.79746   0.00000  Uiso   1.00
C161   C     0.72266   0.22501   0.70205   0.00000  Uiso   1.00
H162   H     0.60048   0.33789   0.62843   0.00000  Uiso   1.00
H163   H     0.53485   0.30379   0.74727   0.00000  Uiso   1.00
H164   H     0.61278   0.44994   0.58881   0.00000  Uiso   1.00
H165   H     0.64737   0.25990   0.52174   0.00000  Uiso   1.00
H166   H     0.47225   0.26614   0.92229   0.00000  Uiso   1.00
H167   H     0.63658   0.57430   0.58816   0.00000  Uiso   1.00
H168   H     0.70952   0.17357   0.44671   0.00000  Uiso   1.00
H169   H     0.67879   0.33905   0.96178   0.00000  Uiso   1.00
H170   H     0.61746   0.30500   0.09892   0.00000  Uiso   1.00
H171   H     0.69539   0.45116   0.94046   0.00000  Uiso   1.00
H172   H     0.72998   0.26112   0.87338   0.00000  Uiso   1.00
H173   H     0.53930   0.26714   0.20771   0.00000  Uiso   1.00
H174   H     0.70363   0.57530   0.87356   0.00000  Uiso   1.00
H175   H     0.77657   0.17456   0.73212   0.00000  Uiso   1.00
O176   O     0.46401   0.24424   0.14920   0.00000  Uiso   1.00
O177   O     0.67962   0.64853   0.71081   0.00000  Uiso   1.00
O178   O     0.77530   0.12278   0.52524   0.00000  Uiso   1.00
N179   N     0.49645   0.27104   0.97064   0.00000  Uiso   1.00
N180   N     0.65009   0.55915   0.65825   0.00000  Uiso   1.00
N181   N     0.71828   0.18451   0.52600   0.00000  Uiso   1.00
N182   N     0.53253   0.27157   0.12422   0.00000  Uiso   1.00
N183   N     0.68616   0.55969   0.81183   0.00000  Uiso   1.00
N184   N     0.75436   0.18505   0.67957   0.00000  Uiso   1.00
C185   C     0.11842   0.16184   0.20480   0.00000  Uiso   1.00
C186   C     0.09363   0.18022   0.31559   0.00000  Uiso   1.00
C187   C     0.05268   0.19596   0.32320   0.00000  Uiso   1.00
C188   C     0.03557   0.21137   0.43252   0.00000  Uiso   1.00
C189   C     0.99356   0.23992   0.58964   0.00000  Uiso   1.00
C190   C     0.13596   0.10081   0.22951   0.00000  Uiso   1.00
C191   C     0.13062   0.04978   0.16473   0.00000  Uiso   1.00
C192   C     0.14915   0.99834   0.20157   0.00000  Uiso   1.00
C193   C     0.17289   0.90362   0.22499   0.00000  Uiso   1.00
C194   C     0.15475   0.20407   0.19307   0.00000  Uiso   1.00
C195   C     0.16521   0.23985   0.09763   0.00000  Uiso   1.00
C196   C     0.19957   0.27533   0.10378   0.00000  Uiso   1.00
C197   C     0.25249   0.34094   0.07062   0.00000  Uiso   1.00
C198   C     0.16085   0.16122   0.38540   0.00000  Uiso   1.00
C199   C     0.11667   0.17988   0.41369   0.00000  Uiso   1.00
C200   C     0.09962   0.19526   0.52302   0.00000  Uiso   1.00
C201   C     0.05866   0.21103   0.53079   0.00000  Uiso   1.00
C202   C     0.15901   0.10047   0.32760   0.00000  Uiso   1.00
C203   C     0.17756   0.04909   0.36454   0.00000  Uiso   1.00
C204   C     0.17224   0.99800   0.29984   0.00000  Uiso   1.00
C205   C     0.17780   0.20373   0.29116   0.00000  Uiso   1.00
C206   C     0.21215   0.23916   0.29746   0.00000  Uiso   1.00
C207   C     0.22266   0.27499   0.20205   0.00000  Uiso   1.00
H208   H     0.10048   0.16211   0.12843   0.00000  Uiso   1.00
H209   H     0.03485   0.19621   0.24727   0.00000  Uiso   1.00
H210   H     0.11278   0.05006   0.08881   0.00000  Uiso   1.00
H211   H     0.14737   0.24010   0.02174   0.00000  Uiso   1.00
H212   H     0.97225   0.23386   0.42229   0.00000  Uiso   1.00
H213   H     0.13658   0.92570   0.08816   0.00000  Uiso   1.00
H214   H     0.20952   0.32643   0.94671   0.00000  Uiso   1.00
H215   H     0.17879   0.16095   0.46178   0.00000  Uiso   1.00
H216   H     0.11746   0.19500   0.59892   0.00000  Uiso   1.00
H217   H     0.19539   0.04884   0.44046   0.00000  Uiso   1.00
H218   H     0.22998   0.23888   0.37338   0.00000  Uiso   1.00
H219   H     0.03930   0.23286   0.70771   0.00000  Uiso   1.00
H220   H     0.20363   0.92470   0.37356   0.00000  Uiso   1.00
H221   H     0.27657   0.32544   0.23212   0.00000  Uiso   1.00
O222   O     0.96401   0.25576   0.64920   0.00000  Uiso   1.00
O223   O     0.17962   0.85147   0.21081   0.00000  Uiso   1.00
O224   O     0.27530   0.37722   0.02524   0.00000  Uiso   1.00
N225   N     0.99645   0.22896   0.47064   0.00000  Uiso   1.00
N226   N     0.15009   0.94085   0.15825   0.00000  Uiso   1.00
N227   N     0.21828   0.31549   0.02600   0.00000  Uiso   1.00
N228   N     0.03253   0.22843   0.62422   0.00000  Uiso   1.00
N229   N     0.18616   0.94031   0.31183   0.00000  Uiso   1.00
N230   N     0.25436   0.31495   0.17957   0.00000  Uiso   1.00
C231   C     0.61842   0.66184   0.20480   0.00000  Uiso   1.00
C232   C     0.59363   0.68022   0.31559   0.00000  Uiso   1.00
C233   C     0.55268   0.69596   0.32320   0.00000  Uiso   1.00
C234   C     0.53557   0.71137   0.43252   0.00000  Uiso   1.00
C235   C     0.49356   0.73992   0.58964   0.00000  Uiso   1.00
C236   C     0.63596   0.60081   0.22951   0.00000  Uiso   1.00
C237   C     0.63062   0.54978   0.16473   0.00000  Uiso   1.00
C238   C     0.64915   0.49834   0.20157   0.00000  Uiso   1.00
C239   C     0.67289   0.40362   0.22499   0.00000  Uiso   1.00
C240   C     0.65475   0.70407   0.19307   0.00000  Uiso   1.00
C241   C     0.66521   0.73985   0.09763   0.00000  Uiso   1.00
C242   C     0.69957   0.77533   0.10378   0.00000  Uiso   1.00
C243   C     0.75249   0.84094   0.07062   0.00000  Uiso   1.00
C244   C     0.66085   0.66122   0.38540   0.00000  Uiso   1.00
C245   C     0.61667   0.67988   0.41369   0.00000  Uiso   1.00
C246   C     0.59962   0.69526   0.52302   0.00000  Uiso   1.00
C247   C     0.55866   0.71103   0.53079   0.00000  Uiso   1.00
C248   C     0.65901   0.60047   0.32760   0.00000  Uiso   1.00
C249   C     0.67756   0.54909   0.36454   0.00000  Uiso   1.00
C250   C     0.67224   0.49800   0.29984   0.00000  Uiso   1.00
C251   C     0.67780   0.70373   0.29116   0.00000  Uiso   1.00
C252   C     0.71215   0.73916   0.29746   0.00000  Uiso   1.00
C253   C     0.72266   0.77499   0.20205   0.00000  Uiso   1.00
H254   H     0.60048   0.66211   0.12843   0.00000  Uiso   1.00
H255   H     0.53485   0.69621   0.24727   0.00000  Uiso   1.00
H256   H     0.61278   0.55006   0.08881   0.00000  Uiso   1.00
H257   H     0.64737   0.74010   0.02174   0.00000  Uiso   1.00
H258   H     0.47225   0.73386   0.42229   0.00000  Uiso   1.00
H259   H     0.63658   0.42570   0.08816   0.00000  Uiso   1.00
H260   H     0.70952   0.82643   0.94671   0.00000  Uiso   1.00
H261   H     0.67879   0.66095   0.46178   0.00000  Uiso   1.00
H262   H     0.61746   0.69500   0.59892   0.00000  Uiso   1.00
H263   H     0.69539   0.54884   0.44046   0.00000  Uiso   1.00
H264   H     0.72998   0.73888   0.37338   0.00000  Uiso   1.00
H265   H     0.53930   0.73286   0.70771   0.00000  Uiso   1.00
H266   H     0.70363   0.42470   0.37356   0.00000  Uiso   1.00
H267   H     0.77657   0.82544   0.23212   0.00000  Uiso   1.00
O268   O     0.46401   0.75576   0.64920   0.00000  Uiso   1.00
O269   O     0.67962   0.35147   0.21081   0.00000  Uiso   1.00
O270   O     0.77530   0.87722   0.02524   0.00000  Uiso   1.00
N271   N     0.49645   0.72896   0.47064   0.00000  Uiso   1.00
N272   N     0.65009   0.44085   0.15825   0.00000  Uiso   1.00
N273   N     0.71828   0.81549   0.02600   0.00000  Uiso   1.00
N274   N     0.53253   0.72843   0.62422   0.00000  Uiso   1.00
N275   N     0.68616   0.44031   0.31183   0.00000  Uiso   1.00
N276   N     0.75436   0.81495   0.17957   0.00000  Uiso   1.00
C277   C     0.88158   0.16184   0.29520   0.00000  Uiso   1.00
C278   C     0.90637   0.18022   0.18441   0.00000  Uiso   1.00
C279   C     0.94732   0.19596   0.17680   0.00000  Uiso   1.00
C280   C     0.96443   0.21137   0.06748   0.00000  Uiso   1.00
C281   C     0.00644   0.23992   0.91036   0.00000  Uiso   1.00
C282   C     0.86404   0.10081   0.27049   0.00000  Uiso   1.00
C283   C     0.86938   0.04978   0.33527   0.00000  Uiso   1.00
C284   C     0.85085   0.99834   0.29843   0.00000  Uiso   1.00
C285   C     0.82711   0.90362   0.27501   0.00000  Uiso   1.00
C286   C     0.84525   0.20407   0.30693   0.00000  Uiso   1.00
C287   C     0.83479   0.23985   0.40237   0.00000  Uiso   1.00
C288   C     0.80043   0.27533   0.39622   0.00000  Uiso   1.00
C289   C     0.74751   0.34094   0.42938   0.00000  Uiso   1.00
C290   C     0.83915   0.16122   0.11460   0.00000  Uiso   1.00
C291   C     0.88333   0.17988   0.08631   0.00000  Uiso   1.00
C292   C     0.90038   0.19526   0.97698   0.00000  Uiso   1.00
C293   C     0.94134   0.21103   0.96921   0.00000  Uiso   1.00
C294   C     0.84099   0.10047   0.17240   0.00000  Uiso   1.00
C295   C     0.82244   0.04909   0.13546   0.00000  Uiso   1.00
C296   C     0.82776   0.99800   0.20016   0.00000  Uiso   1.00
C297   C     0.82220   0.20373   0.20884   0.00000  Uiso   1.00
C298   C     0.78785   0.23916   0.20254   0.00000  Uiso   1.00
C299   C     0.77734   0.27499   0.29795   0.00000  Uiso   1.00
H300   H     0.89952   0.16211   0.37157   0.00000  Uiso   1.00
H301   H     0.96515   0.19621   0.25273   0.00000  Uiso   1.00
H302   H     0.88722   0.05006   0.41119   0.00000  Uiso   1.00
H303   H     0.85263   0.24010   0.47826   0.00000  Uiso   1.00
H304   H     0.02775   0.23386   0.07771   0.00000  Uiso   1.00
H305   H     0.86342   0.92570   0.41184   0.00000  Uiso   1.00
H306   H     0.79048   0.32643   0.55329   0.00000  Uiso   1.00
H307   H     0.82121   0.16095   0.03822   0.00000  Uiso   1.00
H308   H     0.88254   0.19500   0.90108   0.00000  Uiso   1.00
H309   H     0.80461   0.04884   0.05954   0.00000  Uiso   1.00
H310   H     0.77002   0.23888   0.12662   0.00000  Uiso   1.00
H311   H     0.96070   0.23286   0.79229   0.00000  Uiso   1.00
H312   H     0.79637   0.92470   0.12644   0.00000  Uiso   1.00
H313   H     0.72343   0.32544   0.26788   0.00000  Uiso   1.00
O314   O     0.03599   0.25576   0.85080   0.00000  Uiso   1.00
O315   O     0.82038   0.85147   0.28919   0.00000  Uiso   1.00
O316   O     0.72470   0.37722   0.47476   0.00000  Uiso   1.00
N317   N     0.00355   0.22896   0.02936   0.00000  Uiso   1.00
N318   N     0.84991   0.94085   0.34175   0.00000  Uiso   1.00
N319   N     0.78172   0.31549   0.47400   0.00000  Uiso   1.00
N320   N     0.96747   0.22843   0.87578   0.00000  Uiso   1.00
N321   N     0.81384   0.94031   0.18817   0.00000  Uiso   1.00
N322   N     0.74564   0.31495   0.32043   0.00000  Uiso   1.00
C323   C     0.38158   0.66184   0.29520   0.00000  Uiso   1.00
C324   C     0.40637   0.68022   0.18441   0.00000  Uiso   1.00
C325   C     0.44732   0.69596   0.17680   0.00000  Uiso   1.00
C326   C     0.46443   0.71137   0.06748   0.00000  Uiso   1.00
C327   C     0.50644   0.73992   0.91036   0.00000  Uiso   1.00
C328   C     0.36404   0.60081   0.27049   0.00000  Uiso   1.00
C329   C     0.36938   0.54978   0.33527   0.00000  Uiso   1.00
C330   C     0.35085   0.49834   0.29843   0.00000  Uiso   1.00
C331   C     0.32711   0.40362   0.27501   0.00000  Uiso   1.00
C332   C     0.34525   0.70407   0.30693   0.00000  Uiso   1.00
C333   C     0.33479   0.73985   0.40237   0.00000  Uiso   1.00
C334   C     0.30043   0.77533   0.39622   0.00000  Uiso   1.00
C335   C     0.24751   0.84094   0.42938   0.00000  Uiso   1.00
C336   C     0.33915   0.66122   0.11460   0.00000  Uiso   1.00
C337   C     0.38333   0.67988   0.08631   0.00000  Uiso   1.00
C338   C     0.40038   0.69526   0.97698   0.00000  Uiso   1.00
C339   C     0.44134   0.71103   0.96921   0.00000  Uiso   1.00
C340   C     0.34099   0.60047   0.17240   0.00000  Uiso   1.00
C341   C     0.32244   0.54909   0.13546   0.00000  Uiso   1.00
C342   C     0.32776   0.49800   0.20016   0.00000  Uiso   1.00
C343   C     0.32220   0.70373   0.20884   0.00000  Uiso   1.00
C344   C     0.28785   0.73916   0.20254   0.00000  Uiso   1.00
C345   C     0.27734   0.77499   0.29795   0.00000  Uiso   1.00
H346   H     0.39952   0.66211   0.37157   0.00000  Uiso   1.00
H347   H     0.46515   0.69621   0.25273   0.00000  Uiso   1.00
H348   H     0.38722   0.55006   0.41119   0.00000  Uiso   1.00
H349   H     0.35263   0.74010   0.47826   0.00000  Uiso   1.00
H350   H     0.52775   0.73386   0.07771   0.00000  Uiso   1.00
H351   H     0.36342   0.42570   0.41184   0.00000  Uiso   1.00
H352   H     0.29048   0.82643   0.55329   0.00000  Uiso   1.00
H353   H     0.32121   0.66095   0.03822   0.00000  Uiso   1.00
H354   H     0.38254   0.69500   0.90108   0.00000  Uiso   1.00
H355   H     0.30461   0.54884   0.05954   0.00000  Uiso   1.00
H356   H     0.27002   0.73888   0.12662   0.00000  Uiso   1.00
H357   H     0.46070   0.73286   0.79229   0.00000  Uiso   1.00
H358   H     0.29637   0.42470   0.12644   0.00000  Uiso   1.00
H359   H     0.22343   0.82544   0.26788   0.00000  Uiso   1.00
O360   O     0.53599   0.75576   0.85080   0.00000  Uiso   1.00
O361   O     0.32038   0.35147   0.28919   0.00000  Uiso   1.00
O362   O     0.22470   0.87722   0.47476   0.00000  Uiso   1.00
N363   N     0.50355   0.72896   0.02936   0.00000  Uiso   1.00
N364   N     0.34991   0.44085   0.34175   0.00000  Uiso   1.00
N365   N     0.28172   0.81549   0.47400   0.00000  Uiso   1.00
N366   N     0.46747   0.72843   0.87578   0.00000  Uiso   1.00
N367   N     0.31384   0.44031   0.18817   0.00000  Uiso   1.00
N368   N     0.24564   0.81495   0.32043   0.00000  Uiso   1.00
