data_job_05643
_audit_creation_date              2018-12-19
_audit_creation_method            'Materials Studio'
_symmetry_space_group_name_H-M    'P1'
_symmetry_Int_Tables_number       1
_symmetry_cell_setting            triclinic
loop_
_symmetry_equiv_pos_as_xyz
  x,y,z
_cell_length_a                    17.3152
_cell_length_b                    17.1468
_cell_length_c                    17.5926
_cell_angle_alpha                 90.0000
_cell_angle_beta                  90.0000
_cell_angle_gamma                 90.0000
loop_
_atom_site_label
_atom_site_type_symbol
_atom_site_fract_x
_atom_site_fract_y
_atom_site_fract_z
_atom_site_U_iso_or_equiv
_atom_site_adp_type
_atom_site_occupancy
C1     C     0.52872   0.57358   0.21723   0.00000  Uiso   1.00
C2     C     0.44533   0.58237   0.19071   0.00000  Uiso   1.00
C3     C     0.42039   0.62821   0.13051   0.00000  Uiso   1.00
C4     C     0.34171   0.62841   0.11530   0.00000  Uiso   1.00
C5     C     0.22010   0.64879   0.06753   0.00000  Uiso   1.00
C6     C     0.52924   0.59629   0.30103   0.00000  Uiso   1.00
C7     C     0.57487   0.65384   0.33359   0.00000  Uiso   1.00
C8     C     0.56684   0.66575   0.41126   0.00000  Uiso   1.00
C9     C     0.57555   0.70771   0.53478   0.00000  Uiso   1.00
C10    C     0.54622   0.48646   0.21479   0.00000  Uiso   1.00
C11    C     0.60614   0.45166   0.17485   0.00000  Uiso   1.00
C12    C     0.61241   0.37110   0.17992   0.00000  Uiso   1.00
C13    C     0.64748   0.24253   0.16954   0.00000  Uiso   1.00
C14    C     0.43333   0.49240   0.29725   0.00000  Uiso   1.00
C15    C     0.39352   0.53827   0.23417   0.00000  Uiso   1.00
C16    C     0.31485   0.53840   0.21905   0.00000  Uiso   1.00
C17    C     0.28981   0.58424   0.15884   0.00000  Uiso   1.00
C18    C     0.47743   0.55220   0.34450   0.00000  Uiso   1.00
C19    C     0.46934   0.56403   0.42213   0.00000  Uiso   1.00
C20    C     0.51494   0.62158   0.45480   0.00000  Uiso   1.00
C21    C     0.49441   0.44237   0.25825   0.00000  Uiso   1.00
C22    C     0.50060   0.36185   0.26339   0.00000  Uiso   1.00
C23    C     0.56051   0.32693   0.22347   0.00000  Uiso   1.00
H24    H     0.56906   0.60791   0.18339   0.00000  Uiso   1.00
H25    H     0.46051   0.66234   0.09689   0.00000  Uiso   1.00
H26    H     0.61497   0.68795   0.29994   0.00000  Uiso   1.00
H27    H     0.64622   0.48580   0.14122   0.00000  Uiso   1.00
H28    H     0.31730   0.70325   0.02017   0.00000  Uiso   1.00
H29    H     0.64301   0.75724   0.44833   0.00000  Uiso   1.00
H30    H     0.70892   0.33097   0.11364   0.00000  Uiso   1.00
H31    H     0.39299   0.45807   0.33109   0.00000  Uiso   1.00
H32    H     0.27477   0.50427   0.25269   0.00000  Uiso   1.00
H33    H     0.42924   0.52989   0.45575   0.00000  Uiso   1.00
H34    H     0.46049   0.32774   0.29703   0.00000  Uiso   1.00
H35    H     0.16656   0.57496   0.14663   0.00000  Uiso   1.00
H36    H     0.49227   0.62895   0.57479   0.00000  Uiso   1.00
H37    H     0.55817   0.20268   0.24010   0.00000  Uiso   1.00
O38    O     0.16734   0.67222   0.02918   0.00000  Uiso   1.00
O39    O     0.59467   0.74305   0.59090   0.00000  Uiso   1.00
O40    O     0.68113   0.18379   0.15179   0.00000  Uiso   1.00
N41    N     0.29805   0.66670   0.06068   0.00000  Uiso   1.00
N42    N     0.60256   0.71719   0.46098   0.00000  Uiso   1.00
N43    N     0.66419   0.31867   0.14809   0.00000  Uiso   1.00
N44    N     0.21693   0.59767   0.12873   0.00000  Uiso   1.00
N45    N     0.52144   0.64816   0.52903   0.00000  Uiso   1.00
N46    N     0.58308   0.24964   0.21614   0.00000  Uiso   1.00
C47    C     0.97128   0.92642   0.21723   0.00000  Uiso   1.00
C48    C     0.05467   0.91763   0.19071   0.00000  Uiso   1.00
C49    C     0.07961   0.87179   0.13051   0.00000  Uiso   1.00
C50    C     0.15829   0.87159   0.11530   0.00000  Uiso   1.00
C51    C     0.27990   0.85121   0.06753   0.00000  Uiso   1.00
C52    C     0.97076   0.90371   0.30103   0.00000  Uiso   1.00
C53    C     0.92513   0.84616   0.33359   0.00000  Uiso   1.00
C54    C     0.93316   0.83425   0.41126   0.00000  Uiso   1.00
C55    C     0.92445   0.79229   0.53478   0.00000  Uiso   1.00
C56    C     0.95378   0.01354   0.21479   0.00000  Uiso   1.00
C57    C     0.89386   0.04834   0.17485   0.00000  Uiso   1.00
C58    C     0.88759   0.12890   0.17992   0.00000  Uiso   1.00
C59    C     0.85252   0.25747   0.16954   0.00000  Uiso   1.00
C60    C     0.06667   0.00760   0.29725   0.00000  Uiso   1.00
C61    C     0.10648   0.96173   0.23417   0.00000  Uiso   1.00
C62    C     0.18515   0.96160   0.21905   0.00000  Uiso   1.00
C63    C     0.21019   0.91576   0.15884   0.00000  Uiso   1.00
C64    C     0.02257   0.94780   0.34450   0.00000  Uiso   1.00
C65    C     0.03066   0.93597   0.42213   0.00000  Uiso   1.00
C66    C     0.98506   0.87842   0.45480   0.00000  Uiso   1.00
C67    C     0.00559   0.05763   0.25825   0.00000  Uiso   1.00
C68    C     0.99940   0.13815   0.26339   0.00000  Uiso   1.00
C69    C     0.93949   0.17307   0.22347   0.00000  Uiso   1.00
H70    H     0.93094   0.89209   0.18339   0.00000  Uiso   1.00
H71    H     0.03949   0.83766   0.09689   0.00000  Uiso   1.00
H72    H     0.88503   0.81205   0.29994   0.00000  Uiso   1.00
H73    H     0.85378   0.01420   0.14122   0.00000  Uiso   1.00
H74    H     0.18270   0.79675   0.02017   0.00000  Uiso   1.00
H75    H     0.85699   0.74276   0.44833   0.00000  Uiso   1.00
H76    H     0.79108   0.16903   0.11364   0.00000  Uiso   1.00
H77    H     0.10701   0.04193   0.33109   0.00000  Uiso   1.00
H78    H     0.22523   0.99573   0.25269   0.00000  Uiso   1.00
H79    H     0.07076   0.97011   0.45575   0.00000  Uiso   1.00
H80    H     0.03951   0.17226   0.29703   0.00000  Uiso   1.00
H81    H     0.33344   0.92504   0.14663   0.00000  Uiso   1.00
H82    H     0.00773   0.87105   0.57479   0.00000  Uiso   1.00
H83    H     0.94183   0.29732   0.24010   0.00000  Uiso   1.00
O84    O     0.33266   0.82778   0.02918   0.00000  Uiso   1.00
O85    O     0.90533   0.75695   0.59090   0.00000  Uiso   1.00
O86    O     0.81887   0.31621   0.15179   0.00000  Uiso   1.00
N87    N     0.20195   0.83330   0.06068   0.00000  Uiso   1.00
N88    N     0.89744   0.78281   0.46098   0.00000  Uiso   1.00
N89    N     0.83581   0.18133   0.14809   0.00000  Uiso   1.00
N90    N     0.28307   0.90233   0.12873   0.00000  Uiso   1.00
N91    N     0.97856   0.85184   0.52903   0.00000  Uiso   1.00
N92    N     0.91692   0.25036   0.21614   0.00000  Uiso   1.00
C93    C     0.47128   0.07358   0.28277   0.00000  Uiso   1.00
C94    C     0.55467   0.08237   0.30929   0.00000  Uiso   1.00
C95    C     0.57961   0.12821   0.36949   0.00000  Uiso   1.00
C96    C     0.65829   0.12841   0.38470   0.00000  Uiso   1.00
C97    C     0.77990   0.14879   0.43247   0.00000  Uiso   1.00
C98    C     0.47076   0.09629   0.19897   0.00000  Uiso   1.00
C99    C     0.42513   0.15384   0.16641   0.00000  Uiso   1.00
C100   C     0.43316   0.16575   0.08874   0.00000  Uiso   1.00
C101   C     0.42445   0.20771   0.96522   0.00000  Uiso   1.00
C102   C     0.45378   0.98646   0.28521   0.00000  Uiso   1.00
C103   C     0.39386   0.95166   0.32515   0.00000  Uiso   1.00
C104   C     0.38759   0.87110   0.32008   0.00000  Uiso   1.00
C105   C     0.35252   0.74253   0.33046   0.00000  Uiso   1.00
C106   C     0.56667   0.99240   0.20275   0.00000  Uiso   1.00
C107   C     0.60648   0.03827   0.26583   0.00000  Uiso   1.00
C108   C     0.68515   0.03840   0.28095   0.00000  Uiso   1.00
C109   C     0.71019   0.08424   0.34116   0.00000  Uiso   1.00
C110   C     0.52257   0.05220   0.15550   0.00000  Uiso   1.00
C111   C     0.53066   0.06403   0.07787   0.00000  Uiso   1.00
C112   C     0.48506   0.12158   0.04520   0.00000  Uiso   1.00
C113   C     0.50559   0.94237   0.24175   0.00000  Uiso   1.00
C114   C     0.49940   0.86185   0.23661   0.00000  Uiso   1.00
C115   C     0.43949   0.82693   0.27653   0.00000  Uiso   1.00
H116   H     0.43094   0.10791   0.31661   0.00000  Uiso   1.00
H117   H     0.53949   0.16234   0.40311   0.00000  Uiso   1.00
H118   H     0.38503   0.18795   0.20006   0.00000  Uiso   1.00
H119   H     0.35378   0.98580   0.35878   0.00000  Uiso   1.00
H120   H     0.68270   0.20325   0.47983   0.00000  Uiso   1.00
H121   H     0.35699   0.25724   0.05167   0.00000  Uiso   1.00
H122   H     0.29108   0.83097   0.38636   0.00000  Uiso   1.00
H123   H     0.60701   0.95807   0.16891   0.00000  Uiso   1.00
H124   H     0.72523   0.00427   0.24731   0.00000  Uiso   1.00
H125   H     0.57076   0.02989   0.04425   0.00000  Uiso   1.00
H126   H     0.53951   0.82774   0.20297   0.00000  Uiso   1.00
H127   H     0.83344   0.07496   0.35337   0.00000  Uiso   1.00
H128   H     0.50773   0.12895   0.92521   0.00000  Uiso   1.00
H129   H     0.44183   0.70268   0.25990   0.00000  Uiso   1.00
O130   O     0.83266   0.17222   0.47082   0.00000  Uiso   1.00
O131   O     0.40533   0.24305   0.90910   0.00000  Uiso   1.00
O132   O     0.31887   0.68379   0.34821   0.00000  Uiso   1.00
N133   N     0.70195   0.16670   0.43932   0.00000  Uiso   1.00
N134   N     0.39744   0.21719   0.03902   0.00000  Uiso   1.00
N135   N     0.33581   0.81867   0.35191   0.00000  Uiso   1.00
N136   N     0.78307   0.09767   0.37127   0.00000  Uiso   1.00
N137   N     0.47856   0.14816   0.97097   0.00000  Uiso   1.00
N138   N     0.41692   0.74964   0.28386   0.00000  Uiso   1.00
C139   C     0.02872   0.42642   0.28277   0.00000  Uiso   1.00
C140   C     0.94533   0.41763   0.30929   0.00000  Uiso   1.00
C141   C     0.92039   0.37179   0.36949   0.00000  Uiso   1.00
C142   C     0.84171   0.37159   0.38470   0.00000  Uiso   1.00
C143   C     0.72010   0.35121   0.43247   0.00000  Uiso   1.00
C144   C     0.02924   0.40371   0.19897   0.00000  Uiso   1.00
C145   C     0.07487   0.34616   0.16641   0.00000  Uiso   1.00
C146   C     0.06684   0.33425   0.08874   0.00000  Uiso   1.00
C147   C     0.07555   0.29229   0.96522   0.00000  Uiso   1.00
C148   C     0.04622   0.51354   0.28521   0.00000  Uiso   1.00
C149   C     0.10614   0.54834   0.32515   0.00000  Uiso   1.00
C150   C     0.11241   0.62890   0.32008   0.00000  Uiso   1.00
C151   C     0.14748   0.75747   0.33046   0.00000  Uiso   1.00
C152   C     0.93333   0.50760   0.20275   0.00000  Uiso   1.00
C153   C     0.89352   0.46173   0.26583   0.00000  Uiso   1.00
C154   C     0.81485   0.46160   0.28095   0.00000  Uiso   1.00
C155   C     0.78981   0.41576   0.34116   0.00000  Uiso   1.00
C156   C     0.97743   0.44780   0.15550   0.00000  Uiso   1.00
C157   C     0.96934   0.43597   0.07787   0.00000  Uiso   1.00
C158   C     0.01494   0.37842   0.04520   0.00000  Uiso   1.00
C159   C     0.99441   0.55763   0.24175   0.00000  Uiso   1.00
C160   C     0.00060   0.63815   0.23661   0.00000  Uiso   1.00
C161   C     0.06051   0.67307   0.27653   0.00000  Uiso   1.00
H162   H     0.06906   0.39209   0.31661   0.00000  Uiso   1.00
H163   H     0.96051   0.33766   0.40311   0.00000  Uiso   1.00
H164   H     0.11497   0.31205   0.20006   0.00000  Uiso   1.00
H165   H     0.14622   0.51420   0.35878   0.00000  Uiso   1.00
H166   H     0.81730   0.29675   0.47983   0.00000  Uiso   1.00
H167   H     0.14301   0.24276   0.05167   0.00000  Uiso   1.00
H168   H     0.20892   0.66903   0.38636   0.00000  Uiso   1.00
H169   H     0.89299   0.54193   0.16891   0.00000  Uiso   1.00
H170   H     0.77477   0.49573   0.24731   0.00000  Uiso   1.00
H171   H     0.92924   0.47011   0.04425   0.00000  Uiso   1.00
H172   H     0.96049   0.67226   0.20297   0.00000  Uiso   1.00
H173   H     0.66656   0.42504   0.35337   0.00000  Uiso   1.00
H174   H     0.99227   0.37105   0.92521   0.00000  Uiso   1.00
H175   H     0.05817   0.79732   0.25990   0.00000  Uiso   1.00
O176   O     0.66734   0.32778   0.47082   0.00000  Uiso   1.00
O177   O     0.09467   0.25695   0.90910   0.00000  Uiso   1.00
O178   O     0.18113   0.81621   0.34821   0.00000  Uiso   1.00
N179   N     0.79805   0.33330   0.43932   0.00000  Uiso   1.00
N180   N     0.10256   0.28281   0.03902   0.00000  Uiso   1.00
N181   N     0.16419   0.68133   0.35191   0.00000  Uiso   1.00
N182   N     0.71693   0.40233   0.37127   0.00000  Uiso   1.00
N183   N     0.02144   0.35184   0.97097   0.00000  Uiso   1.00
N184   N     0.08308   0.75036   0.28386   0.00000  Uiso   1.00
C185   C     0.47128   0.42642   0.78277   0.00000  Uiso   1.00
C186   C     0.55467   0.41763   0.80929   0.00000  Uiso   1.00
C187   C     0.57961   0.37179   0.86949   0.00000  Uiso   1.00
C188   C     0.65829   0.37159   0.88470   0.00000  Uiso   1.00
C189   C     0.77990   0.35121   0.93247   0.00000  Uiso   1.00
C190   C     0.47076   0.40371   0.69897   0.00000  Uiso   1.00
C191   C     0.42513   0.34616   0.66641   0.00000  Uiso   1.00
C192   C     0.43316   0.33425   0.58874   0.00000  Uiso   1.00
C193   C     0.42445   0.29229   0.46522   0.00000  Uiso   1.00
C194   C     0.45378   0.51354   0.78521   0.00000  Uiso   1.00
C195   C     0.39386   0.54834   0.82515   0.00000  Uiso   1.00
C196   C     0.38759   0.62890   0.82008   0.00000  Uiso   1.00
C197   C     0.35252   0.75747   0.83046   0.00000  Uiso   1.00
C198   C     0.56667   0.50760   0.70275   0.00000  Uiso   1.00
C199   C     0.60648   0.46173   0.76583   0.00000  Uiso   1.00
C200   C     0.68515   0.46160   0.78095   0.00000  Uiso   1.00
C201   C     0.71019   0.41576   0.84116   0.00000  Uiso   1.00
C202   C     0.52257   0.44780   0.65550   0.00000  Uiso   1.00
C203   C     0.53066   0.43597   0.57787   0.00000  Uiso   1.00
C204   C     0.48506   0.37842   0.54520   0.00000  Uiso   1.00
C205   C     0.50559   0.55763   0.74175   0.00000  Uiso   1.00
C206   C     0.49940   0.63815   0.73661   0.00000  Uiso   1.00
C207   C     0.43949   0.67307   0.77653   0.00000  Uiso   1.00
H208   H     0.43094   0.39209   0.81661   0.00000  Uiso   1.00
H209   H     0.53949   0.33766   0.90311   0.00000  Uiso   1.00
H210   H     0.38503   0.31205   0.70006   0.00000  Uiso   1.00
H211   H     0.35378   0.51420   0.85878   0.00000  Uiso   1.00
H212   H     0.68270   0.29675   0.97983   0.00000  Uiso   1.00
H213   H     0.35699   0.24276   0.55167   0.00000  Uiso   1.00
H214   H     0.29108   0.66903   0.88636   0.00000  Uiso   1.00
H215   H     0.60701   0.54193   0.66891   0.00000  Uiso   1.00
H216   H     0.72523   0.49573   0.74731   0.00000  Uiso   1.00
H217   H     0.57076   0.47011   0.54425   0.00000  Uiso   1.00
H218   H     0.53951   0.67226   0.70297   0.00000  Uiso   1.00
H219   H     0.83344   0.42504   0.85337   0.00000  Uiso   1.00
H220   H     0.50773   0.37105   0.42521   0.00000  Uiso   1.00
H221   H     0.44183   0.79732   0.75990   0.00000  Uiso   1.00
O222   O     0.83266   0.32778   0.97082   0.00000  Uiso   1.00
O223   O     0.40533   0.25695   0.40910   0.00000  Uiso   1.00
O224   O     0.31887   0.81621   0.84821   0.00000  Uiso   1.00
N225   N     0.70195   0.33330   0.93932   0.00000  Uiso   1.00
N226   N     0.39744   0.28281   0.53902   0.00000  Uiso   1.00
N227   N     0.33581   0.68133   0.85191   0.00000  Uiso   1.00
N228   N     0.78307   0.40233   0.87127   0.00000  Uiso   1.00
N229   N     0.47856   0.35184   0.47097   0.00000  Uiso   1.00
N230   N     0.41692   0.75036   0.78386   0.00000  Uiso   1.00
C231   C     0.02872   0.07358   0.78277   0.00000  Uiso   1.00
C232   C     0.94533   0.08237   0.80929   0.00000  Uiso   1.00
C233   C     0.92039   0.12821   0.86949   0.00000  Uiso   1.00
C234   C     0.84171   0.12841   0.88470   0.00000  Uiso   1.00
C235   C     0.72010   0.14879   0.93247   0.00000  Uiso   1.00
C236   C     0.02924   0.09629   0.69897   0.00000  Uiso   1.00
C237   C     0.07487   0.15384   0.66641   0.00000  Uiso   1.00
C238   C     0.06684   0.16575   0.58874   0.00000  Uiso   1.00
C239   C     0.07555   0.20771   0.46522   0.00000  Uiso   1.00
C240   C     0.04622   0.98646   0.78521   0.00000  Uiso   1.00
C241   C     0.10614   0.95166   0.82515   0.00000  Uiso   1.00
C242   C     0.11241   0.87110   0.82008   0.00000  Uiso   1.00
C243   C     0.14748   0.74253   0.83046   0.00000  Uiso   1.00
C244   C     0.93333   0.99240   0.70275   0.00000  Uiso   1.00
C245   C     0.89352   0.03827   0.76583   0.00000  Uiso   1.00
C246   C     0.81485   0.03840   0.78095   0.00000  Uiso   1.00
C247   C     0.78981   0.08424   0.84116   0.00000  Uiso   1.00
C248   C     0.97743   0.05220   0.65550   0.00000  Uiso   1.00
C249   C     0.96934   0.06403   0.57787   0.00000  Uiso   1.00
C250   C     0.01494   0.12158   0.54520   0.00000  Uiso   1.00
C251   C     0.99441   0.94237   0.74175   0.00000  Uiso   1.00
C252   C     0.00060   0.86185   0.73661   0.00000  Uiso   1.00
C253   C     0.06051   0.82693   0.77653   0.00000  Uiso   1.00
H254   H     0.06906   0.10791   0.81661   0.00000  Uiso   1.00
H255   H     0.96051   0.16234   0.90311   0.00000  Uiso   1.00
H256   H     0.11497   0.18795   0.70006   0.00000  Uiso   1.00
H257   H     0.14622   0.98580   0.85878   0.00000  Uiso   1.00
H258   H     0.81730   0.20325   0.97983   0.00000  Uiso   1.00
H259   H     0.14301   0.25724   0.55167   0.00000  Uiso   1.00
H260   H     0.20892   0.83097   0.88636   0.00000  Uiso   1.00
H261   H     0.89299   0.95807   0.66891   0.00000  Uiso   1.00
H262   H     0.77477   0.00427   0.74731   0.00000  Uiso   1.00
H263   H     0.92924   0.02989   0.54425   0.00000  Uiso   1.00
H264   H     0.96049   0.82774   0.70297   0.00000  Uiso   1.00
H265   H     0.66656   0.07496   0.85337   0.00000  Uiso   1.00
H266   H     0.99227   0.12895   0.42521   0.00000  Uiso   1.00
H267   H     0.05817   0.70268   0.75990   0.00000  Uiso   1.00
O268   O     0.66734   0.17222   0.97082   0.00000  Uiso   1.00
O269   O     0.09467   0.24305   0.40910   0.00000  Uiso   1.00
O270   O     0.18113   0.68379   0.84821   0.00000  Uiso   1.00
N271   N     0.79805   0.16670   0.93932   0.00000  Uiso   1.00
N272   N     0.10256   0.21719   0.53902   0.00000  Uiso   1.00
N273   N     0.16419   0.81867   0.85191   0.00000  Uiso   1.00
N274   N     0.71693   0.09767   0.87127   0.00000  Uiso   1.00
N275   N     0.02144   0.14816   0.47097   0.00000  Uiso   1.00
N276   N     0.08308   0.74964   0.78386   0.00000  Uiso   1.00
C277   C     0.52872   0.92642   0.71723   0.00000  Uiso   1.00
C278   C     0.44533   0.91763   0.69071   0.00000  Uiso   1.00
C279   C     0.42039   0.87179   0.63051   0.00000  Uiso   1.00
C280   C     0.34171   0.87159   0.61530   0.00000  Uiso   1.00
C281   C     0.22010   0.85121   0.56753   0.00000  Uiso   1.00
C282   C     0.52924   0.90371   0.80103   0.00000  Uiso   1.00
C283   C     0.57487   0.84616   0.83359   0.00000  Uiso   1.00
C284   C     0.56684   0.83425   0.91126   0.00000  Uiso   1.00
C285   C     0.57555   0.79229   0.03478   0.00000  Uiso   1.00
C286   C     0.54622   0.01354   0.71479   0.00000  Uiso   1.00
C287   C     0.60614   0.04834   0.67485   0.00000  Uiso   1.00
C288   C     0.61241   0.12890   0.67992   0.00000  Uiso   1.00
C289   C     0.64748   0.25747   0.66954   0.00000  Uiso   1.00
C290   C     0.43333   0.00760   0.79725   0.00000  Uiso   1.00
C291   C     0.39352   0.96173   0.73417   0.00000  Uiso   1.00
C292   C     0.31485   0.96160   0.71905   0.00000  Uiso   1.00
C293   C     0.28981   0.91576   0.65884   0.00000  Uiso   1.00
C294   C     0.47743   0.94780   0.84450   0.00000  Uiso   1.00
C295   C     0.46934   0.93597   0.92213   0.00000  Uiso   1.00
C296   C     0.51494   0.87842   0.95480   0.00000  Uiso   1.00
C297   C     0.49441   0.05763   0.75825   0.00000  Uiso   1.00
C298   C     0.50060   0.13815   0.76339   0.00000  Uiso   1.00
C299   C     0.56051   0.17307   0.72347   0.00000  Uiso   1.00
H300   H     0.56906   0.89209   0.68339   0.00000  Uiso   1.00
H301   H     0.46051   0.83766   0.59689   0.00000  Uiso   1.00
H302   H     0.61497   0.81205   0.79994   0.00000  Uiso   1.00
H303   H     0.64622   0.01420   0.64122   0.00000  Uiso   1.00
H304   H     0.31730   0.79675   0.52017   0.00000  Uiso   1.00
H305   H     0.64301   0.74276   0.94833   0.00000  Uiso   1.00
H306   H     0.70892   0.16903   0.61364   0.00000  Uiso   1.00
H307   H     0.39299   0.04193   0.83109   0.00000  Uiso   1.00
H308   H     0.27477   0.99573   0.75269   0.00000  Uiso   1.00
H309   H     0.42924   0.97011   0.95575   0.00000  Uiso   1.00
H310   H     0.46049   0.17226   0.79703   0.00000  Uiso   1.00
H311   H     0.16656   0.92504   0.64663   0.00000  Uiso   1.00
H312   H     0.49227   0.87105   0.07479   0.00000  Uiso   1.00
H313   H     0.55817   0.29732   0.74010   0.00000  Uiso   1.00
O314   O     0.16734   0.82778   0.52918   0.00000  Uiso   1.00
O315   O     0.59467   0.75695   0.09090   0.00000  Uiso   1.00
O316   O     0.68113   0.31621   0.65179   0.00000  Uiso   1.00
N317   N     0.29805   0.83330   0.56068   0.00000  Uiso   1.00
N318   N     0.60256   0.78281   0.96098   0.00000  Uiso   1.00
N319   N     0.66419   0.18133   0.64809   0.00000  Uiso   1.00
N320   N     0.21693   0.90233   0.62873   0.00000  Uiso   1.00
N321   N     0.52144   0.85184   0.02903   0.00000  Uiso   1.00
N322   N     0.58308   0.25036   0.71614   0.00000  Uiso   1.00
C323   C     0.97128   0.57358   0.71723   0.00000  Uiso   1.00
C324   C     0.05467   0.58237   0.69071   0.00000  Uiso   1.00
C325   C     0.07961   0.62821   0.63051   0.00000  Uiso   1.00
C326   C     0.15829   0.62841   0.61530   0.00000  Uiso   1.00
C327   C     0.27990   0.64879   0.56753   0.00000  Uiso   1.00
C328   C     0.97076   0.59629   0.80103   0.00000  Uiso   1.00
C329   C     0.92513   0.65384   0.83359   0.00000  Uiso   1.00
C330   C     0.93316   0.66575   0.91126   0.00000  Uiso   1.00
C331   C     0.92445   0.70771   0.03478   0.00000  Uiso   1.00
C332   C     0.95378   0.48646   0.71479   0.00000  Uiso   1.00
C333   C     0.89386   0.45166   0.67485   0.00000  Uiso   1.00
C334   C     0.88759   0.37110   0.67992   0.00000  Uiso   1.00
C335   C     0.85252   0.24253   0.66954   0.00000  Uiso   1.00
C336   C     0.06667   0.49240   0.79725   0.00000  Uiso   1.00
C337   C     0.10648   0.53827   0.73417   0.00000  Uiso   1.00
C338   C     0.18515   0.53840   0.71905   0.00000  Uiso   1.00
C339   C     0.21019   0.58424   0.65884   0.00000  Uiso   1.00
C340   C     0.02257   0.55220   0.84450   0.00000  Uiso   1.00
C341   C     0.03066   0.56403   0.92213   0.00000  Uiso   1.00
C342   C     0.98506   0.62158   0.95480   0.00000  Uiso   1.00
C343   C     0.00559   0.44237   0.75825   0.00000  Uiso   1.00
C344   C     0.99940   0.36185   0.76339   0.00000  Uiso   1.00
C345   C     0.93949   0.32693   0.72347   0.00000  Uiso   1.00
H346   H     0.93094   0.60791   0.68339   0.00000  Uiso   1.00
H347   H     0.03949   0.66234   0.59689   0.00000  Uiso   1.00
H348   H     0.88503   0.68795   0.79994   0.00000  Uiso   1.00
H349   H     0.85378   0.48580   0.64122   0.00000  Uiso   1.00
H350   H     0.18270   0.70325   0.52017   0.00000  Uiso   1.00
H351   H     0.85699   0.75724   0.94833   0.00000  Uiso   1.00
H352   H     0.79108   0.33097   0.61364   0.00000  Uiso   1.00
H353   H     0.10701   0.45807   0.83109   0.00000  Uiso   1.00
H354   H     0.22523   0.50427   0.75269   0.00000  Uiso   1.00
H355   H     0.07076   0.52989   0.95575   0.00000  Uiso   1.00
H356   H     0.03951   0.32774   0.79703   0.00000  Uiso   1.00
H357   H     0.33344   0.57496   0.64663   0.00000  Uiso   1.00
H358   H     0.00773   0.62895   0.07479   0.00000  Uiso   1.00
H359   H     0.94183   0.20268   0.74010   0.00000  Uiso   1.00
O360   O     0.33266   0.67222   0.52918   0.00000  Uiso   1.00
O361   O     0.90533   0.74305   0.09090   0.00000  Uiso   1.00
O362   O     0.81887   0.18379   0.65179   0.00000  Uiso   1.00
N363   N     0.20195   0.66670   0.56068   0.00000  Uiso   1.00
N364   N     0.89744   0.71719   0.96098   0.00000  Uiso   1.00
N365   N     0.83581   0.31867   0.64809   0.00000  Uiso   1.00
N366   N     0.28307   0.59767   0.62873   0.00000  Uiso   1.00
N367   N     0.97856   0.64816   0.02903   0.00000  Uiso   1.00
N368   N     0.91692   0.24964   0.71614   0.00000  Uiso   1.00
