data_job_07103
_audit_creation_date              2018-12-19
_audit_creation_method            'Materials Studio'
_symmetry_space_group_name_H-M    'P1'
_symmetry_Int_Tables_number       1
_symmetry_cell_setting            triclinic
loop_
_symmetry_equiv_pos_as_xyz
  x,y,z
_cell_length_a                    23.0380
_cell_length_b                    22.8204
_cell_length_c                    21.3425
_cell_angle_alpha                 79.9278
_cell_angle_beta                  65.9512
_cell_angle_gamma                 98.8692
loop_
_atom_site_label
_atom_site_type_symbol
_atom_site_fract_x
_atom_site_fract_y
_atom_site_fract_z
_atom_site_U_iso_or_equiv
_atom_site_adp_type
_atom_site_occupancy
C1     C     0.01442   0.21724   0.19094   0.00000  Uiso   1.00
C2     C     0.99439   0.15355   0.24138   0.00000  Uiso   1.00
C3     C     0.03574   0.11537   0.24166   0.00000  Uiso   1.00
C4     C     0.00796   0.05886   0.29202   0.00000  Uiso   1.00
C5     C     0.98700   0.96263   0.36297   0.00000  Uiso   1.00
C6     C     0.96974   0.21503   0.15433   0.00000  Uiso   1.00
C7     C     0.99038   0.22854   0.08143   0.00000  Uiso   1.00
C8     C     0.94185   0.22379   0.05851   0.00000  Uiso   1.00
C9     C     0.88263   0.22305   0.99433   0.00000  Uiso   1.00
C10    C     0.99492   0.26090   0.23803   0.00000  Uiso   1.00
C11    C     0.03673   0.31301   0.23549   0.00000  Uiso   1.00
C12    C     0.00940   0.34689   0.28303   0.00000  Uiso   1.00
C13    C     0.98928   0.41739   0.34880   0.00000  Uiso   1.00
C14    C     0.89154   0.18479   0.27987   0.00000  Uiso   1.00
C15    C     0.92764   0.13592   0.28968   0.00000  Uiso   1.00
C16    C     0.89979   0.07946   0.34005   0.00000  Uiso   1.00
C17    C     0.94110   0.04120   0.34041   0.00000  Uiso   1.00
C18    C     0.90300   0.19740   0.20263   0.00000  Uiso   1.00
C19    C     0.85443   0.19263   0.17982   0.00000  Uiso   1.00
C20    C     0.87499   0.20613   0.10690   0.00000  Uiso   1.00
C21    C     0.92818   0.24328   0.28634   0.00000  Uiso   1.00
C22    C     0.90078   0.27709   0.33388   0.00000  Uiso   1.00
C23    C     0.94254   0.32923   0.33142   0.00000  Uiso   1.00
H24    H     0.06638   0.23097   0.15333   0.00000  Uiso   1.00
H25    H     0.08739   0.12903   0.20427   0.00000  Uiso   1.00
H26    H     0.04203   0.24219   0.04406   0.00000  Uiso   1.00
H27    H     0.08838   0.32663   0.19811   0.00000  Uiso   1.00
H28    H     0.08124   0.00822   0.28203   0.00000  Uiso   1.00
H29    H     0.98561   0.24685   0.94423   0.00000  Uiso   1.00
H30    H     0.08333   0.42492   0.26905   0.00000  Uiso   1.00
H31    H     0.83957   0.17106   0.31747   0.00000  Uiso   1.00
H32    H     0.84814   0.06583   0.37742   0.00000  Uiso   1.00
H33    H     0.80278   0.17899   0.21721   0.00000  Uiso   1.00
H34    H     0.84912   0.26344   0.37126   0.00000  Uiso   1.00
H35    H     0.88706   0.95693   0.42257   0.00000  Uiso   1.00
H36    H     0.79142   0.19556   0.08476   0.00000  Uiso   1.00
H37    H     0.88915   0.37363   0.40959   0.00000  Uiso   1.00
O38    O     0.99387   0.91442   0.38876   0.00000  Uiso   1.00
O39    O     0.86840   0.22751   0.94558   0.00000  Uiso   1.00
O40    O     0.99662   0.46113   0.37174   0.00000  Uiso   1.00
N41    N     0.03437   0.01060   0.30689   0.00000  Uiso   1.00
N42    N     0.94496   0.23369   0.99106   0.00000  Uiso   1.00
N43    N     0.03632   0.40018   0.29473   0.00000  Uiso   1.00
N44    N     0.92988   0.98300   0.38251   0.00000  Uiso   1.00
N45    N     0.84047   0.20609   0.06668   0.00000  Uiso   1.00
N46    N     0.93183   0.37258   0.37035   0.00000  Uiso   1.00
C47    C     0.39834   0.09442   0.91536   0.00000  Uiso   1.00
C48    C     0.46098   0.07342   0.88082   0.00000  Uiso   1.00
C49    C     0.50600   0.09348   0.80949   0.00000  Uiso   1.00
C50    C     0.56016   0.06872   0.78835   0.00000  Uiso   1.00
C51    C     0.65608   0.04267   0.72734   0.00000  Uiso   1.00
C52    C     0.34234   0.03622   0.95076   0.00000  Uiso   1.00
C53    C     0.28760   0.02502   0.93823   0.00000  Uiso   1.00
C54    C     0.24189   0.96894   0.97596   0.00000  Uiso   1.00
C55    C     0.15359   0.88516   0.02357   0.00000  Uiso   1.00
C56    C     0.40275   0.11903   0.97568   0.00000  Uiso   1.00
C57    C     0.39879   0.17745   0.98412   0.00000  Uiso   1.00
C58    C     0.40392   0.19110   0.04285   0.00000  Uiso   1.00
C59    C     0.40942   0.23589   0.12915   0.00000  Uiso   1.00
C60    C     0.41447   0.01477   0.00465   0.00000  Uiso   1.00
C61    C     0.46974   0.03016   0.92933   0.00000  Uiso   1.00
C62    C     0.52385   0.00536   0.90828   0.00000  Uiso   1.00
C63    C     0.56894   0.02539   0.83693   0.00000  Uiso   1.00
C64    C     0.35110   0.99296   0.99926   0.00000  Uiso   1.00
C65    C     0.30545   0.93689   0.03702   0.00000  Uiso   1.00
C66    C     0.25067   0.92560   0.02455   0.00000  Uiso   1.00
C67    C     0.41151   0.07577   0.02418   0.00000  Uiso   1.00
C68    C     0.41664   0.08933   0.08291   0.00000  Uiso   1.00
C69    C     0.41270   0.14775   0.09144   0.00000  Uiso   1.00
H70    H     0.39151   0.12810   0.87760   0.00000  Uiso   1.00
H71    H     0.49920   0.12696   0.77198   0.00000  Uiso   1.00
H72    H     0.28083   0.05851   0.90070   0.00000  Uiso   1.00
H73    H     0.39201   0.21092   0.94658   0.00000  Uiso   1.00
H74    H     0.62244   0.10660   0.67625   0.00000  Uiso   1.00
H75    H     0.16200   0.96227   0.94769   0.00000  Uiso   1.00
H76    H     0.39642   0.28366   0.04445   0.00000  Uiso   1.00
H77    H     0.42129   0.98109   0.04241   0.00000  Uiso   1.00
H78    H     0.53061   0.97188   0.94583   0.00000  Uiso   1.00
H79    H     0.31225   0.90343   0.07455   0.00000  Uiso   1.00
H80    H     0.42342   0.05584   0.12043   0.00000  Uiso   1.00
H81    H     0.64794   0.98073   0.81736   0.00000  Uiso   1.00
H82    H     0.18749   0.83640   0.08880   0.00000  Uiso   1.00
H83    H     0.42192   0.15779   0.18555   0.00000  Uiso   1.00
O84    O     0.70656   0.04025   0.68029   0.00000  Uiso   1.00
O85    O     0.10247   0.85090   0.03642   0.00000  Uiso   1.00
O86    O     0.41004   0.27255   0.16335   0.00000  Uiso   1.00
N87    N     0.61344   0.07825   0.72272   0.00000  Uiso   1.00
N88    N     0.18296   0.94331   0.97649   0.00000  Uiso   1.00
N89    N     0.40211   0.24377   0.06696   0.00000  Uiso   1.00
N90    N     0.62717   0.01052   0.79865   0.00000  Uiso   1.00
N91    N     0.19668   0.87558   0.05242   0.00000  Uiso   1.00
N92    N     0.41584   0.17604   0.14288   0.00000  Uiso   1.00
C93    C     0.14193   0.15786   0.88957   0.00000  Uiso   1.00
C94    C     0.12174   0.20290   0.84544   0.00000  Uiso   1.00
C95    C     0.05776   0.20476   0.85965   0.00000  Uiso   1.00
C96    C     0.04958   0.24941   0.81287   0.00000  Uiso   1.00
C97    C     0.01003   0.31304   0.75328   0.00000  Uiso   1.00
C98    C     0.18475   0.12571   0.83851   0.00000  Uiso   1.00
C99    C     0.17374   0.06268   0.84689   0.00000  Uiso   1.00
C100   C     0.21860   0.04236   0.79428   0.00000  Uiso   1.00
C101   C     0.27689   0.98616   0.72396   0.00000  Uiso   1.00
C102   C     0.18731   0.19705   0.91051   0.00000  Uiso   1.00
C103   C     0.17848   0.19399   0.97944   0.00000  Uiso   1.00
C104   C     0.22551   0.23373   0.98745   0.00000  Uiso   1.00
C105   C     0.28779   0.28830   0.02893   0.00000  Uiso   1.00
C106   C     0.24117   0.23387   0.78123   0.00000  Uiso   1.00
C107   C     0.17565   0.24418   0.78659   0.00000  Uiso   1.00
C108   C     0.16756   0.28885   0.73978   0.00000  Uiso   1.00
C109   C     0.10358   0.29077   0.75392   0.00000  Uiso   1.00
C110   C     0.23865   0.16699   0.77966   0.00000  Uiso   1.00
C111   C     0.28354   0.14677   0.72703   0.00000  Uiso   1.00
C112   C     0.27260   0.08372   0.73533   0.00000  Uiso   1.00
C113   C     0.24122   0.23834   0.85167   0.00000  Uiso   1.00
C114   C     0.28827   0.27809   0.85958   0.00000  Uiso   1.00
C115   C     0.27951   0.27509   0.92850   0.00000  Uiso   1.00
H116   H     0.09997   0.12572   0.93538   0.00000  Uiso   1.00
H117   H     0.01606   0.17279   0.90519   0.00000  Uiso   1.00
H118   H     0.13203   0.03074   0.89244   0.00000  Uiso   1.00
H119   H     0.13676   0.16204   0.02496   0.00000  Uiso   1.00
H120   H     0.94680   0.24318   0.84575   0.00000  Uiso   1.00
H121   H     0.19134   0.94365   0.81888   0.00000  Uiso   1.00
H122   H     0.20132   0.22052   0.09834   0.00000  Uiso   1.00
H123   H     0.28314   0.26601   0.73542   0.00000  Uiso   1.00
H124   H     0.20928   0.32079   0.69425   0.00000  Uiso   1.00
H125   H     0.32525   0.17873   0.68150   0.00000  Uiso   1.00
H126   H     0.32998   0.31003   0.81403   0.00000  Uiso   1.00
H127   H     0.10363   0.36329   0.67454   0.00000  Uiso   1.00
H128   H     0.34816   0.06376   0.64768   0.00000  Uiso   1.00
H129   H     0.35814   0.34063   0.92713   0.00000  Uiso   1.00
O130   O     0.97333   0.33673   0.73666   0.00000  Uiso   1.00
O131   O     0.29415   0.94375   0.70142   0.00000  Uiso   1.00
O132   O     0.30724   0.30700   0.06806   0.00000  Uiso   1.00
N133   N     0.99385   0.26394   0.81111   0.00000  Uiso   1.00
N134   N     0.22247   0.98390   0.78599   0.00000  Uiso   1.00
N135   N     0.23181   0.24273   0.04726   0.00000  Uiso   1.00
N136   N     0.07824   0.32857   0.71899   0.00000  Uiso   1.00
N137   N     0.30685   0.04853   0.69386   0.00000  Uiso   1.00
N138   N     0.31620   0.30736   0.95513   0.00000  Uiso   1.00
C139   C     0.39430   0.72095   0.42190   0.00000  Uiso   1.00
C140   C     0.38570   0.75529   0.35948   0.00000  Uiso   1.00
C141   C     0.42878   0.76639   0.28809   0.00000  Uiso   1.00
C142   C     0.41210   0.79862   0.23909   0.00000  Uiso   1.00
C143   C     0.40751   0.84881   0.13888   0.00000  Uiso   1.00
C144   C     0.33262   0.66842   0.46487   0.00000  Uiso   1.00
C145   C     0.33108   0.60648   0.48209   0.00000  Uiso   1.00
C146   C     0.26972   0.56558   0.52181   0.00000  Uiso   1.00
C147   C     0.18272   0.48091   0.58526   0.00000  Uiso   1.00
C148   C     0.39178   0.76484   0.46871   0.00000  Uiso   1.00
C149   C     0.43997   0.78396   0.48917   0.00000  Uiso   1.00
C150   C     0.42841   0.82423   0.53215   0.00000  Uiso   1.00
C151   C     0.43328   0.88926   0.60155   0.00000  Uiso   1.00
C152   C     0.28808   0.75845   0.46184   0.00000  Uiso   1.00
C153   C     0.32801   0.77565   0.38118   0.00000  Uiso   1.00
C154   C     0.31126   0.80787   0.33228   0.00000  Uiso   1.00
C155   C     0.35431   0.81902   0.26083   0.00000  Uiso   1.00
C156   C     0.27493   0.68878   0.48657   0.00000  Uiso   1.00
C157   C     0.21356   0.64797   0.52628   0.00000  Uiso   1.00
C158   C     0.21192   0.58598   0.54355   0.00000  Uiso   1.00
C159   C     0.33409   0.78520   0.49041   0.00000  Uiso   1.00
C160   C     0.32245   0.82545   0.53336   0.00000  Uiso   1.00
C161   C     0.37061   0.84463   0.55389   0.00000  Uiso   1.00
H162   H     0.43921   0.70509   0.40501   0.00000  Uiso   1.00
H163   H     0.47342   0.75061   0.27132   0.00000  Uiso   1.00
H164   H     0.37573   0.59073   0.46530   0.00000  Uiso   1.00
H165   H     0.48461   0.76819   0.47237   0.00000  Uiso   1.00
H166   H     0.48589   0.81005   0.13267   0.00000  Uiso   1.00
H167   H     0.27991   0.47293   0.54170   0.00000  Uiso   1.00
H168   H     0.50950   0.84713   0.55663   0.00000  Uiso   1.00
H169   H     0.24316   0.77430   0.47874   0.00000  Uiso   1.00
H170   H     0.26661   0.82363   0.34909   0.00000  Uiso   1.00
H171   H     0.16892   0.66374   0.54307   0.00000  Uiso   1.00
H172   H     0.27780   0.84120   0.55014   0.00000  Uiso   1.00
H173   H     0.31803   0.86931   0.19579   0.00000  Uiso   1.00
H174   H     0.11205   0.53219   0.60482   0.00000  Uiso   1.00
H175   H     0.34165   0.90639   0.61975   0.00000  Uiso   1.00
O176   O     0.42091   0.87086   0.07761   0.00000  Uiso   1.00
O177   O     0.15067   0.42858   0.61425   0.00000  Uiso   1.00
O178   O     0.45190   0.91951   0.63384   0.00000  Uiso   1.00
N179   N     0.44317   0.81724   0.16532   0.00000  Uiso   1.00
N180   N     0.25059   0.50205   0.54773   0.00000  Uiso   1.00
N181   N     0.46523   0.85188   0.56170   0.00000  Uiso   1.00
N182   N     0.35285   0.84913   0.19928   0.00000  Uiso   1.00
N183   N     0.16027   0.53394   0.58169   0.00000  Uiso   1.00
N184   N     0.37491   0.88377   0.59566   0.00000  Uiso   1.00
C185   C     0.78835   0.70890   0.33389   0.00000  Uiso   1.00
C186   C     0.81025   0.65067   0.34987   0.00000  Uiso   1.00
C187   C     0.77099   0.59105   0.37533   0.00000  Uiso   1.00
C188   C     0.80024   0.54402   0.38651   0.00000  Uiso   1.00
C189   C     0.82419   0.45173   0.41339   0.00000  Uiso   1.00
C190   C     0.83464   0.74232   0.25638   0.00000  Uiso   1.00
C191   C     0.81588   0.75977   0.20325   0.00000  Uiso   1.00
C192   C     0.86567   0.78990   0.13574   0.00000  Uiso   1.00
C193   C     0.92748   0.83995   0.01749   0.00000  Uiso   1.00
C194   C     0.80362   0.74913   0.37799   0.00000  Uiso   1.00
C195   C     0.75877   0.77233   0.42710   0.00000  Uiso   1.00
C196   C     0.78244   0.80821   0.46197   0.00000  Uiso   1.00
C197   C     0.79609   0.86883   0.53254   0.00000  Uiso   1.00
C198   C     0.91014   0.73140   0.30848   0.00000  Uiso   1.00
C199   C     0.87640   0.66289   0.33606   0.00000  Uiso   1.00
C200   C     0.90572   0.61594   0.34721   0.00000  Uiso   1.00
C201   C     0.86651   0.55626   0.37269   0.00000  Uiso   1.00
C202   C     0.90079   0.75454   0.24258   0.00000  Uiso   1.00
C203   C     0.95062   0.78466   0.17513   0.00000  Uiso   1.00
C204   C     0.93194   0.80214   0.12191   0.00000  Uiso   1.00
C205   C     0.86977   0.76135   0.36419   0.00000  Uiso   1.00
C206   C     0.89351   0.79721   0.39899   0.00000  Uiso   1.00
C207   C     0.84871   0.82045   0.44814   0.00000  Uiso   1.00
H208   H     0.73685   0.69939   0.34463   0.00000  Uiso   1.00
H209   H     0.71980   0.58161   0.38600   0.00000  Uiso   1.00
H210   H     0.76469   0.75031   0.21395   0.00000  Uiso   1.00
H211   H     0.70759   0.76286   0.43777   0.00000  Uiso   1.00
H212   H     0.73006   0.45642   0.42575   0.00000  Uiso   1.00
H213   H     0.82471   0.81215   0.06298   0.00000  Uiso   1.00
H214   H     0.70431   0.83861   0.53495   0.00000  Uiso   1.00
H215   H     0.96164   0.74091   0.29773   0.00000  Uiso   1.00
H216   H     0.95691   0.62540   0.33652   0.00000  Uiso   1.00
H217   H     0.00180   0.79411   0.16447   0.00000  Uiso   1.00
H218   H     0.94470   0.80665   0.38829   0.00000  Uiso   1.00
H219   H     0.92252   0.49196   0.38559   0.00000  Uiso   1.00
H220   H     0.01716   0.84770   0.02282   0.00000  Uiso   1.00
H221   H     0.89676   0.87416   0.49479   0.00000  Uiso   1.00
O222   O     0.81913   0.39746   0.43201   0.00000  Uiso   1.00
O223   O     0.94331   0.86418   0.95608   0.00000  Uiso   1.00
O224   O     0.78534   0.89889   0.57529   0.00000  Uiso   1.00
N225   N     0.77600   0.48064   0.41099   0.00000  Uiso   1.00
N226   N     0.86449   0.81322   0.07181   0.00000  Uiso   1.00
N227   N     0.75193   0.83797   0.51305   0.00000  Uiso   1.00
N228   N     0.87956   0.49976   0.38938   0.00000  Uiso   1.00
N229   N     0.96805   0.83234   0.05021   0.00000  Uiso   1.00
N230   N     0.85549   0.85710   0.49144   0.00000  Uiso   1.00
C231   C     0.72521   0.37103   0.62162   0.00000  Uiso   1.00
C232   C     0.67113   0.35791   0.69728   0.00000  Uiso   1.00
C233   C     0.61775   0.38371   0.71800   0.00000  Uiso   1.00
C234   C     0.57369   0.36575   0.78973   0.00000  Uiso   1.00
C235   C     0.48831   0.35177   0.89972   0.00000  Uiso   1.00
C236   C     0.72632   0.30887   0.60473   0.00000  Uiso   1.00
C237   C     0.71936   0.29345   0.54764   0.00000  Uiso   1.00
C238   C     0.72177   0.23420   0.54146   0.00000  Uiso   1.00
C239   C     0.72214   0.14411   0.50774   0.00000  Uiso   1.00
C240   C     0.78962   0.39300   0.62490   0.00000  Uiso   1.00
C241   C     0.83589   0.44831   0.58475   0.00000  Uiso   1.00
C242   C     0.89160   0.45990   0.59553   0.00000  Uiso   1.00
C243   C     0.99024   0.50044   0.59312   0.00000  Uiso   1.00
C244   C     0.74190   0.29324   0.71215   0.00000  Uiso   1.00
C245   C     0.68019   0.31565   0.74645   0.00000  Uiso   1.00
C246   C     0.63620   0.29765   0.81816   0.00000  Uiso   1.00
C247   C     0.58276   0.32342   0.83899   0.00000  Uiso   1.00
C248   C     0.73538   0.26662   0.65390   0.00000  Uiso   1.00
C249   C     0.73782   0.20739   0.64780   0.00000  Uiso   1.00
C250   C     0.73085   0.19188   0.59072   0.00000  Uiso   1.00
C251   C     0.79868   0.35075   0.67407   0.00000  Uiso   1.00
C252   C     0.85434   0.36225   0.68491   0.00000  Uiso   1.00
C253   C     0.90068   0.41758   0.64479   0.00000  Uiso   1.00
H254   H     0.71816   0.40392   0.58334   0.00000  Uiso   1.00
H255   H     0.61075   0.41640   0.67993   0.00000  Uiso   1.00
H256   H     0.71235   0.32615   0.50959   0.00000  Uiso   1.00
H257   H     0.82886   0.48100   0.54670   0.00000  Uiso   1.00
H258   H     0.49564   0.41159   0.80871   0.00000  Uiso   1.00
H259   H     0.70991   0.22130   0.44952   0.00000  Uiso   1.00
H260   H     0.95558   0.54783   0.52777   0.00000  Uiso   1.00
H261   H     0.74895   0.26035   0.75043   0.00000  Uiso   1.00
H262   H     0.64323   0.26495   0.85620   0.00000  Uiso   1.00
H263   H     0.74483   0.17470   0.68586   0.00000  Uiso   1.00
H264   H     0.86134   0.32955   0.72297   0.00000  Uiso   1.00
H265   H     0.52200   0.28867   0.95177   0.00000  Uiso   1.00
H266   H     0.73627   0.09838   0.59258   0.00000  Uiso   1.00
H267   H     0.98194   0.42490   0.67083   0.00000  Uiso   1.00
O268   O     0.43871   0.35573   0.94680   0.00000  Uiso   1.00
O269   O     0.71983   0.10609   0.47555   0.00000  Uiso   1.00
O270   O     0.04214   0.53448   0.57821   0.00000  Uiso   1.00
N271   N     0.51636   0.38204   0.82786   0.00000  Uiso   1.00
N272   N     0.71668   0.20413   0.49205   0.00000  Uiso   1.00
N273   N     0.94637   0.50939   0.56519   0.00000  Uiso   1.00
N274   N     0.53055   0.31589   0.90485   0.00000  Uiso   1.00
N275   N     0.73086   0.13799   0.56904   0.00000  Uiso   1.00
N276   N     0.96055   0.44325   0.64218   0.00000  Uiso   1.00
C277   C     0.97237   0.88459   0.61714   0.00000  Uiso   1.00
C278   C     0.99818   0.94521   0.55982   0.00000  Uiso   1.00
C279   C     0.96185   0.98684   0.55260   0.00000  Uiso   1.00
C280   C     0.99446   0.03963   0.49667   0.00000  Uiso   1.00
C281   C     0.02441   0.13214   0.41484   0.00000  Uiso   1.00
C282   C     0.01641   0.88727   0.65449   0.00000  Uiso   1.00
C283   C     0.99540   0.88018   0.72688   0.00000  Uiso   1.00
C284   C     0.04335   0.88419   0.75064   0.00000  Uiso   1.00
C285   C     0.10161   0.88671   0.81579   0.00000  Uiso   1.00
C286   C     0.98648   0.83480   0.57784   0.00000  Uiso   1.00
C287   C     0.94032   0.78358   0.58579   0.00000  Uiso   1.00
C288   C     0.96309   0.74341   0.54502   0.00000  Uiso   1.00
C289   C     0.97488   0.66446   0.49116   0.00000  Uiso   1.00
C290   C     0.09488   0.90430   0.53064   0.00000  Uiso   1.00
C291   C     0.06472   0.95591   0.51284   0.00000  Uiso   1.00
C292   C     0.09739   0.00865   0.45690   0.00000  Uiso   1.00
C293   C     0.06112   0.05036   0.44960   0.00000  Uiso   1.00
C294   C     0.08295   0.89798   0.60751   0.00000  Uiso   1.00
C295   C     0.13094   0.90199   0.63117   0.00000  Uiso   1.00
C296   C     0.11002   0.89492   0.70357   0.00000  Uiso   1.00
C297   C     0.05303   0.84551   0.53085   0.00000  Uiso   1.00
C298   C     0.07587   0.80540   0.49008   0.00000  Uiso   1.00
C299   C     0.02975   0.75414   0.49795   0.00000  Uiso   1.00
H300   H     0.92057   0.87625   0.65373   0.00000  Uiso   1.00
H301   H     0.91036   0.97854   0.58898   0.00000  Uiso   1.00
H302   H     0.94390   0.87189   0.76323   0.00000  Uiso   1.00
H303   H     0.88884   0.77531   0.62215   0.00000  Uiso   1.00
H304   H     0.92839   0.09668   0.49650   0.00000  Uiso   1.00
H305   H     0.99912   0.87178   0.86390   0.00000  Uiso   1.00
H306   H     0.88300   0.66813   0.56642   0.00000  Uiso   1.00
H307   H     0.14669   0.91264   0.49406   0.00000  Uiso   1.00
H308   H     0.14889   0.01693   0.42055   0.00000  Uiso   1.00
H309   H     0.18243   0.91028   0.59480   0.00000  Uiso   1.00
H310   H     0.12736   0.81370   0.45372   0.00000  Uiso   1.00
H311   H     0.12199   0.12784   0.35979   0.00000  Uiso   1.00
H312   H     0.19272   0.90293   0.72720   0.00000  Uiso   1.00
H313   H     0.07660   0.69928   0.42972   0.00000  Uiso   1.00
O314   O     0.02256   0.18021   0.38268   0.00000  Uiso   1.00
O315   O     0.11535   0.88514   0.86471   0.00000  Uiso   1.00
O316   O     0.96301   0.61796   0.47441   0.00000  Uiso   1.00
N317   N     0.97365   0.08969   0.47440   0.00000  Uiso   1.00
N318   N     0.03978   0.87944   0.81791   0.00000  Uiso   1.00
N319   N     0.93122   0.68903   0.53980   0.00000  Uiso   1.00
N320   N     0.07782   0.10646   0.40084   0.00000  Uiso   1.00
N321   N     0.14395   0.89620   0.74435   0.00000  Uiso   1.00
N322   N     0.03539   0.70579   0.46624   0.00000  Uiso   1.00
C323   C     0.88237   0.00840   0.85523   0.00000  Uiso   1.00
C324   C     0.83440   0.04684   0.88563   0.00000  Uiso   1.00
C325   C     0.80385   0.04747   0.95649   0.00000  Uiso   1.00
C326   C     0.76165   0.08579   0.97360   0.00000  Uiso   1.00
C327   C     0.68891   0.13998   0.02870   0.00000  Uiso   1.00
C328   C     0.94488   0.05375   0.79682   0.00000  Uiso   1.00
C329   C     0.00722   0.06019   0.79301   0.00000  Uiso   1.00
C330   C     0.05802   0.10432   0.73535   0.00000  Uiso   1.00
C331   C     0.15681   0.16921   0.65255   0.00000  Uiso   1.00
C332   C     0.85369   0.97046   0.81769   0.00000  Uiso   1.00
C333   C     0.83936   0.90686   0.83141   0.00000  Uiso   1.00
C334   C     0.81340   0.88087   0.79130   0.00000  Uiso   1.00
C335   C     0.77059   0.81644   0.74090   0.00000  Uiso   1.00
C336   C     0.86175   0.07533   0.75960   0.00000  Uiso   1.00
C337   C     0.82321   0.08320   0.83369   0.00000  Uiso   1.00
C338   C     0.78104   0.12152   0.85069   0.00000  Uiso   1.00
C339   C     0.75043   0.12221   0.92156   0.00000  Uiso   1.00
C340   C     0.93369   0.09011   0.74488   0.00000  Uiso   1.00
C341   C     0.98441   0.13424   0.68721   0.00000  Uiso   1.00
C342   C     0.04681   0.14074   0.68331   0.00000  Uiso   1.00
C343   C     0.84249   0.00682   0.76575   0.00000  Uiso   1.00
C344   C     0.81655   0.98092   0.72561   0.00000  Uiso   1.00
C345   C     0.80218   0.91729   0.73926   0.00000  Uiso   1.00
H346   H     0.89109   0.98009   0.89567   0.00000  Uiso   1.00
H347   H     0.81253   0.01933   0.99668   0.00000  Uiso   1.00
H348   H     0.01587   0.03204   0.83321   0.00000  Uiso   1.00
H349   H     0.84803   0.87875   0.87161   0.00000  Uiso   1.00
H350   H     0.72052   0.07889   0.08575   0.00000  Uiso   1.00
H351   H     0.14927   0.10567   0.74107   0.00000  Uiso   1.00
H352   H     0.79536   0.78241   0.82203   0.00000  Uiso   1.00
H353   H     0.85304   0.10363   0.71915   0.00000  Uiso   1.00
H354   H     0.77239   0.14965   0.81048   0.00000  Uiso   1.00
H355   H     0.97573   0.16236   0.64702   0.00000  Uiso   1.00
H356   H     0.80789   0.00907   0.68541   0.00000  Uiso   1.00
H357   H     0.68794   0.18466   0.93463   0.00000  Uiso   1.00
H358   H     0.11670   0.21144   0.58995   0.00000  Uiso   1.00
H359   H     0.76278   0.88819   0.67091   0.00000  Uiso   1.00
O360   O     0.65188   0.15983   0.07345   0.00000  Uiso   1.00
O361   O     0.21439   0.19496   0.62124   0.00000  Uiso   1.00
O362   O     0.75006   0.77086   0.72746   0.00000  Uiso   1.00
N363   N     0.72391   0.09745   0.03765   0.00000  Uiso   1.00
N364   N     0.12477   0.12250   0.71541   0.00000  Uiso   1.00
N365   N     0.79390   0.82029   0.79108   0.00000  Uiso   1.00
N366   N     0.70638   0.15437   0.95633   0.00000  Uiso   1.00
N367   N     0.10724   0.17942   0.63409   0.00000  Uiso   1.00
N368   N     0.77637   0.87720   0.70976   0.00000  Uiso   1.00
C369   C     0.10000   0.70446   0.81212   0.00000  Uiso   1.00
C370   C     0.15082   0.67067   0.77520   0.00000  Uiso   1.00
C371   C     0.21239   0.69787   0.71862   0.00000  Uiso   1.00
C372   C     0.25165   0.65900   0.69234   0.00000  Uiso   1.00
C373   C     0.33386   0.61623   0.63058   0.00000  Uiso   1.00
C374   C     0.08405   0.68594   0.89065   0.00000  Uiso   1.00
C375   C     0.08948   0.72599   0.93114   0.00000  Uiso   1.00
C376   C     0.07253   0.69997   0.00204   0.00000  Uiso   1.00
C377   C     0.05103   0.68091   0.11954   0.00000  Uiso   1.00
C378   C     0.03787   0.67632   0.80748   0.00000  Uiso   1.00
C379   C     0.00445   0.70827   0.77804   0.00000  Uiso   1.00
C380   C     0.94861   0.67415   0.77894   0.00000  Uiso   1.00
C381   C     0.85541   0.64015   0.76729   0.00000  Uiso   1.00
C382   C     0.06023   0.58706   0.86607   0.00000  Uiso   1.00
C383   C     0.12922   0.60690   0.80451   0.00000  Uiso   1.00
C384   C     0.16840   0.56797   0.77830   0.00000  Uiso   1.00
C385   C     0.23001   0.59511   0.72169   0.00000  Uiso   1.00
C386   C     0.06246   0.62218   0.91996   0.00000  Uiso   1.00
C387   C     0.04548   0.59609   0.99082   0.00000  Uiso   1.00
C388   C     0.05089   0.63608   0.03140   0.00000  Uiso   1.00
C389   C     0.01627   0.61255   0.83678   0.00000  Uiso   1.00
C390   C     0.96046   0.57837   0.83773   0.00000  Uiso   1.00
C391   C     0.92697   0.61027   0.80829   0.00000  Uiso   1.00
H392   H     0.11681   0.75411   0.78931   0.00000  Uiso   1.00
H393   H     0.22909   0.74722   0.69596   0.00000  Uiso   1.00
H394   H     0.10619   0.77533   0.90845   0.00000  Uiso   1.00
H395   H     0.02118   0.75762   0.75537   0.00000  Uiso   1.00
H396   H     0.34406   0.71147   0.60540   0.00000  Uiso   1.00
H397   H     0.08489   0.77074   0.05345   0.00000  Uiso   1.00
H398   H     0.90563   0.73339   0.73067   0.00000  Uiso   1.00
H399   H     0.04342   0.53741   0.88888   0.00000  Uiso   1.00
H400   H     0.15167   0.51863   0.80099   0.00000  Uiso   1.00
H401   H     0.02877   0.54674   0.01348   0.00000  Uiso   1.00
H402   H     0.94376   0.52903   0.86040   0.00000  Uiso   1.00
H403   H     0.28122   0.52593   0.69065   0.00000  Uiso   1.00
H404   H     0.02205   0.58521   0.13870   0.00000  Uiso   1.00
H405   H     0.84280   0.54785   0.81591   0.00000  Uiso   1.00
O406   O     0.38518   0.61026   0.58843   0.00000  Uiso   1.00
O407   O     0.04516   0.68802   0.17625   0.00000  Uiso   1.00
O408   O     0.80998   0.63902   0.75276   0.00000  Uiso   1.00
N409   N     0.31441   0.67038   0.63752   0.00000  Uiso   1.00
N410   N     0.07211   0.72579   0.05641   0.00000  Uiso   1.00
N411   N     0.90451   0.69087   0.75465   0.00000  Uiso   1.00
N412   N     0.28059   0.57054   0.68339   0.00000  Uiso   1.00
N413   N     0.03830   0.62596   0.10228   0.00000  Uiso   1.00
N414   N     0.87070   0.59104   0.80052   0.00000  Uiso   1.00
C415   C     0.64530   0.36396   0.29926   0.00000  Uiso   1.00
C416   C     0.61669   0.31052   0.36589   0.00000  Uiso   1.00
C417   C     0.56883   0.30930   0.43223   0.00000  Uiso   1.00
C418   C     0.54921   0.25612   0.48639   0.00000  Uiso   1.00
C419   C     0.50066   0.18077   0.59165   0.00000  Uiso   1.00
C420   C     0.71935   0.38029   0.27417   0.00000  Uiso   1.00
C421   C     0.75780   0.43772   0.26340   0.00000  Uiso   1.00
C422   C     0.82461   0.44327   0.24034   0.00000  Uiso   1.00
C423   C     0.93544   0.47624   0.20317   0.00000  Uiso   1.00
C424   C     0.63432   0.33786   0.24278   0.00000  Uiso   1.00
C425   C     0.60130   0.35962   0.20560   0.00000  Uiso   1.00
C426   C     0.59653   0.32945   0.15610   0.00000  Uiso   1.00
C427   C     0.57534   0.29655   0.07019   0.00000  Uiso   1.00
C428   C     0.69557   0.27169   0.27745   0.00000  Uiso   1.00
C429   C     0.64400   0.26040   0.35404   0.00000  Uiso   1.00
C430   C     0.62445   0.20721   0.40811   0.00000  Uiso   1.00
C431   C     0.57656   0.20590   0.47453   0.00000  Uiso   1.00
C432   C     0.74666   0.33017   0.26233   0.00000  Uiso   1.00
C433   C     0.81342   0.33563   0.23927   0.00000  Uiso   1.00
C434   C     0.85196   0.39306   0.22848   0.00000  Uiso   1.00
C435   C     0.66163   0.28773   0.23094   0.00000  Uiso   1.00
C436   C     0.65692   0.25753   0.18148   0.00000  Uiso   1.00
C437   C     0.62389   0.27924   0.14423   0.00000  Uiso   1.00
H438   H     0.62405   0.40299   0.30848   0.00000  Uiso   1.00
H439   H     0.54771   0.34810   0.44138   0.00000  Uiso   1.00
H440   H     0.73666   0.47650   0.27256   0.00000  Uiso   1.00
H441   H     0.58018   0.39841   0.21478   0.00000  Uiso   1.00
H442   H     0.47514   0.26515   0.58351   0.00000  Uiso   1.00
H443   H     0.87355   0.53590   0.22753   0.00000  Uiso   1.00
H444   H     0.54357   0.37123   0.10567   0.00000  Uiso   1.00
H445   H     0.71684   0.23267   0.26823   0.00000  Uiso   1.00
H446   H     0.64559   0.16843   0.39893   0.00000  Uiso   1.00
H447   H     0.83454   0.29683   0.23011   0.00000  Uiso   1.00
H448   H     0.67805   0.21875   0.17233   0.00000  Uiso   1.00
H449   H     0.55458   0.11932   0.54905   0.00000  Uiso   1.00
H450   H     0.95299   0.39007   0.19307   0.00000  Uiso   1.00
H451   H     0.62301   0.22541   0.07122   0.00000  Uiso   1.00
O452   O     0.46634   0.15306   0.65299   0.00000  Uiso   1.00
O453   O     0.98903   0.50827   0.18594   0.00000  Uiso   1.00
O454   O     0.55611   0.29224   0.02608   0.00000  Uiso   1.00
N455   N     0.50361   0.23964   0.55746   0.00000  Uiso   1.00
N456   N     0.87609   0.49277   0.22465   0.00000  Uiso   1.00
N457   N     0.56761   0.33884   0.11071   0.00000  Uiso   1.00
N458   N     0.54635   0.16117   0.53892   0.00000  Uiso   1.00
N459   N     0.91883   0.41430   0.20611   0.00000  Uiso   1.00
N460   N     0.61035   0.26037   0.09217   0.00000  Uiso   1.00
C461   C     0.30064   0.43678   0.33279   0.00000  Uiso   1.00
C462   C     0.25870   0.48148   0.35724   0.00000  Uiso   1.00
C463   C     0.27613   0.54424   0.32616   0.00000  Uiso   1.00
C464   C     0.23095   0.57715   0.35643   0.00000  Uiso   1.00
C465   C     0.17503   0.65095   0.38541   0.00000  Uiso   1.00
C466   C     0.30820   0.40531   0.39722   0.00000  Uiso   1.00
C467   C     0.36725   0.40402   0.39976   0.00000  Uiso   1.00
C468   C     0.36373   0.37280   0.46369   0.00000  Uiso   1.00
C469   C     0.38465   0.32831   0.55472   0.00000  Uiso   1.00
C470   C     0.25880   0.38712   0.31862   0.00000  Uiso   1.00
C471   C     0.27632   0.37054   0.25508   0.00000  Uiso   1.00
C472   C     0.23121   0.32400   0.25284   0.00000  Uiso   1.00
C473   C     0.17544   0.25128   0.22184   0.00000  Uiso   1.00
C474   C     0.18940   0.38362   0.44181   0.00000  Uiso   1.00
C475   C     0.19828   0.45260   0.41646   0.00000  Uiso   1.00
C476   C     0.15305   0.48542   0.44678   0.00000  Uiso   1.00
C477   C     0.17042   0.54822   0.41575   0.00000  Uiso   1.00
C478   C     0.24778   0.37643   0.45644   0.00000  Uiso   1.00
C479   C     0.24417   0.34520   0.52038   0.00000  Uiso   1.00
C480   C     0.30319   0.34387   0.52301   0.00000  Uiso   1.00
C481   C     0.19837   0.35825   0.37784   0.00000  Uiso   1.00
C482   C     0.15324   0.31172   0.37570   0.00000  Uiso   1.00
C483   C     0.17068   0.29507   0.31216   0.00000  Uiso   1.00
H484   H     0.34768   0.45926   0.28669   0.00000  Uiso   1.00
H485   H     0.32290   0.56657   0.28034   0.00000  Uiso   1.00
H486   H     0.41400   0.42637   0.35392   0.00000  Uiso   1.00
H487   H     0.32308   0.39289   0.20926   0.00000  Uiso   1.00
H488   H     0.26879   0.67281   0.29942   0.00000  Uiso   1.00
H489   H     0.46087   0.37717   0.45457   0.00000  Uiso   1.00
H490   H     0.26915   0.30658   0.14954   0.00000  Uiso   1.00
H491   H     0.14236   0.36113   0.48792   0.00000  Uiso   1.00
H492   H     0.10630   0.46306   0.49261   0.00000  Uiso   1.00
H493   H     0.19740   0.32286   0.56619   0.00000  Uiso   1.00
H494   H     0.10648   0.28939   0.42153   0.00000  Uiso   1.00
H495   H     0.09299   0.58880   0.47171   0.00000  Uiso   1.00
H496   H     0.28507   0.29316   0.62686   0.00000  Uiso   1.00
H497   H     0.09335   0.22257   0.32182   0.00000  Uiso   1.00
O498   O     0.16088   0.69964   0.38504   0.00000  Uiso   1.00
O499   O     0.41289   0.31175   0.58858   0.00000  Uiso   1.00
O500   O     0.16136   0.21915   0.18838   0.00000  Uiso   1.00
N501   N     0.23235   0.63905   0.33932   0.00000  Uiso   1.00
N502   N     0.41194   0.36265   0.48438   0.00000  Uiso   1.00
N503   N     0.23271   0.29665   0.19920   0.00000  Uiso   1.00
N504   N     0.13776   0.59385   0.43203   0.00000  Uiso   1.00
N505   N     0.31734   0.31745   0.57708   0.00000  Uiso   1.00
N506   N     0.13811   0.25144   0.29191   0.00000  Uiso   1.00
C507   C     0.43029   0.50103   0.97510   0.00000  Uiso   1.00
C508   C     0.50471   0.51118   0.94192   0.00000  Uiso   1.00
C509   C     0.53845   0.47102   0.95967   0.00000  Uiso   1.00
C510   C     0.60651   0.48870   0.92318   0.00000  Uiso   1.00
C511   C     0.71704   0.49598   0.87964   0.00000  Uiso   1.00
C512   C     0.41584   0.55656   0.00375   0.00000  Uiso   1.00
C513   C     0.37485   0.55455   0.07348   0.00000  Uiso   1.00
C514   C     0.36809   0.61043   0.08904   0.00000  Uiso   1.00
C515   C     0.34061   0.68816   0.14148   0.00000  Uiso   1.00
C516   C     0.41202   0.50581   0.91362   0.00000  Uiso   1.00
C517   C     0.36782   0.46114   0.90757   0.00000  Uiso   1.00
C518   C     0.35784   0.47430   0.84725   0.00000  Uiso   1.00
C519   C     0.32443   0.47324   0.75974   0.00000  Uiso   1.00
C520   C     0.49116   0.60384   0.87874   0.00000  Uiso   1.00
C521   C     0.53777   0.56702   0.88958   0.00000  Uiso   1.00
C522   C     0.60580   0.58477   0.85305   0.00000  Uiso   1.00
C523   C     0.63963   0.54464   0.87074   0.00000  Uiso   1.00
C524   C     0.44890   0.61240   0.95141   0.00000  Uiso   1.00
C525   C     0.44220   0.66830   0.96687   0.00000  Uiso   1.00
C526   C     0.40122   0.66637   0.03661   0.00000  Uiso   1.00
C527   C     0.44509   0.56165   0.86127   0.00000  Uiso   1.00
C528   C     0.43517   0.57489   0.80095   0.00000  Uiso   1.00
C529   C     0.39096   0.53025   0.79481   0.00000  Uiso   1.00
H530   H     0.40454   0.45756   0.01586   0.00000  Uiso   1.00
H531   H     0.51285   0.42781   0.00018   0.00000  Uiso   1.00
H532   H     0.34927   0.51133   0.11397   0.00000  Uiso   1.00
H533   H     0.34224   0.41794   0.94808   0.00000  Uiso   1.00
H534   H     0.64750   0.41947   0.95974   0.00000  Uiso   1.00
H535   H     0.30257   0.59557   0.19967   0.00000  Uiso   1.00
H536   H     0.28775   0.39863   0.84986   0.00000  Uiso   1.00
H537   H     0.51690   0.64732   0.83799   0.00000  Uiso   1.00
H538   H     0.63137   0.62798   0.81255   0.00000  Uiso   1.00
H539   H     0.46779   0.71150   0.92635   0.00000  Uiso   1.00
H540   H     0.46076   0.61810   0.76046   0.00000  Uiso   1.00
H541   H     0.74370   0.58194   0.80745   0.00000  Uiso   1.00
H542   H     0.39876   0.75804   0.04739   0.00000  Uiso   1.00
H543   H     0.38394   0.56109   0.69758   0.00000  Uiso   1.00
O544   O     0.76888   0.48457   0.87009   0.00000  Uiso   1.00
O545   O     0.31633   0.71560   0.18487   0.00000  Uiso   1.00
O546   O     0.29689   0.45722   0.72592   0.00000  Uiso   1.00
N547   N     0.65443   0.46035   0.92738   0.00000  Uiso   1.00
N548   N     0.33195   0.62500   0.15171   0.00000  Uiso   1.00
N549   N     0.31808   0.44088   0.82467   0.00000  Uiso   1.00
N550   N     0.70619   0.54777   0.84544   0.00000  Uiso   1.00
N551   N     0.38371   0.71242   0.06976   0.00000  Uiso   1.00
N552   N     0.36984   0.52830   0.74273   0.00000  Uiso   1.00
