data_job_03259
_audit_creation_date              2018-12-19
_audit_creation_method            'Materials Studio'
_symmetry_space_group_name_H-M    'P1'
_symmetry_Int_Tables_number       1
_symmetry_cell_setting            triclinic
loop_
_symmetry_equiv_pos_as_xyz
  x,y,z
_cell_length_a                    35.8155
_cell_length_b                    12.3188
_cell_length_c                    22.3184
_cell_angle_alpha                 90.0000
_cell_angle_beta                  84.0156
_cell_angle_gamma                 90.0000
loop_
_atom_site_label
_atom_site_type_symbol
_atom_site_fract_x
_atom_site_fract_y
_atom_site_fract_z
_atom_site_U_iso_or_equiv
_atom_site_adp_type
_atom_site_occupancy
C1     C     0.40216   0.66661   0.00358   0.00000  Uiso   1.00
C2     C     0.38650   0.77089   0.97914   0.00000  Uiso   1.00
C3     C     0.40299   0.83087   0.93080   0.00000  Uiso   1.00
C4     C     0.38426   0.92385   0.91545   0.00000  Uiso   1.00
C5     C     0.36513   0.08095   0.87268   0.00000  Uiso   1.00
C6     C     0.40568   0.68759   0.07009   0.00000  Uiso   1.00
C7     C     0.43829   0.67752   0.09822   0.00000  Uiso   1.00
C8     C     0.43569   0.70038   0.15943   0.00000  Uiso   1.00
C9     C     0.44633   0.72808   0.25787   0.00000  Uiso   1.00
C10    C     0.37140   0.58145   0.00173   0.00000  Uiso   1.00
C11    C     0.37519   0.48211   0.97239   0.00000  Uiso   1.00
C12    C     0.34374   0.41559   0.97606   0.00000  Uiso   1.00
C13    C     0.30116   0.27849   0.96835   0.00000  Uiso   1.00
C14    C     0.33957   0.72509   0.06228   0.00000  Uiso   1.00
C15    C     0.35251   0.80264   0.01103   0.00000  Uiso   1.00
C16    C     0.33374   0.89556   0.99574   0.00000  Uiso   1.00
C17    C     0.35020   0.95567   0.94739   0.00000  Uiso   1.00
C18    C     0.37168   0.71935   0.10198   0.00000  Uiso   1.00
C19    C     0.36904   0.74221   0.16316   0.00000  Uiso   1.00
C20    C     0.40163   0.73219   0.19137   0.00000  Uiso   1.00
C21    C     0.33741   0.61320   0.03361   0.00000  Uiso   1.00
C22    C     0.30595   0.54681   0.03733   0.00000  Uiso   1.00
C23    C     0.30969   0.44740   0.00800   0.00000  Uiso   1.00
H24    H     0.42862   0.64189   0.97876   0.00000  Uiso   1.00
H25    H     0.42930   0.80627   0.90614   0.00000  Uiso   1.00
H26    H     0.46459   0.65293   0.07353   0.00000  Uiso   1.00
H27    H     0.40150   0.45756   0.94772   0.00000  Uiso   1.00
H28    H     0.41506   0.00254   0.83970   0.00000  Uiso   1.00
H29    H     0.48947   0.67919   0.19266   0.00000  Uiso   1.00
H30    H     0.35645   0.26721   0.92737   0.00000  Uiso   1.00
H31    H     0.31310   0.74981   0.08710   0.00000  Uiso   1.00
H32    H     0.30744   0.92012   0.02043   0.00000  Uiso   1.00
H33    H     0.34273   0.76678   0.18782   0.00000  Uiso   1.00
H34    H     0.27964   0.57142   0.06201   0.00000  Uiso   1.00
H35    H     0.31616   0.09495   0.93246   0.00000  Uiso   1.00
H36    H     0.39056   0.77159   0.28543   0.00000  Uiso   1.00
H37    H     0.25754   0.35962   0.02013   0.00000  Uiso   1.00
O38    O     0.36397   0.15884   0.84028   0.00000  Uiso   1.00
O39    O     0.46159   0.73461   0.30335   0.00000  Uiso   1.00
O40    O     0.28707   0.19410   0.95528   0.00000  Uiso   1.00
N41    N     0.39256   0.00090   0.87068   0.00000  Uiso   1.00
N42    N     0.46212   0.69861   0.20067   0.00000  Uiso   1.00
N43    N     0.33776   0.31343   0.95265   0.00000  Uiso   1.00
N44    N     0.33934   0.05063   0.92059   0.00000  Uiso   1.00
N45    N     0.40890   0.74833   0.25059   0.00000  Uiso   1.00
N46    N     0.28454   0.36315   0.00257   0.00000  Uiso   1.00
C47    C     0.90216   0.16661   0.00358   0.00000  Uiso   1.00
C48    C     0.88650   0.27089   0.97914   0.00000  Uiso   1.00
C49    C     0.90299   0.33087   0.93080   0.00000  Uiso   1.00
C50    C     0.88426   0.42385   0.91545   0.00000  Uiso   1.00
C51    C     0.86513   0.58095   0.87268   0.00000  Uiso   1.00
C52    C     0.90568   0.18759   0.07009   0.00000  Uiso   1.00
C53    C     0.93829   0.17752   0.09822   0.00000  Uiso   1.00
C54    C     0.93569   0.20038   0.15943   0.00000  Uiso   1.00
C55    C     0.94633   0.22808   0.25787   0.00000  Uiso   1.00
C56    C     0.87140   0.08145   0.00173   0.00000  Uiso   1.00
C57    C     0.87519   0.98211   0.97239   0.00000  Uiso   1.00
C58    C     0.84374   0.91559   0.97606   0.00000  Uiso   1.00
C59    C     0.80116   0.77849   0.96835   0.00000  Uiso   1.00
C60    C     0.83957   0.22509   0.06228   0.00000  Uiso   1.00
C61    C     0.85251   0.30264   0.01103   0.00000  Uiso   1.00
C62    C     0.83374   0.39556   0.99574   0.00000  Uiso   1.00
C63    C     0.85020   0.45567   0.94739   0.00000  Uiso   1.00
C64    C     0.87168   0.21935   0.10198   0.00000  Uiso   1.00
C65    C     0.86904   0.24221   0.16316   0.00000  Uiso   1.00
C66    C     0.90163   0.23219   0.19137   0.00000  Uiso   1.00
C67    C     0.83741   0.11320   0.03361   0.00000  Uiso   1.00
C68    C     0.80595   0.04681   0.03733   0.00000  Uiso   1.00
C69    C     0.80969   0.94740   0.00800   0.00000  Uiso   1.00
H70    H     0.92862   0.14189   0.97876   0.00000  Uiso   1.00
H71    H     0.92930   0.30627   0.90614   0.00000  Uiso   1.00
H72    H     0.96459   0.15293   0.07353   0.00000  Uiso   1.00
H73    H     0.90150   0.95756   0.94772   0.00000  Uiso   1.00
H74    H     0.91506   0.50254   0.83970   0.00000  Uiso   1.00
H75    H     0.98947   0.17919   0.19266   0.00000  Uiso   1.00
H76    H     0.85645   0.76721   0.92737   0.00000  Uiso   1.00
H77    H     0.81310   0.24981   0.08710   0.00000  Uiso   1.00
H78    H     0.80744   0.42012   0.02043   0.00000  Uiso   1.00
H79    H     0.84273   0.26678   0.18782   0.00000  Uiso   1.00
H80    H     0.77964   0.07142   0.06201   0.00000  Uiso   1.00
H81    H     0.81616   0.59495   0.93246   0.00000  Uiso   1.00
H82    H     0.89056   0.27159   0.28543   0.00000  Uiso   1.00
H83    H     0.75754   0.85962   0.02013   0.00000  Uiso   1.00
O84    O     0.86397   0.65884   0.84028   0.00000  Uiso   1.00
O85    O     0.96159   0.23461   0.30335   0.00000  Uiso   1.00
O86    O     0.78707   0.69410   0.95528   0.00000  Uiso   1.00
N87    N     0.89256   0.50090   0.87068   0.00000  Uiso   1.00
N88    N     0.96212   0.19861   0.20067   0.00000  Uiso   1.00
N89    N     0.83776   0.81343   0.95265   0.00000  Uiso   1.00
N90    N     0.83934   0.55063   0.92059   0.00000  Uiso   1.00
N91    N     0.90890   0.24833   0.25059   0.00000  Uiso   1.00
N92    N     0.78454   0.86315   0.00257   0.00000  Uiso   1.00
C93    C     0.59784   0.66661   0.49642   0.00000  Uiso   1.00
C94    C     0.61350   0.77089   0.52086   0.00000  Uiso   1.00
C95    C     0.59701   0.83087   0.56920   0.00000  Uiso   1.00
C96    C     0.61574   0.92385   0.58455   0.00000  Uiso   1.00
C97    C     0.63487   0.08095   0.62732   0.00000  Uiso   1.00
C98    C     0.59432   0.68759   0.42991   0.00000  Uiso   1.00
C99    C     0.56171   0.67752   0.40178   0.00000  Uiso   1.00
C100   C     0.56431   0.70038   0.34057   0.00000  Uiso   1.00
C101   C     0.55367   0.72808   0.24213   0.00000  Uiso   1.00
C102   C     0.62860   0.58145   0.49827   0.00000  Uiso   1.00
C103   C     0.62481   0.48211   0.52761   0.00000  Uiso   1.00
C104   C     0.65626   0.41559   0.52394   0.00000  Uiso   1.00
C105   C     0.69884   0.27849   0.53165   0.00000  Uiso   1.00
C106   C     0.66043   0.72509   0.43772   0.00000  Uiso   1.00
C107   C     0.64749   0.80264   0.48897   0.00000  Uiso   1.00
C108   C     0.66626   0.89556   0.50426   0.00000  Uiso   1.00
C109   C     0.64980   0.95567   0.55261   0.00000  Uiso   1.00
C110   C     0.62832   0.71935   0.39802   0.00000  Uiso   1.00
C111   C     0.63096   0.74221   0.33684   0.00000  Uiso   1.00
C112   C     0.59837   0.73219   0.30863   0.00000  Uiso   1.00
C113   C     0.66259   0.61320   0.46639   0.00000  Uiso   1.00
C114   C     0.69405   0.54681   0.46267   0.00000  Uiso   1.00
C115   C     0.69031   0.44740   0.49200   0.00000  Uiso   1.00
H116   H     0.57138   0.64189   0.52124   0.00000  Uiso   1.00
H117   H     0.57070   0.80627   0.59386   0.00000  Uiso   1.00
H118   H     0.53541   0.65293   0.42647   0.00000  Uiso   1.00
H119   H     0.59850   0.45756   0.55228   0.00000  Uiso   1.00
H120   H     0.58494   0.00254   0.66030   0.00000  Uiso   1.00
H121   H     0.51053   0.67919   0.30734   0.00000  Uiso   1.00
H122   H     0.64355   0.26721   0.57263   0.00000  Uiso   1.00
H123   H     0.68690   0.74981   0.41290   0.00000  Uiso   1.00
H124   H     0.69256   0.92012   0.47957   0.00000  Uiso   1.00
H125   H     0.65727   0.76678   0.31218   0.00000  Uiso   1.00
H126   H     0.72036   0.57142   0.43799   0.00000  Uiso   1.00
H127   H     0.68384   0.09495   0.56754   0.00000  Uiso   1.00
H128   H     0.60944   0.77159   0.21457   0.00000  Uiso   1.00
H129   H     0.74246   0.35962   0.47987   0.00000  Uiso   1.00
O130   O     0.63603   0.15884   0.65972   0.00000  Uiso   1.00
O131   O     0.53841   0.73461   0.19665   0.00000  Uiso   1.00
O132   O     0.71293   0.19410   0.54472   0.00000  Uiso   1.00
N133   N     0.60744   0.00090   0.62932   0.00000  Uiso   1.00
N134   N     0.53788   0.69861   0.29933   0.00000  Uiso   1.00
N135   N     0.66224   0.31343   0.54735   0.00000  Uiso   1.00
N136   N     0.66066   0.05063   0.57941   0.00000  Uiso   1.00
N137   N     0.59110   0.74833   0.24941   0.00000  Uiso   1.00
N138   N     0.71546   0.36315   0.49743   0.00000  Uiso   1.00
C139   C     0.09784   0.16661   0.49642   0.00000  Uiso   1.00
C140   C     0.11350   0.27089   0.52086   0.00000  Uiso   1.00
C141   C     0.09701   0.33087   0.56920   0.00000  Uiso   1.00
C142   C     0.11574   0.42385   0.58455   0.00000  Uiso   1.00
C143   C     0.13487   0.58095   0.62732   0.00000  Uiso   1.00
C144   C     0.09432   0.18759   0.42991   0.00000  Uiso   1.00
C145   C     0.06171   0.17752   0.40178   0.00000  Uiso   1.00
C146   C     0.06431   0.20038   0.34057   0.00000  Uiso   1.00
C147   C     0.05367   0.22808   0.24213   0.00000  Uiso   1.00
C148   C     0.12860   0.08145   0.49827   0.00000  Uiso   1.00
C149   C     0.12481   0.98211   0.52761   0.00000  Uiso   1.00
C150   C     0.15626   0.91559   0.52394   0.00000  Uiso   1.00
C151   C     0.19884   0.77849   0.53165   0.00000  Uiso   1.00
C152   C     0.16043   0.22509   0.43772   0.00000  Uiso   1.00
C153   C     0.14749   0.30264   0.48897   0.00000  Uiso   1.00
C154   C     0.16626   0.39556   0.50426   0.00000  Uiso   1.00
C155   C     0.14980   0.45567   0.55261   0.00000  Uiso   1.00
C156   C     0.12832   0.21935   0.39802   0.00000  Uiso   1.00
C157   C     0.13096   0.24221   0.33684   0.00000  Uiso   1.00
C158   C     0.09837   0.23219   0.30863   0.00000  Uiso   1.00
C159   C     0.16259   0.11320   0.46639   0.00000  Uiso   1.00
C160   C     0.19405   0.04681   0.46267   0.00000  Uiso   1.00
C161   C     0.19031   0.94740   0.49200   0.00000  Uiso   1.00
H162   H     0.07138   0.14189   0.52124   0.00000  Uiso   1.00
H163   H     0.07070   0.30627   0.59386   0.00000  Uiso   1.00
H164   H     0.03541   0.15293   0.42647   0.00000  Uiso   1.00
H165   H     0.09850   0.95756   0.55228   0.00000  Uiso   1.00
H166   H     0.08494   0.50254   0.66030   0.00000  Uiso   1.00
H167   H     0.01053   0.17919   0.30734   0.00000  Uiso   1.00
H168   H     0.14355   0.76721   0.57263   0.00000  Uiso   1.00
H169   H     0.18690   0.24981   0.41290   0.00000  Uiso   1.00
H170   H     0.19256   0.42012   0.47957   0.00000  Uiso   1.00
H171   H     0.15727   0.26678   0.31218   0.00000  Uiso   1.00
H172   H     0.22036   0.07142   0.43799   0.00000  Uiso   1.00
H173   H     0.18384   0.59495   0.56754   0.00000  Uiso   1.00
H174   H     0.10944   0.27159   0.21457   0.00000  Uiso   1.00
H175   H     0.24246   0.85962   0.47987   0.00000  Uiso   1.00
O176   O     0.13603   0.65884   0.65972   0.00000  Uiso   1.00
O177   O     0.03841   0.23461   0.19665   0.00000  Uiso   1.00
O178   O     0.21293   0.69410   0.54472   0.00000  Uiso   1.00
N179   N     0.10744   0.50090   0.62932   0.00000  Uiso   1.00
N180   N     0.03788   0.19861   0.29933   0.00000  Uiso   1.00
N181   N     0.16224   0.81343   0.54735   0.00000  Uiso   1.00
N182   N     0.16066   0.55063   0.57941   0.00000  Uiso   1.00
N183   N     0.09110   0.24833   0.24941   0.00000  Uiso   1.00
N184   N     0.21546   0.86315   0.49743   0.00000  Uiso   1.00
C185   C     0.59784   0.33339   0.99642   0.00000  Uiso   1.00
C186   C     0.61350   0.22911   0.02086   0.00000  Uiso   1.00
C187   C     0.59701   0.16913   0.06920   0.00000  Uiso   1.00
C188   C     0.61574   0.07615   0.08455   0.00000  Uiso   1.00
C189   C     0.63487   0.91905   0.12732   0.00000  Uiso   1.00
C190   C     0.59432   0.31241   0.92991   0.00000  Uiso   1.00
C191   C     0.56171   0.32248   0.90178   0.00000  Uiso   1.00
C192   C     0.56431   0.29962   0.84057   0.00000  Uiso   1.00
C193   C     0.55367   0.27192   0.74213   0.00000  Uiso   1.00
C194   C     0.62860   0.41855   0.99827   0.00000  Uiso   1.00
C195   C     0.62481   0.51789   0.02761   0.00000  Uiso   1.00
C196   C     0.65626   0.58441   0.02394   0.00000  Uiso   1.00
C197   C     0.69884   0.72151   0.03165   0.00000  Uiso   1.00
C198   C     0.66043   0.27491   0.93772   0.00000  Uiso   1.00
C199   C     0.64749   0.19736   0.98897   0.00000  Uiso   1.00
C200   C     0.66626   0.10444   0.00426   0.00000  Uiso   1.00
C201   C     0.64980   0.04433   0.05261   0.00000  Uiso   1.00
C202   C     0.62832   0.28065   0.89802   0.00000  Uiso   1.00
C203   C     0.63096   0.25779   0.83684   0.00000  Uiso   1.00
C204   C     0.59837   0.26781   0.80863   0.00000  Uiso   1.00
C205   C     0.66259   0.38680   0.96639   0.00000  Uiso   1.00
C206   C     0.69405   0.45319   0.96267   0.00000  Uiso   1.00
C207   C     0.69031   0.55260   0.99200   0.00000  Uiso   1.00
H208   H     0.57138   0.35811   0.02124   0.00000  Uiso   1.00
H209   H     0.57070   0.19373   0.09386   0.00000  Uiso   1.00
H210   H     0.53541   0.34707   0.92647   0.00000  Uiso   1.00
H211   H     0.59850   0.54244   0.05228   0.00000  Uiso   1.00
H212   H     0.58494   0.99746   0.16030   0.00000  Uiso   1.00
H213   H     0.51053   0.32081   0.80734   0.00000  Uiso   1.00
H214   H     0.64355   0.73279   0.07263   0.00000  Uiso   1.00
H215   H     0.68690   0.25019   0.91290   0.00000  Uiso   1.00
H216   H     0.69256   0.07988   0.97957   0.00000  Uiso   1.00
H217   H     0.65727   0.23322   0.81218   0.00000  Uiso   1.00
H218   H     0.72036   0.42858   0.93799   0.00000  Uiso   1.00
H219   H     0.68384   0.90505   0.06754   0.00000  Uiso   1.00
H220   H     0.60944   0.22841   0.71457   0.00000  Uiso   1.00
H221   H     0.74246   0.64038   0.97987   0.00000  Uiso   1.00
O222   O     0.63603   0.84116   0.15972   0.00000  Uiso   1.00
O223   O     0.53841   0.26539   0.69665   0.00000  Uiso   1.00
O224   O     0.71293   0.80590   0.04472   0.00000  Uiso   1.00
N225   N     0.60744   0.99910   0.12932   0.00000  Uiso   1.00
N226   N     0.53788   0.30139   0.79933   0.00000  Uiso   1.00
N227   N     0.66224   0.68657   0.04735   0.00000  Uiso   1.00
N228   N     0.66066   0.94937   0.07941   0.00000  Uiso   1.00
N229   N     0.59110   0.25167   0.74941   0.00000  Uiso   1.00
N230   N     0.71546   0.63685   0.99743   0.00000  Uiso   1.00
C231   C     0.09784   0.83339   0.99642   0.00000  Uiso   1.00
C232   C     0.11350   0.72911   0.02086   0.00000  Uiso   1.00
C233   C     0.09701   0.66913   0.06920   0.00000  Uiso   1.00
C234   C     0.11574   0.57615   0.08455   0.00000  Uiso   1.00
C235   C     0.13487   0.41905   0.12732   0.00000  Uiso   1.00
C236   C     0.09432   0.81241   0.92991   0.00000  Uiso   1.00
C237   C     0.06171   0.82248   0.90178   0.00000  Uiso   1.00
C238   C     0.06431   0.79962   0.84057   0.00000  Uiso   1.00
C239   C     0.05367   0.77192   0.74213   0.00000  Uiso   1.00
C240   C     0.12860   0.91855   0.99827   0.00000  Uiso   1.00
C241   C     0.12481   0.01789   0.02761   0.00000  Uiso   1.00
C242   C     0.15626   0.08441   0.02394   0.00000  Uiso   1.00
C243   C     0.19884   0.22151   0.03165   0.00000  Uiso   1.00
C244   C     0.16043   0.77491   0.93772   0.00000  Uiso   1.00
C245   C     0.14749   0.69736   0.98897   0.00000  Uiso   1.00
C246   C     0.16626   0.60444   0.00426   0.00000  Uiso   1.00
C247   C     0.14980   0.54433   0.05261   0.00000  Uiso   1.00
C248   C     0.12832   0.78065   0.89802   0.00000  Uiso   1.00
C249   C     0.13096   0.75779   0.83684   0.00000  Uiso   1.00
C250   C     0.09837   0.76781   0.80863   0.00000  Uiso   1.00
C251   C     0.16259   0.88680   0.96639   0.00000  Uiso   1.00
C252   C     0.19405   0.95319   0.96267   0.00000  Uiso   1.00
C253   C     0.19031   0.05260   0.99200   0.00000  Uiso   1.00
H254   H     0.07138   0.85811   0.02124   0.00000  Uiso   1.00
H255   H     0.07070   0.69373   0.09386   0.00000  Uiso   1.00
H256   H     0.03541   0.84707   0.92647   0.00000  Uiso   1.00
H257   H     0.09850   0.04244   0.05228   0.00000  Uiso   1.00
H258   H     0.08494   0.49746   0.16030   0.00000  Uiso   1.00
H259   H     0.01053   0.82081   0.80734   0.00000  Uiso   1.00
H260   H     0.14355   0.23279   0.07263   0.00000  Uiso   1.00
H261   H     0.18690   0.75019   0.91290   0.00000  Uiso   1.00
H262   H     0.19256   0.57988   0.97957   0.00000  Uiso   1.00
H263   H     0.15727   0.73322   0.81218   0.00000  Uiso   1.00
H264   H     0.22036   0.92858   0.93799   0.00000  Uiso   1.00
H265   H     0.18384   0.40505   0.06754   0.00000  Uiso   1.00
H266   H     0.10944   0.72841   0.71457   0.00000  Uiso   1.00
H267   H     0.24246   0.14038   0.97987   0.00000  Uiso   1.00
O268   O     0.13603   0.34116   0.15972   0.00000  Uiso   1.00
O269   O     0.03841   0.76539   0.69665   0.00000  Uiso   1.00
O270   O     0.21293   0.30590   0.04472   0.00000  Uiso   1.00
N271   N     0.10744   0.49910   0.12932   0.00000  Uiso   1.00
N272   N     0.03788   0.80139   0.79933   0.00000  Uiso   1.00
N273   N     0.16224   0.18657   0.04735   0.00000  Uiso   1.00
N274   N     0.16066   0.44937   0.07941   0.00000  Uiso   1.00
N275   N     0.09110   0.75167   0.74941   0.00000  Uiso   1.00
N276   N     0.21546   0.13685   0.99743   0.00000  Uiso   1.00
C277   C     0.40216   0.33339   0.50358   0.00000  Uiso   1.00
C278   C     0.38650   0.22911   0.47914   0.00000  Uiso   1.00
C279   C     0.40299   0.16913   0.43080   0.00000  Uiso   1.00
C280   C     0.38426   0.07615   0.41545   0.00000  Uiso   1.00
C281   C     0.36513   0.91905   0.37268   0.00000  Uiso   1.00
C282   C     0.40568   0.31241   0.57009   0.00000  Uiso   1.00
C283   C     0.43829   0.32248   0.59822   0.00000  Uiso   1.00
C284   C     0.43569   0.29962   0.65943   0.00000  Uiso   1.00
C285   C     0.44633   0.27192   0.75787   0.00000  Uiso   1.00
C286   C     0.37140   0.41855   0.50173   0.00000  Uiso   1.00
C287   C     0.37519   0.51789   0.47239   0.00000  Uiso   1.00
C288   C     0.34374   0.58441   0.47606   0.00000  Uiso   1.00
C289   C     0.30116   0.72151   0.46835   0.00000  Uiso   1.00
C290   C     0.33957   0.27491   0.56228   0.00000  Uiso   1.00
C291   C     0.35251   0.19736   0.51103   0.00000  Uiso   1.00
C292   C     0.33374   0.10444   0.49574   0.00000  Uiso   1.00
C293   C     0.35020   0.04433   0.44739   0.00000  Uiso   1.00
C294   C     0.37168   0.28065   0.60198   0.00000  Uiso   1.00
C295   C     0.36904   0.25779   0.66316   0.00000  Uiso   1.00
C296   C     0.40163   0.26781   0.69137   0.00000  Uiso   1.00
C297   C     0.33741   0.38680   0.53361   0.00000  Uiso   1.00
C298   C     0.30595   0.45319   0.53733   0.00000  Uiso   1.00
C299   C     0.30969   0.55260   0.50800   0.00000  Uiso   1.00
H300   H     0.42862   0.35811   0.47876   0.00000  Uiso   1.00
H301   H     0.42930   0.19373   0.40614   0.00000  Uiso   1.00
H302   H     0.46459   0.34707   0.57353   0.00000  Uiso   1.00
H303   H     0.40150   0.54244   0.44772   0.00000  Uiso   1.00
H304   H     0.41506   0.99746   0.33970   0.00000  Uiso   1.00
H305   H     0.48947   0.32081   0.69266   0.00000  Uiso   1.00
H306   H     0.35645   0.73279   0.42737   0.00000  Uiso   1.00
H307   H     0.31310   0.25019   0.58710   0.00000  Uiso   1.00
H308   H     0.30744   0.07988   0.52043   0.00000  Uiso   1.00
H309   H     0.34273   0.23322   0.68782   0.00000  Uiso   1.00
H310   H     0.27964   0.42858   0.56201   0.00000  Uiso   1.00
H311   H     0.31616   0.90505   0.43246   0.00000  Uiso   1.00
H312   H     0.39056   0.22841   0.78543   0.00000  Uiso   1.00
H313   H     0.25754   0.64038   0.52013   0.00000  Uiso   1.00
O314   O     0.36397   0.84116   0.34028   0.00000  Uiso   1.00
O315   O     0.46159   0.26539   0.80335   0.00000  Uiso   1.00
O316   O     0.28707   0.80590   0.45528   0.00000  Uiso   1.00
N317   N     0.39256   0.99910   0.37068   0.00000  Uiso   1.00
N318   N     0.46212   0.30139   0.70067   0.00000  Uiso   1.00
N319   N     0.33776   0.68657   0.45265   0.00000  Uiso   1.00
N320   N     0.33934   0.94937   0.42059   0.00000  Uiso   1.00
N321   N     0.40890   0.25167   0.75059   0.00000  Uiso   1.00
N322   N     0.28454   0.63685   0.50257   0.00000  Uiso   1.00
C323   C     0.90216   0.83339   0.50358   0.00000  Uiso   1.00
C324   C     0.88650   0.72911   0.47914   0.00000  Uiso   1.00
C325   C     0.90299   0.66913   0.43080   0.00000  Uiso   1.00
C326   C     0.88426   0.57615   0.41545   0.00000  Uiso   1.00
C327   C     0.86513   0.41905   0.37268   0.00000  Uiso   1.00
C328   C     0.90568   0.81241   0.57009   0.00000  Uiso   1.00
C329   C     0.93829   0.82248   0.59822   0.00000  Uiso   1.00
C330   C     0.93569   0.79962   0.65943   0.00000  Uiso   1.00
C331   C     0.94633   0.77192   0.75787   0.00000  Uiso   1.00
C332   C     0.87140   0.91855   0.50173   0.00000  Uiso   1.00
C333   C     0.87519   0.01789   0.47239   0.00000  Uiso   1.00
C334   C     0.84374   0.08441   0.47606   0.00000  Uiso   1.00
C335   C     0.80116   0.22151   0.46835   0.00000  Uiso   1.00
C336   C     0.83957   0.77491   0.56228   0.00000  Uiso   1.00
C337   C     0.85251   0.69736   0.51103   0.00000  Uiso   1.00
C338   C     0.83374   0.60444   0.49574   0.00000  Uiso   1.00
C339   C     0.85020   0.54433   0.44739   0.00000  Uiso   1.00
C340   C     0.87168   0.78065   0.60198   0.00000  Uiso   1.00
C341   C     0.86904   0.75779   0.66316   0.00000  Uiso   1.00
C342   C     0.90163   0.76781   0.69137   0.00000  Uiso   1.00
C343   C     0.83741   0.88680   0.53361   0.00000  Uiso   1.00
C344   C     0.80595   0.95319   0.53733   0.00000  Uiso   1.00
C345   C     0.80969   0.05260   0.50800   0.00000  Uiso   1.00
H346   H     0.92862   0.85811   0.47876   0.00000  Uiso   1.00
H347   H     0.92930   0.69373   0.40614   0.00000  Uiso   1.00
H348   H     0.96459   0.84707   0.57353   0.00000  Uiso   1.00
H349   H     0.90150   0.04244   0.44772   0.00000  Uiso   1.00
H350   H     0.91506   0.49746   0.33970   0.00000  Uiso   1.00
H351   H     0.98947   0.82081   0.69266   0.00000  Uiso   1.00
H352   H     0.85645   0.23279   0.42737   0.00000  Uiso   1.00
H353   H     0.81310   0.75019   0.58710   0.00000  Uiso   1.00
H354   H     0.80744   0.57988   0.52043   0.00000  Uiso   1.00
H355   H     0.84273   0.73322   0.68782   0.00000  Uiso   1.00
H356   H     0.77964   0.92858   0.56201   0.00000  Uiso   1.00
H357   H     0.81616   0.40505   0.43246   0.00000  Uiso   1.00
H358   H     0.89056   0.72841   0.78543   0.00000  Uiso   1.00
H359   H     0.75754   0.14038   0.52013   0.00000  Uiso   1.00
O360   O     0.86397   0.34116   0.34028   0.00000  Uiso   1.00
O361   O     0.96159   0.76539   0.80335   0.00000  Uiso   1.00
O362   O     0.78707   0.30590   0.45528   0.00000  Uiso   1.00
N363   N     0.89256   0.49910   0.37068   0.00000  Uiso   1.00
N364   N     0.96212   0.80139   0.70067   0.00000  Uiso   1.00
N365   N     0.83776   0.18657   0.45265   0.00000  Uiso   1.00
N366   N     0.83934   0.44937   0.42059   0.00000  Uiso   1.00
N367   N     0.90890   0.75167   0.75059   0.00000  Uiso   1.00
N368   N     0.78454   0.13685   0.50257   0.00000  Uiso   1.00
