data_job_02893
_audit_creation_date              2018-12-19
_audit_creation_method            'Materials Studio'
_symmetry_space_group_name_H-M    'P1'
_symmetry_Int_Tables_number       1
_symmetry_cell_setting            triclinic
loop_
_symmetry_equiv_pos_as_xyz
  x,y,z
_cell_length_a                    20.6685
_cell_length_b                    15.6145
_cell_length_c                    17.2774
_cell_angle_alpha                 90.0000
_cell_angle_beta                  90.0000
_cell_angle_gamma                 90.0000
loop_
_atom_site_label
_atom_site_type_symbol
_atom_site_fract_x
_atom_site_fract_y
_atom_site_fract_z
_atom_site_U_iso_or_equiv
_atom_site_adp_type
_atom_site_occupancy
C1     C     0.80746   0.00537   0.21075   0.00000  Uiso   1.00
C2     C     0.85657   0.04146   0.15353   0.00000  Uiso   1.00
C3     C     0.89678   0.11119   0.16647   0.00000  Uiso   1.00
C4     C     0.93832   0.13420   0.10685   0.00000  Uiso   1.00
C5     C     0.01436   0.19714   0.02863   0.00000  Uiso   1.00
C6     C     0.74244   0.00647   0.16906   0.00000  Uiso   1.00
C7     C     0.68668   0.04677   0.19507   0.00000  Uiso   1.00
C8     C     0.63214   0.04031   0.14851   0.00000  Uiso   1.00
C9     C     0.53097   0.04887   0.09443   0.00000  Uiso   1.00
C10    C     0.82494   0.91122   0.22133   0.00000  Uiso   1.00
C11    C     0.83852   0.87142   0.29129   0.00000  Uiso   1.00
C12    C     0.85343   0.78476   0.28875   0.00000  Uiso   1.00
C13    C     0.88035   0.64542   0.31583   0.00000  Uiso   1.00
C14    C     0.80975   0.92224   0.08185   0.00000  Uiso   1.00
C15    C     0.85781   0.99631   0.08351   0.00000  Uiso   1.00
C16    C     0.89931   0.01922   0.02385   0.00000  Uiso   1.00
C17    C     0.93957   0.08897   0.03670   0.00000  Uiso   1.00
C18    C     0.74368   0.96132   0.09904   0.00000  Uiso   1.00
C19    C     0.68921   0.95479   0.05244   0.00000  Uiso   1.00
C20    C     0.63338   0.99508   0.07837   0.00000  Uiso   1.00
C21    C     0.82618   0.86606   0.15131   0.00000  Uiso   1.00
C22    C     0.84106   0.77944   0.14867   0.00000  Uiso   1.00
C23    C     0.85467   0.73952   0.21860   0.00000  Uiso   1.00
H24    H     0.80649   0.04053   0.26526   0.00000  Uiso   1.00
H25    H     0.89580   0.14613   0.22067   0.00000  Uiso   1.00
H26    H     0.68573   0.08170   0.24925   0.00000  Uiso   1.00
H27    H     0.83756   0.90638   0.34546   0.00000  Uiso   1.00
H28    H     0.99534   0.24331   0.14033   0.00000  Uiso   1.00
H29    H     0.55239   0.10744   0.20063   0.00000  Uiso   1.00
H30    H     0.87255   0.73774   0.40350   0.00000  Uiso   1.00
H31    H     0.81072   0.88708   0.02733   0.00000  Uiso   1.00
H32    H     0.90026   0.98426   0.96967   0.00000  Uiso   1.00
H33    H     0.69019   0.91984   0.99827   0.00000  Uiso   1.00
H34    H     0.84202   0.74452   0.09447   0.00000  Uiso   1.00
H35    H     0.99896   0.11194   0.93661   0.00000  Uiso   1.00
H36    H     0.55601   0.97607   0.99691   0.00000  Uiso   1.00
H37    H     0.87617   0.60637   0.19978   0.00000  Uiso   1.00
O38    O     0.05596   0.24434   0.00483   0.00000  Uiso   1.00
O39    O     0.47483   0.06607   0.08394   0.00000  Uiso   1.00
O40    O     0.89487   0.58104   0.35010   0.00000  Uiso   1.00
N41    N     0.98391   0.19904   0.10030   0.00000  Uiso   1.00
N42    N     0.56979   0.07203   0.15667   0.00000  Uiso   1.00
N43    N     0.86909   0.72638   0.34634   0.00000  Uiso   1.00
N44    N     0.98586   0.12835   0.99069   0.00000  Uiso   1.00
N45    N     0.57173   0.00134   0.04705   0.00000  Uiso   1.00
N46    N     0.87104   0.65569   0.23673   0.00000  Uiso   1.00
C47    C     0.69254   0.49463   0.21075   0.00000  Uiso   1.00
C48    C     0.64343   0.45854   0.15353   0.00000  Uiso   1.00
C49    C     0.60322   0.38881   0.16647   0.00000  Uiso   1.00
C50    C     0.56168   0.36580   0.10685   0.00000  Uiso   1.00
C51    C     0.48564   0.30286   0.02863   0.00000  Uiso   1.00
C52    C     0.75756   0.49353   0.16906   0.00000  Uiso   1.00
C53    C     0.81332   0.45323   0.19507   0.00000  Uiso   1.00
C54    C     0.86786   0.45969   0.14851   0.00000  Uiso   1.00
C55    C     0.96903   0.45113   0.09443   0.00000  Uiso   1.00
C56    C     0.67506   0.58878   0.22133   0.00000  Uiso   1.00
C57    C     0.66148   0.62858   0.29129   0.00000  Uiso   1.00
C58    C     0.64657   0.71524   0.28875   0.00000  Uiso   1.00
C59    C     0.61965   0.85458   0.31583   0.00000  Uiso   1.00
C60    C     0.69025   0.57776   0.08185   0.00000  Uiso   1.00
C61    C     0.64219   0.50369   0.08351   0.00000  Uiso   1.00
C62    C     0.60069   0.48078   0.02385   0.00000  Uiso   1.00
C63    C     0.56043   0.41103   0.03670   0.00000  Uiso   1.00
C64    C     0.75632   0.53868   0.09904   0.00000  Uiso   1.00
C65    C     0.81079   0.54521   0.05244   0.00000  Uiso   1.00
C66    C     0.86662   0.50492   0.07837   0.00000  Uiso   1.00
C67    C     0.67382   0.63394   0.15131   0.00000  Uiso   1.00
C68    C     0.65894   0.72056   0.14867   0.00000  Uiso   1.00
C69    C     0.64533   0.76048   0.21860   0.00000  Uiso   1.00
H70    H     0.69351   0.45947   0.26526   0.00000  Uiso   1.00
H71    H     0.60420   0.35387   0.22067   0.00000  Uiso   1.00
H72    H     0.81427   0.41830   0.24925   0.00000  Uiso   1.00
H73    H     0.66244   0.59362   0.34546   0.00000  Uiso   1.00
H74    H     0.50466   0.25669   0.14033   0.00000  Uiso   1.00
H75    H     0.94761   0.39256   0.20063   0.00000  Uiso   1.00
H76    H     0.62745   0.76226   0.40350   0.00000  Uiso   1.00
H77    H     0.68928   0.61292   0.02733   0.00000  Uiso   1.00
H78    H     0.59974   0.51574   0.96967   0.00000  Uiso   1.00
H79    H     0.80981   0.58016   0.99827   0.00000  Uiso   1.00
H80    H     0.65798   0.75548   0.09447   0.00000  Uiso   1.00
H81    H     0.50104   0.38806   0.93661   0.00000  Uiso   1.00
H82    H     0.94399   0.52393   0.99691   0.00000  Uiso   1.00
H83    H     0.62383   0.89363   0.19978   0.00000  Uiso   1.00
O84    O     0.44404   0.25566   0.00483   0.00000  Uiso   1.00
O85    O     0.02517   0.43393   0.08394   0.00000  Uiso   1.00
O86    O     0.60513   0.91896   0.35010   0.00000  Uiso   1.00
N87    N     0.51609   0.30096   0.10030   0.00000  Uiso   1.00
N88    N     0.93021   0.42797   0.15667   0.00000  Uiso   1.00
N89    N     0.63091   0.77362   0.34634   0.00000  Uiso   1.00
N90    N     0.51414   0.37165   0.99069   0.00000  Uiso   1.00
N91    N     0.92827   0.49866   0.04705   0.00000  Uiso   1.00
N92    N     0.62896   0.84431   0.23673   0.00000  Uiso   1.00
C93    C     0.19254   0.50537   0.28925   0.00000  Uiso   1.00
C94    C     0.14343   0.54146   0.34647   0.00000  Uiso   1.00
C95    C     0.10322   0.61119   0.33353   0.00000  Uiso   1.00
C96    C     0.06168   0.63420   0.39315   0.00000  Uiso   1.00
C97    C     0.98564   0.69714   0.47137   0.00000  Uiso   1.00
C98    C     0.25756   0.50647   0.33094   0.00000  Uiso   1.00
C99    C     0.31332   0.54677   0.30493   0.00000  Uiso   1.00
C100   C     0.36786   0.54031   0.35149   0.00000  Uiso   1.00
C101   C     0.46903   0.54887   0.40557   0.00000  Uiso   1.00
C102   C     0.17506   0.41122   0.27867   0.00000  Uiso   1.00
C103   C     0.16148   0.37142   0.20871   0.00000  Uiso   1.00
C104   C     0.14657   0.28476   0.21125   0.00000  Uiso   1.00
C105   C     0.11965   0.14542   0.18417   0.00000  Uiso   1.00
C106   C     0.19025   0.42224   0.41815   0.00000  Uiso   1.00
C107   C     0.14219   0.49631   0.41649   0.00000  Uiso   1.00
C108   C     0.10069   0.51922   0.47615   0.00000  Uiso   1.00
C109   C     0.06043   0.58897   0.46330   0.00000  Uiso   1.00
C110   C     0.25632   0.46132   0.40096   0.00000  Uiso   1.00
C111   C     0.31079   0.45479   0.44756   0.00000  Uiso   1.00
C112   C     0.36662   0.49508   0.42163   0.00000  Uiso   1.00
C113   C     0.17382   0.36606   0.34869   0.00000  Uiso   1.00
C114   C     0.15894   0.27944   0.35133   0.00000  Uiso   1.00
C115   C     0.14533   0.23952   0.28140   0.00000  Uiso   1.00
H116   H     0.19351   0.54053   0.23474   0.00000  Uiso   1.00
H117   H     0.10420   0.64613   0.27933   0.00000  Uiso   1.00
H118   H     0.31427   0.58170   0.25075   0.00000  Uiso   1.00
H119   H     0.16244   0.40638   0.15454   0.00000  Uiso   1.00
H120   H     0.00466   0.74331   0.35967   0.00000  Uiso   1.00
H121   H     0.44761   0.60744   0.29937   0.00000  Uiso   1.00
H122   H     0.12745   0.23774   0.09650   0.00000  Uiso   1.00
H123   H     0.18928   0.38708   0.47267   0.00000  Uiso   1.00
H124   H     0.09974   0.48426   0.53033   0.00000  Uiso   1.00
H125   H     0.30981   0.41984   0.50173   0.00000  Uiso   1.00
H126   H     0.15798   0.24452   0.40553   0.00000  Uiso   1.00
H127   H     0.00104   0.61194   0.56339   0.00000  Uiso   1.00
H128   H     0.44399   0.47607   0.50309   0.00000  Uiso   1.00
H129   H     0.12383   0.10637   0.30022   0.00000  Uiso   1.00
O130   O     0.94404   0.74434   0.49517   0.00000  Uiso   1.00
O131   O     0.52517   0.56607   0.41606   0.00000  Uiso   1.00
O132   O     0.10513   0.08104   0.14990   0.00000  Uiso   1.00
N133   N     0.01609   0.69904   0.39970   0.00000  Uiso   1.00
N134   N     0.43021   0.57203   0.34333   0.00000  Uiso   1.00
N135   N     0.13091   0.22638   0.15366   0.00000  Uiso   1.00
N136   N     0.01414   0.62835   0.50931   0.00000  Uiso   1.00
N137   N     0.42827   0.50134   0.45295   0.00000  Uiso   1.00
N138   N     0.12896   0.15569   0.26327   0.00000  Uiso   1.00
C139   C     0.30746   0.99463   0.28925   0.00000  Uiso   1.00
C140   C     0.35657   0.95854   0.34647   0.00000  Uiso   1.00
C141   C     0.39678   0.88881   0.33353   0.00000  Uiso   1.00
C142   C     0.43832   0.86580   0.39315   0.00000  Uiso   1.00
C143   C     0.51436   0.80286   0.47137   0.00000  Uiso   1.00
C144   C     0.24244   0.99353   0.33094   0.00000  Uiso   1.00
C145   C     0.18668   0.95323   0.30493   0.00000  Uiso   1.00
C146   C     0.13214   0.95969   0.35149   0.00000  Uiso   1.00
C147   C     0.03097   0.95113   0.40557   0.00000  Uiso   1.00
C148   C     0.32494   0.08878   0.27867   0.00000  Uiso   1.00
C149   C     0.33852   0.12858   0.20871   0.00000  Uiso   1.00
C150   C     0.35343   0.21524   0.21125   0.00000  Uiso   1.00
C151   C     0.38035   0.35458   0.18417   0.00000  Uiso   1.00
C152   C     0.30975   0.07776   0.41815   0.00000  Uiso   1.00
C153   C     0.35781   0.00369   0.41649   0.00000  Uiso   1.00
C154   C     0.39931   0.98078   0.47615   0.00000  Uiso   1.00
C155   C     0.43957   0.91103   0.46330   0.00000  Uiso   1.00
C156   C     0.24368   0.03868   0.40096   0.00000  Uiso   1.00
C157   C     0.18921   0.04521   0.44756   0.00000  Uiso   1.00
C158   C     0.13338   0.00492   0.42163   0.00000  Uiso   1.00
C159   C     0.32618   0.13394   0.34869   0.00000  Uiso   1.00
C160   C     0.34106   0.22056   0.35133   0.00000  Uiso   1.00
C161   C     0.35467   0.26048   0.28140   0.00000  Uiso   1.00
H162   H     0.30649   0.95947   0.23474   0.00000  Uiso   1.00
H163   H     0.39580   0.85387   0.27933   0.00000  Uiso   1.00
H164   H     0.18573   0.91830   0.25075   0.00000  Uiso   1.00
H165   H     0.33756   0.09362   0.15454   0.00000  Uiso   1.00
H166   H     0.49534   0.75669   0.35967   0.00000  Uiso   1.00
H167   H     0.05239   0.89256   0.29937   0.00000  Uiso   1.00
H168   H     0.37255   0.26226   0.09650   0.00000  Uiso   1.00
H169   H     0.31072   0.11292   0.47267   0.00000  Uiso   1.00
H170   H     0.40026   0.01574   0.53033   0.00000  Uiso   1.00
H171   H     0.19019   0.08016   0.50173   0.00000  Uiso   1.00
H172   H     0.34202   0.25548   0.40553   0.00000  Uiso   1.00
H173   H     0.49896   0.88806   0.56339   0.00000  Uiso   1.00
H174   H     0.05601   0.02393   0.50309   0.00000  Uiso   1.00
H175   H     0.37617   0.39363   0.30022   0.00000  Uiso   1.00
O176   O     0.55596   0.75566   0.49517   0.00000  Uiso   1.00
O177   O     0.97483   0.93393   0.41606   0.00000  Uiso   1.00
O178   O     0.39487   0.41896   0.14990   0.00000  Uiso   1.00
N179   N     0.48391   0.80096   0.39970   0.00000  Uiso   1.00
N180   N     0.06979   0.92797   0.34333   0.00000  Uiso   1.00
N181   N     0.36909   0.27362   0.15366   0.00000  Uiso   1.00
N182   N     0.48586   0.87165   0.50931   0.00000  Uiso   1.00
N183   N     0.07173   0.99866   0.45295   0.00000  Uiso   1.00
N184   N     0.37104   0.34431   0.26327   0.00000  Uiso   1.00
C185   C     0.19254   0.99463   0.78925   0.00000  Uiso   1.00
C186   C     0.14343   0.95854   0.84647   0.00000  Uiso   1.00
C187   C     0.10322   0.88881   0.83353   0.00000  Uiso   1.00
C188   C     0.06168   0.86580   0.89315   0.00000  Uiso   1.00
C189   C     0.98564   0.80286   0.97137   0.00000  Uiso   1.00
C190   C     0.25756   0.99353   0.83094   0.00000  Uiso   1.00
C191   C     0.31332   0.95323   0.80493   0.00000  Uiso   1.00
C192   C     0.36786   0.95969   0.85149   0.00000  Uiso   1.00
C193   C     0.46903   0.95113   0.90557   0.00000  Uiso   1.00
C194   C     0.17506   0.08878   0.77867   0.00000  Uiso   1.00
C195   C     0.16148   0.12858   0.70871   0.00000  Uiso   1.00
C196   C     0.14657   0.21524   0.71125   0.00000  Uiso   1.00
C197   C     0.11965   0.35458   0.68417   0.00000  Uiso   1.00
C198   C     0.19025   0.07776   0.91815   0.00000  Uiso   1.00
C199   C     0.14219   0.00369   0.91649   0.00000  Uiso   1.00
C200   C     0.10069   0.98078   0.97615   0.00000  Uiso   1.00
C201   C     0.06043   0.91103   0.96330   0.00000  Uiso   1.00
C202   C     0.25632   0.03868   0.90096   0.00000  Uiso   1.00
C203   C     0.31079   0.04521   0.94756   0.00000  Uiso   1.00
C204   C     0.36662   0.00492   0.92163   0.00000  Uiso   1.00
C205   C     0.17382   0.13394   0.84869   0.00000  Uiso   1.00
C206   C     0.15894   0.22056   0.85133   0.00000  Uiso   1.00
C207   C     0.14533   0.26048   0.78140   0.00000  Uiso   1.00
H208   H     0.19351   0.95947   0.73474   0.00000  Uiso   1.00
H209   H     0.10420   0.85387   0.77933   0.00000  Uiso   1.00
H210   H     0.31427   0.91830   0.75075   0.00000  Uiso   1.00
H211   H     0.16244   0.09362   0.65454   0.00000  Uiso   1.00
H212   H     0.00466   0.75669   0.85967   0.00000  Uiso   1.00
H213   H     0.44761   0.89256   0.79937   0.00000  Uiso   1.00
H214   H     0.12745   0.26226   0.59650   0.00000  Uiso   1.00
H215   H     0.18928   0.11292   0.97267   0.00000  Uiso   1.00
H216   H     0.09974   0.01574   0.03033   0.00000  Uiso   1.00
H217   H     0.30981   0.08016   0.00173   0.00000  Uiso   1.00
H218   H     0.15798   0.25548   0.90553   0.00000  Uiso   1.00
H219   H     0.00104   0.88806   0.06339   0.00000  Uiso   1.00
H220   H     0.44399   0.02393   0.00309   0.00000  Uiso   1.00
H221   H     0.12383   0.39363   0.80022   0.00000  Uiso   1.00
O222   O     0.94404   0.75566   0.99517   0.00000  Uiso   1.00
O223   O     0.52517   0.93393   0.91606   0.00000  Uiso   1.00
O224   O     0.10513   0.41896   0.64990   0.00000  Uiso   1.00
N225   N     0.01609   0.80096   0.89970   0.00000  Uiso   1.00
N226   N     0.43021   0.92797   0.84333   0.00000  Uiso   1.00
N227   N     0.13091   0.27362   0.65366   0.00000  Uiso   1.00
N228   N     0.01414   0.87165   0.00931   0.00000  Uiso   1.00
N229   N     0.42827   0.99866   0.95295   0.00000  Uiso   1.00
N230   N     0.12896   0.34431   0.76327   0.00000  Uiso   1.00
C231   C     0.30746   0.50537   0.78925   0.00000  Uiso   1.00
C232   C     0.35657   0.54146   0.84647   0.00000  Uiso   1.00
C233   C     0.39678   0.61119   0.83353   0.00000  Uiso   1.00
C234   C     0.43832   0.63420   0.89315   0.00000  Uiso   1.00
C235   C     0.51436   0.69714   0.97137   0.00000  Uiso   1.00
C236   C     0.24244   0.50647   0.83094   0.00000  Uiso   1.00
C237   C     0.18668   0.54677   0.80493   0.00000  Uiso   1.00
C238   C     0.13214   0.54031   0.85149   0.00000  Uiso   1.00
C239   C     0.03097   0.54887   0.90557   0.00000  Uiso   1.00
C240   C     0.32494   0.41122   0.77867   0.00000  Uiso   1.00
C241   C     0.33852   0.37142   0.70871   0.00000  Uiso   1.00
C242   C     0.35343   0.28476   0.71125   0.00000  Uiso   1.00
C243   C     0.38035   0.14542   0.68417   0.00000  Uiso   1.00
C244   C     0.30975   0.42224   0.91815   0.00000  Uiso   1.00
C245   C     0.35781   0.49631   0.91649   0.00000  Uiso   1.00
C246   C     0.39931   0.51922   0.97615   0.00000  Uiso   1.00
C247   C     0.43957   0.58897   0.96330   0.00000  Uiso   1.00
C248   C     0.24368   0.46132   0.90096   0.00000  Uiso   1.00
C249   C     0.18921   0.45479   0.94756   0.00000  Uiso   1.00
C250   C     0.13338   0.49508   0.92163   0.00000  Uiso   1.00
C251   C     0.32618   0.36606   0.84869   0.00000  Uiso   1.00
C252   C     0.34106   0.27944   0.85133   0.00000  Uiso   1.00
C253   C     0.35467   0.23952   0.78140   0.00000  Uiso   1.00
H254   H     0.30649   0.54053   0.73474   0.00000  Uiso   1.00
H255   H     0.39580   0.64613   0.77933   0.00000  Uiso   1.00
H256   H     0.18573   0.58170   0.75075   0.00000  Uiso   1.00
H257   H     0.33756   0.40638   0.65454   0.00000  Uiso   1.00
H258   H     0.49534   0.74331   0.85967   0.00000  Uiso   1.00
H259   H     0.05239   0.60744   0.79937   0.00000  Uiso   1.00
H260   H     0.37255   0.23774   0.59650   0.00000  Uiso   1.00
H261   H     0.31072   0.38708   0.97267   0.00000  Uiso   1.00
H262   H     0.40026   0.48426   0.03033   0.00000  Uiso   1.00
H263   H     0.19019   0.41984   0.00173   0.00000  Uiso   1.00
H264   H     0.34202   0.24452   0.90553   0.00000  Uiso   1.00
H265   H     0.49896   0.61194   0.06339   0.00000  Uiso   1.00
H266   H     0.05601   0.47607   0.00309   0.00000  Uiso   1.00
H267   H     0.37617   0.10637   0.80022   0.00000  Uiso   1.00
O268   O     0.55596   0.74434   0.99517   0.00000  Uiso   1.00
O269   O     0.97483   0.56607   0.91606   0.00000  Uiso   1.00
O270   O     0.39487   0.08104   0.64990   0.00000  Uiso   1.00
N271   N     0.48391   0.69904   0.89970   0.00000  Uiso   1.00
N272   N     0.06979   0.57203   0.84333   0.00000  Uiso   1.00
N273   N     0.36909   0.22638   0.65366   0.00000  Uiso   1.00
N274   N     0.48586   0.62835   0.00931   0.00000  Uiso   1.00
N275   N     0.07173   0.50134   0.95295   0.00000  Uiso   1.00
N276   N     0.37104   0.15569   0.76327   0.00000  Uiso   1.00
C277   C     0.80746   0.49463   0.71075   0.00000  Uiso   1.00
C278   C     0.85657   0.45854   0.65353   0.00000  Uiso   1.00
C279   C     0.89678   0.38881   0.66647   0.00000  Uiso   1.00
C280   C     0.93832   0.36580   0.60685   0.00000  Uiso   1.00
C281   C     0.01436   0.30286   0.52863   0.00000  Uiso   1.00
C282   C     0.74244   0.49353   0.66906   0.00000  Uiso   1.00
C283   C     0.68668   0.45323   0.69507   0.00000  Uiso   1.00
C284   C     0.63214   0.45969   0.64851   0.00000  Uiso   1.00
C285   C     0.53097   0.45113   0.59443   0.00000  Uiso   1.00
C286   C     0.82494   0.58878   0.72133   0.00000  Uiso   1.00
C287   C     0.83852   0.62858   0.79129   0.00000  Uiso   1.00
C288   C     0.85343   0.71524   0.78875   0.00000  Uiso   1.00
C289   C     0.88035   0.85458   0.81583   0.00000  Uiso   1.00
C290   C     0.80975   0.57776   0.58185   0.00000  Uiso   1.00
C291   C     0.85781   0.50369   0.58351   0.00000  Uiso   1.00
C292   C     0.89931   0.48078   0.52385   0.00000  Uiso   1.00
C293   C     0.93957   0.41103   0.53670   0.00000  Uiso   1.00
C294   C     0.74368   0.53868   0.59904   0.00000  Uiso   1.00
C295   C     0.68921   0.54521   0.55244   0.00000  Uiso   1.00
C296   C     0.63338   0.50492   0.57837   0.00000  Uiso   1.00
C297   C     0.82618   0.63394   0.65131   0.00000  Uiso   1.00
C298   C     0.84106   0.72056   0.64867   0.00000  Uiso   1.00
C299   C     0.85467   0.76048   0.71860   0.00000  Uiso   1.00
H300   H     0.80649   0.45947   0.76526   0.00000  Uiso   1.00
H301   H     0.89580   0.35387   0.72067   0.00000  Uiso   1.00
H302   H     0.68573   0.41830   0.74925   0.00000  Uiso   1.00
H303   H     0.83756   0.59362   0.84546   0.00000  Uiso   1.00
H304   H     0.99534   0.25669   0.64033   0.00000  Uiso   1.00
H305   H     0.55239   0.39256   0.70063   0.00000  Uiso   1.00
H306   H     0.87255   0.76226   0.90350   0.00000  Uiso   1.00
H307   H     0.81072   0.61292   0.52733   0.00000  Uiso   1.00
H308   H     0.90026   0.51574   0.46967   0.00000  Uiso   1.00
H309   H     0.69019   0.58016   0.49827   0.00000  Uiso   1.00
H310   H     0.84202   0.75548   0.59447   0.00000  Uiso   1.00
H311   H     0.99896   0.38806   0.43661   0.00000  Uiso   1.00
H312   H     0.55601   0.52393   0.49691   0.00000  Uiso   1.00
H313   H     0.87617   0.89363   0.69978   0.00000  Uiso   1.00
O314   O     0.05596   0.25566   0.50483   0.00000  Uiso   1.00
O315   O     0.47483   0.43393   0.58394   0.00000  Uiso   1.00
O316   O     0.89487   0.91896   0.85010   0.00000  Uiso   1.00
N317   N     0.98391   0.30096   0.60030   0.00000  Uiso   1.00
N318   N     0.56979   0.42797   0.65667   0.00000  Uiso   1.00
N319   N     0.86909   0.77362   0.84634   0.00000  Uiso   1.00
N320   N     0.98586   0.37165   0.49069   0.00000  Uiso   1.00
N321   N     0.57173   0.49866   0.54705   0.00000  Uiso   1.00
N322   N     0.87104   0.84431   0.73673   0.00000  Uiso   1.00
C323   C     0.69254   0.00537   0.71075   0.00000  Uiso   1.00
C324   C     0.64343   0.04146   0.65353   0.00000  Uiso   1.00
C325   C     0.60322   0.11119   0.66647   0.00000  Uiso   1.00
C326   C     0.56168   0.13420   0.60685   0.00000  Uiso   1.00
C327   C     0.48564   0.19714   0.52863   0.00000  Uiso   1.00
C328   C     0.75756   0.00647   0.66906   0.00000  Uiso   1.00
C329   C     0.81332   0.04677   0.69507   0.00000  Uiso   1.00
C330   C     0.86786   0.04031   0.64851   0.00000  Uiso   1.00
C331   C     0.96903   0.04887   0.59443   0.00000  Uiso   1.00
C332   C     0.67506   0.91122   0.72133   0.00000  Uiso   1.00
C333   C     0.66148   0.87142   0.79129   0.00000  Uiso   1.00
C334   C     0.64657   0.78476   0.78875   0.00000  Uiso   1.00
C335   C     0.61965   0.64542   0.81583   0.00000  Uiso   1.00
C336   C     0.69025   0.92224   0.58185   0.00000  Uiso   1.00
C337   C     0.64219   0.99631   0.58351   0.00000  Uiso   1.00
C338   C     0.60069   0.01922   0.52385   0.00000  Uiso   1.00
C339   C     0.56043   0.08897   0.53670   0.00000  Uiso   1.00
C340   C     0.75632   0.96132   0.59904   0.00000  Uiso   1.00
C341   C     0.81079   0.95479   0.55244   0.00000  Uiso   1.00
C342   C     0.86662   0.99508   0.57837   0.00000  Uiso   1.00
C343   C     0.67382   0.86606   0.65131   0.00000  Uiso   1.00
C344   C     0.65894   0.77944   0.64867   0.00000  Uiso   1.00
C345   C     0.64533   0.73952   0.71860   0.00000  Uiso   1.00
H346   H     0.69351   0.04053   0.76526   0.00000  Uiso   1.00
H347   H     0.60420   0.14613   0.72067   0.00000  Uiso   1.00
H348   H     0.81427   0.08170   0.74925   0.00000  Uiso   1.00
H349   H     0.66244   0.90638   0.84546   0.00000  Uiso   1.00
H350   H     0.50466   0.24331   0.64033   0.00000  Uiso   1.00
H351   H     0.94761   0.10744   0.70063   0.00000  Uiso   1.00
H352   H     0.62745   0.73774   0.90350   0.00000  Uiso   1.00
H353   H     0.68928   0.88708   0.52733   0.00000  Uiso   1.00
H354   H     0.59974   0.98426   0.46967   0.00000  Uiso   1.00
H355   H     0.80981   0.91984   0.49827   0.00000  Uiso   1.00
H356   H     0.65798   0.74452   0.59447   0.00000  Uiso   1.00
H357   H     0.50104   0.11194   0.43661   0.00000  Uiso   1.00
H358   H     0.94399   0.97607   0.49691   0.00000  Uiso   1.00
H359   H     0.62383   0.60637   0.69978   0.00000  Uiso   1.00
O360   O     0.44404   0.24434   0.50483   0.00000  Uiso   1.00
O361   O     0.02517   0.06607   0.58394   0.00000  Uiso   1.00
O362   O     0.60513   0.58104   0.85010   0.00000  Uiso   1.00
N363   N     0.51609   0.19904   0.60030   0.00000  Uiso   1.00
N364   N     0.93021   0.07203   0.65667   0.00000  Uiso   1.00
N365   N     0.63091   0.72638   0.84634   0.00000  Uiso   1.00
N366   N     0.51414   0.12835   0.49069   0.00000  Uiso   1.00
N367   N     0.92827   0.00134   0.54705   0.00000  Uiso   1.00
N368   N     0.62896   0.65569   0.73673   0.00000  Uiso   1.00
