data_job_00824
_audit_creation_date              2018-12-19
_audit_creation_method            'Materials Studio'
_symmetry_space_group_name_H-M    'P1'
_symmetry_Int_Tables_number       1
_symmetry_cell_setting            triclinic
loop_
_symmetry_equiv_pos_as_xyz
  x,y,z
_cell_length_a                    10.0715
_cell_length_b                    8.9481
_cell_length_c                    29.7956
_cell_angle_alpha                 90.0000
_cell_angle_beta                  108.5573
_cell_angle_gamma                 90.0000
loop_
_atom_site_label
_atom_site_type_symbol
_atom_site_fract_x
_atom_site_fract_y
_atom_site_fract_z
_atom_site_U_iso_or_equiv
_atom_site_adp_type
_atom_site_occupancy
C1     C     0.02585   0.85915   0.88666   0.00000  Uiso   1.00
C2     C     0.90741   0.97059   0.86627   0.00000  Uiso   1.00
C3     C     0.76834   0.94998   0.86336   0.00000  Uiso   1.00
C4     C     0.67601   0.06522   0.84352   0.00000  Uiso   1.00
C5     C     0.48519   0.21830   0.81431   0.00000  Uiso   1.00
C6     C     0.09016   0.82996   0.84756   0.00000  Uiso   1.00
C7     C     0.10476   0.69110   0.82892   0.00000  Uiso   1.00
C8     C     0.16629   0.68796   0.79332   0.00000  Uiso   1.00
C9     C     0.25928   0.62268   0.73510   0.00000  Uiso   1.00
C10    C     0.13711   0.94226   0.92556   0.00000  Uiso   1.00
C11    C     0.19123   0.89780   0.97250   0.00000  Uiso   1.00
C12    C     0.29233   0.98920   0.00258   0.00000  Uiso   1.00
C13    C     0.45823   0.09828   0.06545   0.00000  Uiso   1.00
C14    C     0.10920   0.10047   0.85661   0.00000  Uiso   1.00
C15    C     0.95268   0.10167   0.84995   0.00000  Uiso   1.00
C16    C     0.86054   0.21697   0.83011   0.00000  Uiso   1.00
C17    C     0.72136   0.19654   0.82716   0.00000  Uiso   1.00
C18    C     0.13542   0.96103   0.83124   0.00000  Uiso   1.00
C19    C     0.19696   0.95809   0.79567   0.00000  Uiso   1.00
C20    C     0.21164   0.81927   0.77697   0.00000  Uiso   1.00
C21    C     0.18238   0.07334   0.90924   0.00000  Uiso   1.00
C22    C     0.28342   0.16481   0.93925   0.00000  Uiso   1.00
C23    C     0.33768   0.12051   0.98622   0.00000  Uiso   1.00
H24    H     0.99062   0.75709   0.89937   0.00000  Uiso   1.00
H25    H     0.73334   0.84852   0.87599   0.00000  Uiso   1.00
H26    H     0.06973   0.58968   0.84156   0.00000  Uiso   1.00
H27    H     0.15617   0.79636   0.98512   0.00000  Uiso   1.00
H28    H     0.46806   0.00766   0.84285   0.00000  Uiso   1.00
H29    H     0.17738   0.46188   0.77026   0.00000  Uiso   1.00
H30    H     0.35968   0.89771   0.07299   0.00000  Uiso   1.00
H31    H     0.14444   0.20252   0.84390   0.00000  Uiso   1.00
H32    H     0.89560   0.31839   0.81748   0.00000  Uiso   1.00
H33    H     0.23198   0.05955   0.78305   0.00000  Uiso   1.00
H34    H     0.31843   0.26623   0.92660   0.00000  Uiso   1.00
H35    H     0.59975   0.38903   0.79536   0.00000  Uiso   1.00
H36    H     0.30908   0.84324   0.72277   0.00000  Uiso   1.00
H37    H     0.49138   0.27907   0.02549   0.00000  Uiso   1.00
O38    O     0.36743   0.26651   0.80271   0.00000  Uiso   1.00
O39    O     0.29806   0.55046   0.70748   0.00000  Uiso   1.00
O40    O     0.53722   0.12226   0.10465   0.00000  Uiso   1.00
N41    N     0.53321   0.08153   0.83531   0.00000  Uiso   1.00
N42    N     0.19636   0.57126   0.76744   0.00000  Uiso   1.00
N43    N     0.36683   0.97869   0.05046   0.00000  Uiso   1.00
N44    N     0.60407   0.28674   0.80976   0.00000  Uiso   1.00
N45    N     0.26723   0.77646   0.74188   0.00000  Uiso   1.00
N46    N     0.43769   0.18390   0.02490   0.00000  Uiso   1.00
C47    C     0.97415   0.85915   0.61334   0.00000  Uiso   1.00
C48    C     0.09259   0.97059   0.63373   0.00000  Uiso   1.00
C49    C     0.23166   0.94998   0.63664   0.00000  Uiso   1.00
C50    C     0.32399   0.06522   0.65648   0.00000  Uiso   1.00
C51    C     0.51481   0.21830   0.68569   0.00000  Uiso   1.00
C52    C     0.90984   0.82996   0.65244   0.00000  Uiso   1.00
C53    C     0.89524   0.69110   0.67108   0.00000  Uiso   1.00
C54    C     0.83371   0.68796   0.70668   0.00000  Uiso   1.00
C55    C     0.74072   0.62268   0.76490   0.00000  Uiso   1.00
C56    C     0.86289   0.94226   0.57444   0.00000  Uiso   1.00
C57    C     0.80877   0.89780   0.52750   0.00000  Uiso   1.00
C58    C     0.70767   0.98920   0.49742   0.00000  Uiso   1.00
C59    C     0.54177   0.09828   0.43455   0.00000  Uiso   1.00
C60    C     0.89080   0.10047   0.64339   0.00000  Uiso   1.00
C61    C     0.04732   0.10167   0.65005   0.00000  Uiso   1.00
C62    C     0.13946   0.21697   0.66989   0.00000  Uiso   1.00
C63    C     0.27864   0.19654   0.67284   0.00000  Uiso   1.00
C64    C     0.86458   0.96103   0.66876   0.00000  Uiso   1.00
C65    C     0.80304   0.95809   0.70433   0.00000  Uiso   1.00
C66    C     0.78836   0.81927   0.72303   0.00000  Uiso   1.00
C67    C     0.81762   0.07334   0.59076   0.00000  Uiso   1.00
C68    C     0.71658   0.16481   0.56075   0.00000  Uiso   1.00
C69    C     0.66232   0.12051   0.51378   0.00000  Uiso   1.00
H70    H     0.00938   0.75709   0.60063   0.00000  Uiso   1.00
H71    H     0.26666   0.84852   0.62401   0.00000  Uiso   1.00
H72    H     0.93027   0.58968   0.65844   0.00000  Uiso   1.00
H73    H     0.84383   0.79636   0.51488   0.00000  Uiso   1.00
H74    H     0.53194   0.00766   0.65715   0.00000  Uiso   1.00
H75    H     0.82262   0.46188   0.72974   0.00000  Uiso   1.00
H76    H     0.64032   0.89771   0.42701   0.00000  Uiso   1.00
H77    H     0.85556   0.20252   0.65610   0.00000  Uiso   1.00
H78    H     0.10440   0.31839   0.68252   0.00000  Uiso   1.00
H79    H     0.76802   0.05955   0.71695   0.00000  Uiso   1.00
H80    H     0.68157   0.26623   0.57340   0.00000  Uiso   1.00
H81    H     0.40025   0.38903   0.70464   0.00000  Uiso   1.00
H82    H     0.69092   0.84324   0.77723   0.00000  Uiso   1.00
H83    H     0.50862   0.27907   0.47451   0.00000  Uiso   1.00
O84    O     0.63257   0.26651   0.69729   0.00000  Uiso   1.00
O85    O     0.70194   0.55046   0.79252   0.00000  Uiso   1.00
O86    O     0.46278   0.12226   0.39535   0.00000  Uiso   1.00
N87    N     0.46679   0.08153   0.66469   0.00000  Uiso   1.00
N88    N     0.80364   0.57126   0.73256   0.00000  Uiso   1.00
N89    N     0.63317   0.97869   0.44954   0.00000  Uiso   1.00
N90    N     0.39593   0.28674   0.69024   0.00000  Uiso   1.00
N91    N     0.73277   0.77646   0.75812   0.00000  Uiso   1.00
N92    N     0.56231   0.18390   0.47510   0.00000  Uiso   1.00
C93    C     0.97415   0.14085   0.11334   0.00000  Uiso   1.00
C94    C     0.09259   0.02941   0.13373   0.00000  Uiso   1.00
C95    C     0.23166   0.05002   0.13664   0.00000  Uiso   1.00
C96    C     0.32399   0.93478   0.15648   0.00000  Uiso   1.00
C97    C     0.51481   0.78170   0.18569   0.00000  Uiso   1.00
C98    C     0.90984   0.17004   0.15244   0.00000  Uiso   1.00
C99    C     0.89524   0.30890   0.17108   0.00000  Uiso   1.00
C100   C     0.83371   0.31204   0.20668   0.00000  Uiso   1.00
C101   C     0.74072   0.37732   0.26490   0.00000  Uiso   1.00
C102   C     0.86289   0.05774   0.07444   0.00000  Uiso   1.00
C103   C     0.80877   0.10220   0.02750   0.00000  Uiso   1.00
C104   C     0.70767   0.01080   0.99742   0.00000  Uiso   1.00
C105   C     0.54177   0.90172   0.93455   0.00000  Uiso   1.00
C106   C     0.89080   0.89953   0.14339   0.00000  Uiso   1.00
C107   C     0.04732   0.89833   0.15005   0.00000  Uiso   1.00
C108   C     0.13946   0.78303   0.16989   0.00000  Uiso   1.00
C109   C     0.27864   0.80346   0.17284   0.00000  Uiso   1.00
C110   C     0.86458   0.03897   0.16876   0.00000  Uiso   1.00
C111   C     0.80304   0.04191   0.20433   0.00000  Uiso   1.00
C112   C     0.78836   0.18073   0.22303   0.00000  Uiso   1.00
C113   C     0.81762   0.92666   0.09076   0.00000  Uiso   1.00
C114   C     0.71658   0.83519   0.06075   0.00000  Uiso   1.00
C115   C     0.66232   0.87949   0.01378   0.00000  Uiso   1.00
H116   H     0.00938   0.24291   0.10063   0.00000  Uiso   1.00
H117   H     0.26666   0.15148   0.12401   0.00000  Uiso   1.00
H118   H     0.93027   0.41032   0.15844   0.00000  Uiso   1.00
H119   H     0.84383   0.20364   0.01488   0.00000  Uiso   1.00
H120   H     0.53194   0.99234   0.15715   0.00000  Uiso   1.00
H121   H     0.82262   0.53812   0.22974   0.00000  Uiso   1.00
H122   H     0.64032   0.10229   0.92701   0.00000  Uiso   1.00
H123   H     0.85556   0.79748   0.15610   0.00000  Uiso   1.00
H124   H     0.10440   0.68161   0.18252   0.00000  Uiso   1.00
H125   H     0.76802   0.94045   0.21695   0.00000  Uiso   1.00
H126   H     0.68157   0.73377   0.07340   0.00000  Uiso   1.00
H127   H     0.40025   0.61097   0.20464   0.00000  Uiso   1.00
H128   H     0.69092   0.15676   0.27723   0.00000  Uiso   1.00
H129   H     0.50862   0.72093   0.97451   0.00000  Uiso   1.00
O130   O     0.63257   0.73349   0.19729   0.00000  Uiso   1.00
O131   O     0.70194   0.44954   0.29252   0.00000  Uiso   1.00
O132   O     0.46278   0.87774   0.89535   0.00000  Uiso   1.00
N133   N     0.46679   0.91847   0.16469   0.00000  Uiso   1.00
N134   N     0.80364   0.42874   0.23256   0.00000  Uiso   1.00
N135   N     0.63317   0.02131   0.94954   0.00000  Uiso   1.00
N136   N     0.39593   0.71326   0.19024   0.00000  Uiso   1.00
N137   N     0.73277   0.22354   0.25812   0.00000  Uiso   1.00
N138   N     0.56231   0.81610   0.97510   0.00000  Uiso   1.00
C139   C     0.02585   0.14085   0.38666   0.00000  Uiso   1.00
C140   C     0.90741   0.02941   0.36627   0.00000  Uiso   1.00
C141   C     0.76834   0.05002   0.36336   0.00000  Uiso   1.00
C142   C     0.67601   0.93478   0.34352   0.00000  Uiso   1.00
C143   C     0.48519   0.78170   0.31431   0.00000  Uiso   1.00
C144   C     0.09016   0.17004   0.34756   0.00000  Uiso   1.00
C145   C     0.10476   0.30890   0.32892   0.00000  Uiso   1.00
C146   C     0.16629   0.31204   0.29332   0.00000  Uiso   1.00
C147   C     0.25928   0.37732   0.23510   0.00000  Uiso   1.00
C148   C     0.13711   0.05774   0.42556   0.00000  Uiso   1.00
C149   C     0.19123   0.10220   0.47250   0.00000  Uiso   1.00
C150   C     0.29233   0.01080   0.50258   0.00000  Uiso   1.00
C151   C     0.45823   0.90172   0.56545   0.00000  Uiso   1.00
C152   C     0.10920   0.89953   0.35661   0.00000  Uiso   1.00
C153   C     0.95268   0.89833   0.34995   0.00000  Uiso   1.00
C154   C     0.86054   0.78303   0.33011   0.00000  Uiso   1.00
C155   C     0.72136   0.80346   0.32716   0.00000  Uiso   1.00
C156   C     0.13542   0.03897   0.33124   0.00000  Uiso   1.00
C157   C     0.19696   0.04191   0.29567   0.00000  Uiso   1.00
C158   C     0.21164   0.18073   0.27697   0.00000  Uiso   1.00
C159   C     0.18238   0.92666   0.40924   0.00000  Uiso   1.00
C160   C     0.28342   0.83519   0.43925   0.00000  Uiso   1.00
C161   C     0.33768   0.87949   0.48622   0.00000  Uiso   1.00
H162   H     0.99062   0.24291   0.39937   0.00000  Uiso   1.00
H163   H     0.73334   0.15148   0.37599   0.00000  Uiso   1.00
H164   H     0.06973   0.41032   0.34156   0.00000  Uiso   1.00
H165   H     0.15617   0.20364   0.48512   0.00000  Uiso   1.00
H166   H     0.46806   0.99234   0.34285   0.00000  Uiso   1.00
H167   H     0.17738   0.53812   0.27026   0.00000  Uiso   1.00
H168   H     0.35968   0.10229   0.57299   0.00000  Uiso   1.00
H169   H     0.14444   0.79748   0.34390   0.00000  Uiso   1.00
H170   H     0.89560   0.68161   0.31748   0.00000  Uiso   1.00
H171   H     0.23198   0.94045   0.28305   0.00000  Uiso   1.00
H172   H     0.31843   0.73377   0.42660   0.00000  Uiso   1.00
H173   H     0.59975   0.61097   0.29536   0.00000  Uiso   1.00
H174   H     0.30908   0.15676   0.22277   0.00000  Uiso   1.00
H175   H     0.49138   0.72093   0.52549   0.00000  Uiso   1.00
O176   O     0.36743   0.73349   0.30271   0.00000  Uiso   1.00
O177   O     0.29806   0.44954   0.20748   0.00000  Uiso   1.00
O178   O     0.53722   0.87774   0.60465   0.00000  Uiso   1.00
N179   N     0.53321   0.91847   0.33531   0.00000  Uiso   1.00
N180   N     0.19636   0.42874   0.26744   0.00000  Uiso   1.00
N181   N     0.36683   0.02131   0.55046   0.00000  Uiso   1.00
N182   N     0.60407   0.71326   0.30976   0.00000  Uiso   1.00
N183   N     0.26723   0.22354   0.24188   0.00000  Uiso   1.00
N184   N     0.43769   0.81610   0.52490   0.00000  Uiso   1.00
