data_job_05467
_audit_creation_date              2018-12-19
_audit_creation_method            'Materials Studio'
_symmetry_space_group_name_H-M    'P1'
_symmetry_Int_Tables_number       1
_symmetry_cell_setting            triclinic
loop_
_symmetry_equiv_pos_as_xyz
  x,y,z
_cell_length_a                    27.8055
_cell_length_b                    12.4095
_cell_length_c                    30.3742
_cell_angle_alpha                 90.0000
_cell_angle_beta                  44.7454
_cell_angle_gamma                 90.0000
loop_
_atom_site_label
_atom_site_type_symbol
_atom_site_fract_x
_atom_site_fract_y
_atom_site_fract_z
_atom_site_U_iso_or_equiv
_atom_site_adp_type
_atom_site_occupancy
C1     C     0.15015   0.85749   0.39493   0.00000  Uiso   1.00
C2     C     0.13659   0.75345   0.42899   0.00000  Uiso   1.00
C3     C     0.07667   0.69375   0.46658   0.00000  Uiso   1.00
C4     C     0.07435   0.60096   0.49359   0.00000  Uiso   1.00
C5     C     0.04482   0.44429   0.54806   0.00000  Uiso   1.00
C6     C     0.16949   0.94144   0.41683   0.00000  Uiso   1.00
C7     C     0.13724   0.03980   0.44419   0.00000  Uiso   1.00
C8     C     0.16262   0.10526   0.46096   0.00000  Uiso   1.00
C9     C     0.18420   0.24048   0.49652   0.00000  Uiso   1.00
C10    C     0.21455   0.83742   0.32602   0.00000  Uiso   1.00
C11    C     0.22020   0.84835   0.27702   0.00000  Uiso   1.00
C12    C     0.28352   0.82626   0.21733   0.00000  Uiso   1.00
C13    C     0.37506   0.79996   0.11190   0.00000  Uiso   1.00
C14    C     0.25256   0.79886   0.37604   0.00000  Uiso   1.00
C15    C     0.19222   0.72161   0.41873   0.00000  Uiso   1.00
C16    C     0.18998   0.62888   0.44569   0.00000  Uiso   1.00
C17    C     0.13008   0.56906   0.48331   0.00000  Uiso   1.00
C18    C     0.22511   0.90960   0.40658   0.00000  Uiso   1.00
C19    C     0.25055   0.97493   0.42330   0.00000  Uiso   1.00
C20    C     0.21834   0.07337   0.45069   0.00000  Uiso   1.00
C21    C     0.27018   0.80557   0.31577   0.00000  Uiso   1.00
C22    C     0.33350   0.78347   0.25614   0.00000  Uiso   1.00
C23    C     0.33925   0.79436   0.20706   0.00000  Uiso   1.00
H24    H     0.10684   0.88229   0.40291   0.00000  Uiso   1.00
H25    H     0.03363   0.71843   0.47451   0.00000  Uiso   1.00
H26    H     0.09420   0.06442   0.45212   0.00000  Uiso   1.00
H27    H     0.17714   0.87299   0.28498   0.00000  Uiso   1.00
H28    H     0.97699   0.52273   0.54938   0.00000  Uiso   1.00
H29    H     0.10471   0.25230   0.50215   0.00000  Uiso   1.00
H30    H     0.27961   0.84863   0.14970   0.00000  Uiso   1.00
H31    H     0.29587   0.77407   0.36806   0.00000  Uiso   1.00
H32    H     0.23304   0.60426   0.43774   0.00000  Uiso   1.00
H33    H     0.29360   0.95027   0.41536   0.00000  Uiso   1.00
H34    H     0.37654   0.75883   0.24822   0.00000  Uiso   1.00
H35    H     0.13884   0.43008   0.51955   0.00000  Uiso   1.00
H36    H     0.26655   0.15965   0.47232   0.00000  Uiso   1.00
H37    H     0.44145   0.75598   0.11987   0.00000  Uiso   1.00
O38    O     0.01316   0.36667   0.58095   0.00000  Uiso   1.00
O39    O     0.18072   0.32385   0.51898   0.00000  Uiso   1.00
O40    O     0.41018   0.79424   0.05658   0.00000  Uiso   1.00
N41    N     0.02371   0.52422   0.53279   0.00000  Uiso   1.00
N42    N     0.14311   0.20632   0.48864   0.00000  Uiso   1.00
N43    N     0.30663   0.82895   0.15913   0.00000  Uiso   1.00
N44    N     0.11080   0.47436   0.51673   0.00000  Uiso   1.00
N45    N     0.23020   0.15646   0.47259   0.00000  Uiso   1.00
N46    N     0.39372   0.77909   0.14307   0.00000  Uiso   1.00
C47    C     0.65015   0.35749   0.39493   0.00000  Uiso   1.00
C48    C     0.63659   0.25345   0.42899   0.00000  Uiso   1.00
C49    C     0.57667   0.19375   0.46658   0.00000  Uiso   1.00
C50    C     0.57435   0.10096   0.49359   0.00000  Uiso   1.00
C51    C     0.54482   0.94429   0.54806   0.00000  Uiso   1.00
C52    C     0.66949   0.44144   0.41683   0.00000  Uiso   1.00
C53    C     0.63724   0.53980   0.44419   0.00000  Uiso   1.00
C54    C     0.66262   0.60526   0.46096   0.00000  Uiso   1.00
C55    C     0.68420   0.74048   0.49652   0.00000  Uiso   1.00
C56    C     0.71455   0.33742   0.32602   0.00000  Uiso   1.00
C57    C     0.72020   0.34835   0.27702   0.00000  Uiso   1.00
C58    C     0.78352   0.32626   0.21733   0.00000  Uiso   1.00
C59    C     0.87506   0.29996   0.11190   0.00000  Uiso   1.00
C60    C     0.75256   0.29886   0.37604   0.00000  Uiso   1.00
C61    C     0.69222   0.22161   0.41873   0.00000  Uiso   1.00
C62    C     0.68998   0.12888   0.44569   0.00000  Uiso   1.00
C63    C     0.63008   0.06906   0.48331   0.00000  Uiso   1.00
C64    C     0.72511   0.40960   0.40658   0.00000  Uiso   1.00
C65    C     0.75055   0.47493   0.42330   0.00000  Uiso   1.00
C66    C     0.71834   0.57337   0.45069   0.00000  Uiso   1.00
C67    C     0.77018   0.30557   0.31577   0.00000  Uiso   1.00
C68    C     0.83350   0.28347   0.25614   0.00000  Uiso   1.00
C69    C     0.83925   0.29436   0.20706   0.00000  Uiso   1.00
H70    H     0.60684   0.38229   0.40291   0.00000  Uiso   1.00
H71    H     0.53363   0.21843   0.47451   0.00000  Uiso   1.00
H72    H     0.59420   0.56442   0.45212   0.00000  Uiso   1.00
H73    H     0.67714   0.37299   0.28498   0.00000  Uiso   1.00
H74    H     0.47699   0.02273   0.54938   0.00000  Uiso   1.00
H75    H     0.60471   0.75230   0.50215   0.00000  Uiso   1.00
H76    H     0.77961   0.34863   0.14970   0.00000  Uiso   1.00
H77    H     0.79587   0.27407   0.36806   0.00000  Uiso   1.00
H78    H     0.73304   0.10426   0.43774   0.00000  Uiso   1.00
H79    H     0.79360   0.45027   0.41536   0.00000  Uiso   1.00
H80    H     0.87654   0.25883   0.24822   0.00000  Uiso   1.00
H81    H     0.63884   0.93008   0.51955   0.00000  Uiso   1.00
H82    H     0.76655   0.65965   0.47232   0.00000  Uiso   1.00
H83    H     0.94145   0.25598   0.11987   0.00000  Uiso   1.00
O84    O     0.51316   0.86667   0.58095   0.00000  Uiso   1.00
O85    O     0.68072   0.82385   0.51898   0.00000  Uiso   1.00
O86    O     0.91018   0.29424   0.05658   0.00000  Uiso   1.00
N87    N     0.52371   0.02422   0.53279   0.00000  Uiso   1.00
N88    N     0.64311   0.70632   0.48864   0.00000  Uiso   1.00
N89    N     0.80663   0.32895   0.15913   0.00000  Uiso   1.00
N90    N     0.61080   0.97436   0.51673   0.00000  Uiso   1.00
N91    N     0.73020   0.65646   0.47259   0.00000  Uiso   1.00
N92    N     0.89372   0.27909   0.14307   0.00000  Uiso   1.00
C93    C     0.84985   0.85749   0.10507   0.00000  Uiso   1.00
C94    C     0.86341   0.75345   0.07101   0.00000  Uiso   1.00
C95    C     0.92333   0.69375   0.03342   0.00000  Uiso   1.00
C96    C     0.92565   0.60096   0.00641   0.00000  Uiso   1.00
C97    C     0.95518   0.44429   0.95194   0.00000  Uiso   1.00
C98    C     0.83051   0.94144   0.08317   0.00000  Uiso   1.00
C99    C     0.86276   0.03980   0.05581   0.00000  Uiso   1.00
C100   C     0.83738   0.10526   0.03904   0.00000  Uiso   1.00
C101   C     0.81580   0.24048   0.00348   0.00000  Uiso   1.00
C102   C     0.78545   0.83742   0.17398   0.00000  Uiso   1.00
C103   C     0.77980   0.84835   0.22298   0.00000  Uiso   1.00
C104   C     0.71648   0.82626   0.28267   0.00000  Uiso   1.00
C105   C     0.62494   0.79996   0.38810   0.00000  Uiso   1.00
C106   C     0.74744   0.79886   0.12396   0.00000  Uiso   1.00
C107   C     0.80778   0.72161   0.08127   0.00000  Uiso   1.00
C108   C     0.81002   0.62888   0.05431   0.00000  Uiso   1.00
C109   C     0.86992   0.56906   0.01669   0.00000  Uiso   1.00
C110   C     0.77489   0.90960   0.09342   0.00000  Uiso   1.00
C111   C     0.74945   0.97493   0.07670   0.00000  Uiso   1.00
C112   C     0.78166   0.07337   0.04931   0.00000  Uiso   1.00
C113   C     0.72982   0.80557   0.18423   0.00000  Uiso   1.00
C114   C     0.66650   0.78347   0.24386   0.00000  Uiso   1.00
C115   C     0.66075   0.79436   0.29294   0.00000  Uiso   1.00
H116   H     0.89316   0.88229   0.09709   0.00000  Uiso   1.00
H117   H     0.96637   0.71843   0.02549   0.00000  Uiso   1.00
H118   H     0.90580   0.06442   0.04788   0.00000  Uiso   1.00
H119   H     0.82286   0.87299   0.21502   0.00000  Uiso   1.00
H120   H     0.02301   0.52273   0.95062   0.00000  Uiso   1.00
H121   H     0.89529   0.25230   0.99785   0.00000  Uiso   1.00
H122   H     0.72039   0.84863   0.35030   0.00000  Uiso   1.00
H123   H     0.70413   0.77407   0.13194   0.00000  Uiso   1.00
H124   H     0.76696   0.60426   0.06226   0.00000  Uiso   1.00
H125   H     0.70640   0.95027   0.08464   0.00000  Uiso   1.00
H126   H     0.62346   0.75883   0.25178   0.00000  Uiso   1.00
H127   H     0.86116   0.43008   0.98045   0.00000  Uiso   1.00
H128   H     0.73345   0.15965   0.02768   0.00000  Uiso   1.00
H129   H     0.55855   0.75598   0.38013   0.00000  Uiso   1.00
O130   O     0.98684   0.36667   0.91905   0.00000  Uiso   1.00
O131   O     0.81928   0.32385   0.98102   0.00000  Uiso   1.00
O132   O     0.58982   0.79424   0.44342   0.00000  Uiso   1.00
N133   N     0.97629   0.52422   0.96721   0.00000  Uiso   1.00
N134   N     0.85689   0.20632   0.01136   0.00000  Uiso   1.00
N135   N     0.69337   0.82895   0.34087   0.00000  Uiso   1.00
N136   N     0.88920   0.47436   0.98327   0.00000  Uiso   1.00
N137   N     0.76980   0.15646   0.02741   0.00000  Uiso   1.00
N138   N     0.60628   0.77909   0.35693   0.00000  Uiso   1.00
C139   C     0.34985   0.35749   0.10507   0.00000  Uiso   1.00
C140   C     0.36341   0.25345   0.07101   0.00000  Uiso   1.00
C141   C     0.42333   0.19375   0.03342   0.00000  Uiso   1.00
C142   C     0.42565   0.10096   0.00641   0.00000  Uiso   1.00
C143   C     0.45518   0.94429   0.95194   0.00000  Uiso   1.00
C144   C     0.33051   0.44144   0.08317   0.00000  Uiso   1.00
C145   C     0.36276   0.53980   0.05581   0.00000  Uiso   1.00
C146   C     0.33738   0.60526   0.03904   0.00000  Uiso   1.00
C147   C     0.31580   0.74048   0.00348   0.00000  Uiso   1.00
C148   C     0.28545   0.33742   0.17398   0.00000  Uiso   1.00
C149   C     0.27980   0.34835   0.22298   0.00000  Uiso   1.00
C150   C     0.21648   0.32626   0.28267   0.00000  Uiso   1.00
C151   C     0.12494   0.29996   0.38810   0.00000  Uiso   1.00
C152   C     0.24744   0.29886   0.12396   0.00000  Uiso   1.00
C153   C     0.30778   0.22161   0.08127   0.00000  Uiso   1.00
C154   C     0.31002   0.12888   0.05431   0.00000  Uiso   1.00
C155   C     0.36992   0.06906   0.01669   0.00000  Uiso   1.00
C156   C     0.27489   0.40960   0.09342   0.00000  Uiso   1.00
C157   C     0.24945   0.47493   0.07670   0.00000  Uiso   1.00
C158   C     0.28166   0.57337   0.04931   0.00000  Uiso   1.00
C159   C     0.22982   0.30557   0.18423   0.00000  Uiso   1.00
C160   C     0.16650   0.28347   0.24386   0.00000  Uiso   1.00
C161   C     0.16075   0.29436   0.29294   0.00000  Uiso   1.00
H162   H     0.39316   0.38229   0.09709   0.00000  Uiso   1.00
H163   H     0.46637   0.21843   0.02549   0.00000  Uiso   1.00
H164   H     0.40580   0.56442   0.04788   0.00000  Uiso   1.00
H165   H     0.32286   0.37299   0.21502   0.00000  Uiso   1.00
H166   H     0.52301   0.02273   0.95062   0.00000  Uiso   1.00
H167   H     0.39529   0.75230   0.99785   0.00000  Uiso   1.00
H168   H     0.22039   0.34863   0.35030   0.00000  Uiso   1.00
H169   H     0.20413   0.27407   0.13194   0.00000  Uiso   1.00
H170   H     0.26696   0.10426   0.06226   0.00000  Uiso   1.00
H171   H     0.20640   0.45027   0.08464   0.00000  Uiso   1.00
H172   H     0.12346   0.25883   0.25178   0.00000  Uiso   1.00
H173   H     0.36116   0.93008   0.98045   0.00000  Uiso   1.00
H174   H     0.23345   0.65965   0.02768   0.00000  Uiso   1.00
H175   H     0.05855   0.25598   0.38013   0.00000  Uiso   1.00
O176   O     0.48684   0.86667   0.91905   0.00000  Uiso   1.00
O177   O     0.31928   0.82385   0.98102   0.00000  Uiso   1.00
O178   O     0.08982   0.29424   0.44342   0.00000  Uiso   1.00
N179   N     0.47629   0.02422   0.96721   0.00000  Uiso   1.00
N180   N     0.35689   0.70632   0.01136   0.00000  Uiso   1.00
N181   N     0.19337   0.32895   0.34087   0.00000  Uiso   1.00
N182   N     0.38920   0.97436   0.98327   0.00000  Uiso   1.00
N183   N     0.26980   0.65646   0.02741   0.00000  Uiso   1.00
N184   N     0.10628   0.27909   0.35693   0.00000  Uiso   1.00
C185   C     0.84985   0.14251   0.60507   0.00000  Uiso   1.00
C186   C     0.86341   0.24655   0.57101   0.00000  Uiso   1.00
C187   C     0.92333   0.30625   0.53342   0.00000  Uiso   1.00
C188   C     0.92565   0.39904   0.50641   0.00000  Uiso   1.00
C189   C     0.95518   0.55571   0.45194   0.00000  Uiso   1.00
C190   C     0.83051   0.05856   0.58317   0.00000  Uiso   1.00
C191   C     0.86276   0.96020   0.55581   0.00000  Uiso   1.00
C192   C     0.83738   0.89474   0.53904   0.00000  Uiso   1.00
C193   C     0.81580   0.75952   0.50348   0.00000  Uiso   1.00
C194   C     0.78545   0.16258   0.67398   0.00000  Uiso   1.00
C195   C     0.77980   0.15165   0.72298   0.00000  Uiso   1.00
C196   C     0.71648   0.17374   0.78267   0.00000  Uiso   1.00
C197   C     0.62494   0.20004   0.88810   0.00000  Uiso   1.00
C198   C     0.74744   0.20114   0.62396   0.00000  Uiso   1.00
C199   C     0.80778   0.27839   0.58127   0.00000  Uiso   1.00
C200   C     0.81002   0.37112   0.55431   0.00000  Uiso   1.00
C201   C     0.86992   0.43094   0.51669   0.00000  Uiso   1.00
C202   C     0.77489   0.09040   0.59342   0.00000  Uiso   1.00
C203   C     0.74945   0.02507   0.57670   0.00000  Uiso   1.00
C204   C     0.78166   0.92663   0.54931   0.00000  Uiso   1.00
C205   C     0.72982   0.19443   0.68423   0.00000  Uiso   1.00
C206   C     0.66650   0.21653   0.74386   0.00000  Uiso   1.00
C207   C     0.66075   0.20564   0.79294   0.00000  Uiso   1.00
H208   H     0.89316   0.11771   0.59709   0.00000  Uiso   1.00
H209   H     0.96637   0.28157   0.52549   0.00000  Uiso   1.00
H210   H     0.90580   0.93558   0.54788   0.00000  Uiso   1.00
H211   H     0.82286   0.12701   0.71502   0.00000  Uiso   1.00
H212   H     0.02301   0.47727   0.45062   0.00000  Uiso   1.00
H213   H     0.89529   0.74770   0.49785   0.00000  Uiso   1.00
H214   H     0.72039   0.15137   0.85030   0.00000  Uiso   1.00
H215   H     0.70413   0.22593   0.63194   0.00000  Uiso   1.00
H216   H     0.76696   0.39574   0.56226   0.00000  Uiso   1.00
H217   H     0.70640   0.04973   0.58464   0.00000  Uiso   1.00
H218   H     0.62346   0.24117   0.75178   0.00000  Uiso   1.00
H219   H     0.86116   0.56992   0.48045   0.00000  Uiso   1.00
H220   H     0.73345   0.84035   0.52768   0.00000  Uiso   1.00
H221   H     0.55855   0.24402   0.88013   0.00000  Uiso   1.00
O222   O     0.98684   0.63333   0.41905   0.00000  Uiso   1.00
O223   O     0.81928   0.67615   0.48102   0.00000  Uiso   1.00
O224   O     0.58982   0.20576   0.94342   0.00000  Uiso   1.00
N225   N     0.97629   0.47578   0.46721   0.00000  Uiso   1.00
N226   N     0.85689   0.79368   0.51136   0.00000  Uiso   1.00
N227   N     0.69337   0.17105   0.84087   0.00000  Uiso   1.00
N228   N     0.88920   0.52564   0.48327   0.00000  Uiso   1.00
N229   N     0.76980   0.84354   0.52741   0.00000  Uiso   1.00
N230   N     0.60628   0.22091   0.85693   0.00000  Uiso   1.00
C231   C     0.34985   0.64251   0.60507   0.00000  Uiso   1.00
C232   C     0.36341   0.74655   0.57101   0.00000  Uiso   1.00
C233   C     0.42333   0.80625   0.53342   0.00000  Uiso   1.00
C234   C     0.42565   0.89904   0.50641   0.00000  Uiso   1.00
C235   C     0.45518   0.05571   0.45194   0.00000  Uiso   1.00
C236   C     0.33051   0.55856   0.58317   0.00000  Uiso   1.00
C237   C     0.36276   0.46020   0.55581   0.00000  Uiso   1.00
C238   C     0.33738   0.39474   0.53904   0.00000  Uiso   1.00
C239   C     0.31580   0.25952   0.50348   0.00000  Uiso   1.00
C240   C     0.28545   0.66258   0.67398   0.00000  Uiso   1.00
C241   C     0.27980   0.65165   0.72298   0.00000  Uiso   1.00
C242   C     0.21648   0.67374   0.78267   0.00000  Uiso   1.00
C243   C     0.12494   0.70004   0.88810   0.00000  Uiso   1.00
C244   C     0.24744   0.70114   0.62396   0.00000  Uiso   1.00
C245   C     0.30778   0.77839   0.58127   0.00000  Uiso   1.00
C246   C     0.31002   0.87112   0.55431   0.00000  Uiso   1.00
C247   C     0.36992   0.93094   0.51669   0.00000  Uiso   1.00
C248   C     0.27489   0.59040   0.59342   0.00000  Uiso   1.00
C249   C     0.24945   0.52507   0.57670   0.00000  Uiso   1.00
C250   C     0.28166   0.42663   0.54931   0.00000  Uiso   1.00
C251   C     0.22982   0.69443   0.68423   0.00000  Uiso   1.00
C252   C     0.16650   0.71653   0.74386   0.00000  Uiso   1.00
C253   C     0.16075   0.70564   0.79294   0.00000  Uiso   1.00
H254   H     0.39316   0.61771   0.59709   0.00000  Uiso   1.00
H255   H     0.46637   0.78157   0.52549   0.00000  Uiso   1.00
H256   H     0.40580   0.43558   0.54788   0.00000  Uiso   1.00
H257   H     0.32286   0.62701   0.71502   0.00000  Uiso   1.00
H258   H     0.52301   0.97727   0.45062   0.00000  Uiso   1.00
H259   H     0.39529   0.24770   0.49785   0.00000  Uiso   1.00
H260   H     0.22039   0.65137   0.85030   0.00000  Uiso   1.00
H261   H     0.20413   0.72593   0.63194   0.00000  Uiso   1.00
H262   H     0.26696   0.89574   0.56226   0.00000  Uiso   1.00
H263   H     0.20640   0.54973   0.58464   0.00000  Uiso   1.00
H264   H     0.12346   0.74117   0.75178   0.00000  Uiso   1.00
H265   H     0.36116   0.06992   0.48045   0.00000  Uiso   1.00
H266   H     0.23345   0.34035   0.52768   0.00000  Uiso   1.00
H267   H     0.05855   0.74402   0.88013   0.00000  Uiso   1.00
O268   O     0.48684   0.13333   0.41905   0.00000  Uiso   1.00
O269   O     0.31928   0.17615   0.48102   0.00000  Uiso   1.00
O270   O     0.08982   0.70576   0.94342   0.00000  Uiso   1.00
N271   N     0.47629   0.97578   0.46721   0.00000  Uiso   1.00
N272   N     0.35689   0.29368   0.51136   0.00000  Uiso   1.00
N273   N     0.19337   0.67105   0.84087   0.00000  Uiso   1.00
N274   N     0.38920   0.02564   0.48327   0.00000  Uiso   1.00
N275   N     0.26980   0.34354   0.52741   0.00000  Uiso   1.00
N276   N     0.10628   0.72091   0.85693   0.00000  Uiso   1.00
C277   C     0.15015   0.14251   0.89493   0.00000  Uiso   1.00
C278   C     0.13659   0.24655   0.92899   0.00000  Uiso   1.00
C279   C     0.07667   0.30625   0.96658   0.00000  Uiso   1.00
C280   C     0.07435   0.39904   0.99359   0.00000  Uiso   1.00
C281   C     0.04482   0.55571   0.04806   0.00000  Uiso   1.00
C282   C     0.16949   0.05856   0.91683   0.00000  Uiso   1.00
C283   C     0.13724   0.96020   0.94419   0.00000  Uiso   1.00
C284   C     0.16262   0.89474   0.96096   0.00000  Uiso   1.00
C285   C     0.18420   0.75952   0.99652   0.00000  Uiso   1.00
C286   C     0.21455   0.16258   0.82602   0.00000  Uiso   1.00
C287   C     0.22020   0.15165   0.77702   0.00000  Uiso   1.00
C288   C     0.28352   0.17374   0.71733   0.00000  Uiso   1.00
C289   C     0.37506   0.20004   0.61190   0.00000  Uiso   1.00
C290   C     0.25256   0.20114   0.87604   0.00000  Uiso   1.00
C291   C     0.19222   0.27839   0.91873   0.00000  Uiso   1.00
C292   C     0.18998   0.37112   0.94569   0.00000  Uiso   1.00
C293   C     0.13008   0.43094   0.98331   0.00000  Uiso   1.00
C294   C     0.22511   0.09040   0.90658   0.00000  Uiso   1.00
C295   C     0.25055   0.02507   0.92330   0.00000  Uiso   1.00
C296   C     0.21834   0.92663   0.95069   0.00000  Uiso   1.00
C297   C     0.27018   0.19443   0.81577   0.00000  Uiso   1.00
C298   C     0.33350   0.21653   0.75614   0.00000  Uiso   1.00
C299   C     0.33925   0.20564   0.70706   0.00000  Uiso   1.00
H300   H     0.10684   0.11771   0.90291   0.00000  Uiso   1.00
H301   H     0.03363   0.28157   0.97451   0.00000  Uiso   1.00
H302   H     0.09420   0.93558   0.95212   0.00000  Uiso   1.00
H303   H     0.17714   0.12701   0.78498   0.00000  Uiso   1.00
H304   H     0.97699   0.47727   0.04938   0.00000  Uiso   1.00
H305   H     0.10471   0.74770   0.00215   0.00000  Uiso   1.00
H306   H     0.27961   0.15137   0.64970   0.00000  Uiso   1.00
H307   H     0.29587   0.22593   0.86806   0.00000  Uiso   1.00
H308   H     0.23304   0.39574   0.93774   0.00000  Uiso   1.00
H309   H     0.29360   0.04973   0.91536   0.00000  Uiso   1.00
H310   H     0.37654   0.24117   0.74822   0.00000  Uiso   1.00
H311   H     0.13884   0.56992   0.01955   0.00000  Uiso   1.00
H312   H     0.26655   0.84035   0.97232   0.00000  Uiso   1.00
H313   H     0.44145   0.24402   0.61987   0.00000  Uiso   1.00
O314   O     0.01316   0.63333   0.08095   0.00000  Uiso   1.00
O315   O     0.18072   0.67615   0.01898   0.00000  Uiso   1.00
O316   O     0.41018   0.20576   0.55658   0.00000  Uiso   1.00
N317   N     0.02371   0.47578   0.03279   0.00000  Uiso   1.00
N318   N     0.14311   0.79368   0.98864   0.00000  Uiso   1.00
N319   N     0.30663   0.17105   0.65913   0.00000  Uiso   1.00
N320   N     0.11080   0.52564   0.01673   0.00000  Uiso   1.00
N321   N     0.23020   0.84354   0.97259   0.00000  Uiso   1.00
N322   N     0.39372   0.22091   0.64307   0.00000  Uiso   1.00
C323   C     0.65015   0.64251   0.89493   0.00000  Uiso   1.00
C324   C     0.63659   0.74655   0.92899   0.00000  Uiso   1.00
C325   C     0.57667   0.80625   0.96658   0.00000  Uiso   1.00
C326   C     0.57435   0.89904   0.99359   0.00000  Uiso   1.00
C327   C     0.54482   0.05571   0.04806   0.00000  Uiso   1.00
C328   C     0.66949   0.55856   0.91683   0.00000  Uiso   1.00
C329   C     0.63724   0.46020   0.94419   0.00000  Uiso   1.00
C330   C     0.66262   0.39474   0.96096   0.00000  Uiso   1.00
C331   C     0.68420   0.25952   0.99652   0.00000  Uiso   1.00
C332   C     0.71455   0.66258   0.82602   0.00000  Uiso   1.00
C333   C     0.72020   0.65165   0.77702   0.00000  Uiso   1.00
C334   C     0.78352   0.67374   0.71733   0.00000  Uiso   1.00
C335   C     0.87506   0.70004   0.61190   0.00000  Uiso   1.00
C336   C     0.75256   0.70114   0.87604   0.00000  Uiso   1.00
C337   C     0.69222   0.77839   0.91873   0.00000  Uiso   1.00
C338   C     0.68998   0.87112   0.94569   0.00000  Uiso   1.00
C339   C     0.63008   0.93094   0.98331   0.00000  Uiso   1.00
C340   C     0.72511   0.59040   0.90658   0.00000  Uiso   1.00
C341   C     0.75055   0.52507   0.92330   0.00000  Uiso   1.00
C342   C     0.71834   0.42663   0.95069   0.00000  Uiso   1.00
C343   C     0.77018   0.69443   0.81577   0.00000  Uiso   1.00
C344   C     0.83350   0.71653   0.75614   0.00000  Uiso   1.00
C345   C     0.83925   0.70564   0.70706   0.00000  Uiso   1.00
H346   H     0.60684   0.61771   0.90291   0.00000  Uiso   1.00
H347   H     0.53363   0.78157   0.97451   0.00000  Uiso   1.00
H348   H     0.59420   0.43558   0.95212   0.00000  Uiso   1.00
H349   H     0.67714   0.62701   0.78498   0.00000  Uiso   1.00
H350   H     0.47699   0.97727   0.04938   0.00000  Uiso   1.00
H351   H     0.60471   0.24770   0.00215   0.00000  Uiso   1.00
H352   H     0.77961   0.65137   0.64970   0.00000  Uiso   1.00
H353   H     0.79587   0.72593   0.86806   0.00000  Uiso   1.00
H354   H     0.73304   0.89574   0.93774   0.00000  Uiso   1.00
H355   H     0.79360   0.54973   0.91536   0.00000  Uiso   1.00
H356   H     0.87654   0.74117   0.74822   0.00000  Uiso   1.00
H357   H     0.63884   0.06992   0.01955   0.00000  Uiso   1.00
H358   H     0.76655   0.34035   0.97232   0.00000  Uiso   1.00
H359   H     0.94145   0.74402   0.61987   0.00000  Uiso   1.00
O360   O     0.51316   0.13333   0.08095   0.00000  Uiso   1.00
O361   O     0.68072   0.17615   0.01898   0.00000  Uiso   1.00
O362   O     0.91018   0.70576   0.55658   0.00000  Uiso   1.00
N363   N     0.52371   0.97578   0.03279   0.00000  Uiso   1.00
N364   N     0.64311   0.29368   0.98864   0.00000  Uiso   1.00
N365   N     0.80663   0.67105   0.65913   0.00000  Uiso   1.00
N366   N     0.61080   0.02564   0.01673   0.00000  Uiso   1.00
N367   N     0.73020   0.34354   0.97259   0.00000  Uiso   1.00
N368   N     0.89372   0.72091   0.64307   0.00000  Uiso   1.00
