data_job_02926
_audit_creation_date              2018-12-19
_audit_creation_method            'Materials Studio'
_symmetry_space_group_name_H-M    'P1'
_symmetry_Int_Tables_number       1
_symmetry_cell_setting            triclinic
loop_
_symmetry_equiv_pos_as_xyz
  x,y,z
_cell_length_a                    9.7731
_cell_length_b                    12.5348
_cell_length_c                    12.5497
_cell_angle_alpha                 107.4466
_cell_angle_beta                  94.4791
_cell_angle_gamma                 94.7402
loop_
_atom_site_label
_atom_site_type_symbol
_atom_site_fract_x
_atom_site_fract_y
_atom_site_fract_z
_atom_site_U_iso_or_equiv
_atom_site_adp_type
_atom_site_occupancy
C1     C     0.37464   0.88615   0.64316   0.00000  Uiso   1.00
C2     C     0.41965   0.84548   0.74207   0.00000  Uiso   1.00
C3     C     0.51998   0.90140   0.83009   0.00000  Uiso   1.00
C4     C     0.54618   0.85025   0.91244   0.00000  Uiso   1.00
C5     C     0.62701   0.80279   0.06684   0.00000  Uiso   1.00
C6     C     0.39478   0.79209   0.53763   0.00000  Uiso   1.00
C7     C     0.47417   0.80314   0.45376   0.00000  Uiso   1.00
C8     C     0.47941   0.70705   0.36401   0.00000  Uiso   1.00
C9     C     0.52155   0.57673   0.20098   0.00000  Uiso   1.00
C10    C     0.21914   0.89048   0.64272   0.00000  Uiso   1.00
C11    C     0.15084   0.98424   0.64718   0.00000  Uiso   1.00
C12    C     0.00819   0.97099   0.64588   0.00000  Uiso   1.00
C13    C     0.77762   0.99343   0.64601   0.00000  Uiso   1.00
C14    C     0.24277   0.69588   0.63287   0.00000  Uiso   1.00
C15    C     0.34802   0.74213   0.73647   0.00000  Uiso   1.00
C16    C     0.37407   0.69088   0.81871   0.00000  Uiso   1.00
C17    C     0.47441   0.74672   0.90685   0.00000  Uiso   1.00
C18    C     0.32315   0.68874   0.53204   0.00000  Uiso   1.00
C19    C     0.32827   0.59262   0.44238   0.00000  Uiso   1.00
C20    C     0.40765   0.60351   0.35841   0.00000  Uiso   1.00
C21    C     0.14750   0.78713   0.63713   0.00000  Uiso   1.00
C22    C     0.00493   0.77373   0.63581   0.00000  Uiso   1.00
C23    C     0.93643   0.86745   0.64028   0.00000  Uiso   1.00
H24    H     0.43041   0.96661   0.64750   0.00000  Uiso   1.00
H25    H     0.57540   0.98137   0.83438   0.00000  Uiso   1.00
H26    H     0.52958   0.88313   0.45811   0.00000  Uiso   1.00
H27    H     0.20630   0.06420   0.65151   0.00000  Uiso   1.00
H28    H     0.70458   0.95215   0.03909   0.00000  Uiso   1.00
H29    H     0.60795   0.74500   0.24567   0.00000  Uiso   1.00
H30    H     0.92625   0.12684   0.65348   0.00000  Uiso   1.00
H31    H     0.18700   0.61541   0.62852   0.00000  Uiso   1.00
H32    H     0.31862   0.61091   0.81437   0.00000  Uiso   1.00
H33    H     0.27281   0.51266   0.43809   0.00000  Uiso   1.00
H34    H     0.94954   0.69374   0.63148   0.00000  Uiso   1.00
H35    H     0.49618   0.65146   0.02284   0.00000  Uiso   1.00
H36    H     0.39954   0.44431   0.22942   0.00000  Uiso   1.00
H37    H     0.71784   0.82615   0.63724   0.00000  Uiso   1.00
O38    O     0.69140   0.80516   0.15354   0.00000  Uiso   1.00
O39    O     0.56459   0.53340   0.11260   0.00000  Uiso   1.00
O40    O     0.67022   0.03436   0.64765   0.00000  Uiso   1.00
N41    N     0.63745   0.88201   0.00977   0.00000  Uiso   1.00
N42    N     0.54712   0.68833   0.26798   0.00000  Uiso   1.00
N43    N     0.90979   0.04531   0.64922   0.00000  Uiso   1.00
N44    N     0.52531   0.72021   0.00103   0.00000  Uiso   1.00
N45    N     0.43498   0.52654   0.25924   0.00000  Uiso   1.00
N46    N     0.79765   0.88352   0.64048   0.00000  Uiso   1.00
C47    C     0.62536   0.11385   0.35684   0.00000  Uiso   1.00
C48    C     0.58035   0.15452   0.25793   0.00000  Uiso   1.00
C49    C     0.48002   0.09860   0.16991   0.00000  Uiso   1.00
C50    C     0.45382   0.14975   0.08756   0.00000  Uiso   1.00
C51    C     0.37299   0.19721   0.93316   0.00000  Uiso   1.00
C52    C     0.60522   0.20791   0.46237   0.00000  Uiso   1.00
C53    C     0.52583   0.19686   0.54624   0.00000  Uiso   1.00
C54    C     0.52059   0.29295   0.63599   0.00000  Uiso   1.00
C55    C     0.47845   0.42327   0.79902   0.00000  Uiso   1.00
C56    C     0.78086   0.10952   0.35728   0.00000  Uiso   1.00
C57    C     0.84916   0.01576   0.35282   0.00000  Uiso   1.00
C58    C     0.99181   0.02901   0.35412   0.00000  Uiso   1.00
C59    C     0.22238   0.00657   0.35399   0.00000  Uiso   1.00
C60    C     0.75723   0.30412   0.36713   0.00000  Uiso   1.00
C61    C     0.65198   0.25787   0.26353   0.00000  Uiso   1.00
C62    C     0.62593   0.30912   0.18129   0.00000  Uiso   1.00
C63    C     0.52559   0.25328   0.09315   0.00000  Uiso   1.00
C64    C     0.67685   0.31126   0.46796   0.00000  Uiso   1.00
C65    C     0.67173   0.40738   0.55762   0.00000  Uiso   1.00
C66    C     0.59235   0.39649   0.64159   0.00000  Uiso   1.00
C67    C     0.85250   0.21287   0.36287   0.00000  Uiso   1.00
C68    C     0.99507   0.22627   0.36419   0.00000  Uiso   1.00
C69    C     0.06357   0.13255   0.35972   0.00000  Uiso   1.00
H70    H     0.56959   0.03339   0.35250   0.00000  Uiso   1.00
H71    H     0.42460   0.01863   0.16562   0.00000  Uiso   1.00
H72    H     0.47042   0.11687   0.54189   0.00000  Uiso   1.00
H73    H     0.79370   0.93580   0.34849   0.00000  Uiso   1.00
H74    H     0.29542   0.04785   0.96091   0.00000  Uiso   1.00
H75    H     0.39205   0.25500   0.75433   0.00000  Uiso   1.00
H76    H     0.07375   0.87316   0.34652   0.00000  Uiso   1.00
H77    H     0.81300   0.38459   0.37148   0.00000  Uiso   1.00
H78    H     0.68138   0.38909   0.18563   0.00000  Uiso   1.00
H79    H     0.72719   0.48734   0.56191   0.00000  Uiso   1.00
H80    H     0.05046   0.30626   0.36852   0.00000  Uiso   1.00
H81    H     0.50382   0.34854   0.97716   0.00000  Uiso   1.00
H82    H     0.60046   0.55569   0.77058   0.00000  Uiso   1.00
H83    H     0.28216   0.17385   0.36276   0.00000  Uiso   1.00
O84    O     0.30860   0.19484   0.84646   0.00000  Uiso   1.00
O85    O     0.43541   0.46660   0.88740   0.00000  Uiso   1.00
O86    O     0.32978   0.96564   0.35235   0.00000  Uiso   1.00
N87    N     0.36255   0.11799   0.99023   0.00000  Uiso   1.00
N88    N     0.45288   0.31167   0.73202   0.00000  Uiso   1.00
N89    N     0.09021   0.95469   0.35078   0.00000  Uiso   1.00
N90    N     0.47469   0.27979   0.99897   0.00000  Uiso   1.00
N91    N     0.56502   0.47346   0.74076   0.00000  Uiso   1.00
N92    N     0.20235   0.11648   0.35952   0.00000  Uiso   1.00
