data_job_01179
_audit_creation_date              2018-12-19
_audit_creation_method            'Materials Studio'
_symmetry_space_group_name_H-M    'P1'
_symmetry_Int_Tables_number       1
_symmetry_cell_setting            triclinic
loop_
_symmetry_equiv_pos_as_xyz
  x,y,z
_cell_length_a                    17.7271
_cell_length_b                    21.3881
_cell_length_c                    14.9398
_cell_angle_alpha                 90.0000
_cell_angle_beta                  90.0000
_cell_angle_gamma                 90.0000
loop_
_atom_site_label
_atom_site_type_symbol
_atom_site_fract_x
_atom_site_fract_y
_atom_site_fract_z
_atom_site_U_iso_or_equiv
_atom_site_adp_type
_atom_site_occupancy
C1     C     0.01129   0.39855   0.20620   0.00000  Uiso   1.00
C2     C     0.99818   0.46893   0.20119   0.00000  Uiso   1.00
C3     C     0.93933   0.49823   0.15655   0.00000  Uiso   1.00
C4     C     0.93725   0.56308   0.15989   0.00000  Uiso   1.00
C5     C     0.90856   0.66715   0.14501   0.00000  Uiso   1.00
C6     C     0.09072   0.38752   0.17032   0.00000  Uiso   1.00
C7     C     0.10967   0.34837   0.09973   0.00000  Uiso   1.00
C8     C     0.18551   0.34469   0.07709   0.00000  Uiso   1.00
C9     C     0.30050   0.32234   0.01434   0.00000  Uiso   1.00
C10    C     0.01419   0.38242   0.30556   0.00000  Uiso   1.00
C11    C     0.96881   0.33896   0.34869   0.00000  Uiso   1.00
C12    C     0.98022   0.33097   0.43993   0.00000  Uiso   1.00
C13    C     0.97639   0.30069   0.58716   0.00000  Uiso   1.00
C14    C     0.11226   0.46161   0.29152   0.00000  Uiso   1.00
C15    C     0.05302   0.50318   0.24753   0.00000  Uiso   1.00
C16    C     0.05104   0.56800   0.25094   0.00000  Uiso   1.00
C17    C     0.99219   0.59739   0.20632   0.00000  Uiso   1.00
C18    C     0.14556   0.42177   0.21666   0.00000  Uiso   1.00
C19    C     0.22139   0.41814   0.19412   0.00000  Uiso   1.00
C20    C     0.24045   0.37900   0.12352   0.00000  Uiso   1.00
C21    C     0.06903   0.41667   0.35191   0.00000  Uiso   1.00
C22    C     0.08052   0.40873   0.44309   0.00000  Uiso   1.00
C23    C     0.03517   0.36528   0.48635   0.00000  Uiso   1.00
H24    H     0.96860   0.37188   0.17012   0.00000  Uiso   1.00
H25    H     0.89690   0.47170   0.12068   0.00000  Uiso   1.00
H26    H     0.06722   0.32187   0.06389   0.00000  Uiso   1.00
H27    H     0.92638   0.31246   0.31281   0.00000  Uiso   1.00
H28    H     0.84160   0.59748   0.08628   0.00000  Uiso   1.00
H29    H     0.20074   0.28153   0.96654   0.00000  Uiso   1.00
H30    H     0.90375   0.26169   0.49145   0.00000  Uiso   1.00
H31    H     0.15497   0.48828   0.32760   0.00000  Uiso   1.00
H32    H     0.09349   0.59449   0.28681   0.00000  Uiso   1.00
H33    H     0.26381   0.44465   0.23000   0.00000  Uiso   1.00
H34    H     0.12297   0.43525   0.47893   0.00000  Uiso   1.00
H35    H     0.00116   0.69714   0.22111   0.00000  Uiso   1.00
H36    H     0.36031   0.38118   0.10137   0.00000  Uiso   1.00
H37    H     0.06331   0.36135   0.62627   0.00000  Uiso   1.00
O38    O     0.87759   0.71509   0.12400   0.00000  Uiso   1.00
O39    O     0.34877   0.30055   0.96691   0.00000  Uiso   1.00
O40    O     0.95911   0.27453   0.65557   0.00000  Uiso   1.00
N41    N     0.88759   0.60636   0.12363   0.00000  Uiso   1.00
N42    N     0.22336   0.31097   0.01167   0.00000  Uiso   1.00
N43    N     0.94570   0.29241   0.50240   0.00000  Uiso   1.00
N44    N     0.97344   0.65999   0.19618   0.00000  Uiso   1.00
N45    N     0.30922   0.36459   0.08422   0.00000  Uiso   1.00
N46    N     0.03156   0.34604   0.57495   0.00000  Uiso   1.00
C47    C     0.48871   0.60145   0.20620   0.00000  Uiso   1.00
C48    C     0.50182   0.53107   0.20119   0.00000  Uiso   1.00
C49    C     0.56067   0.50177   0.15655   0.00000  Uiso   1.00
C50    C     0.56275   0.43692   0.15989   0.00000  Uiso   1.00
C51    C     0.59144   0.33285   0.14501   0.00000  Uiso   1.00
C52    C     0.40928   0.61248   0.17032   0.00000  Uiso   1.00
C53    C     0.39033   0.65163   0.09973   0.00000  Uiso   1.00
C54    C     0.31449   0.65531   0.07709   0.00000  Uiso   1.00
C55    C     0.19950   0.67766   0.01434   0.00000  Uiso   1.00
C56    C     0.48581   0.61758   0.30556   0.00000  Uiso   1.00
C57    C     0.53119   0.66104   0.34869   0.00000  Uiso   1.00
C58    C     0.51978   0.66903   0.43993   0.00000  Uiso   1.00
C59    C     0.52361   0.69931   0.58716   0.00000  Uiso   1.00
C60    C     0.38774   0.53839   0.29152   0.00000  Uiso   1.00
C61    C     0.44698   0.49682   0.24753   0.00000  Uiso   1.00
C62    C     0.44896   0.43200   0.25094   0.00000  Uiso   1.00
C63    C     0.50781   0.40261   0.20632   0.00000  Uiso   1.00
C64    C     0.35444   0.57823   0.21666   0.00000  Uiso   1.00
C65    C     0.27861   0.58186   0.19412   0.00000  Uiso   1.00
C66    C     0.25955   0.62100   0.12352   0.00000  Uiso   1.00
C67    C     0.43097   0.58333   0.35191   0.00000  Uiso   1.00
C68    C     0.41948   0.59127   0.44309   0.00000  Uiso   1.00
C69    C     0.46483   0.63472   0.48635   0.00000  Uiso   1.00
H70    H     0.53140   0.62812   0.17012   0.00000  Uiso   1.00
H71    H     0.60310   0.52830   0.12068   0.00000  Uiso   1.00
H72    H     0.43278   0.67813   0.06389   0.00000  Uiso   1.00
H73    H     0.57362   0.68754   0.31281   0.00000  Uiso   1.00
H74    H     0.65840   0.40252   0.08628   0.00000  Uiso   1.00
H75    H     0.29926   0.71847   0.96654   0.00000  Uiso   1.00
H76    H     0.59625   0.73831   0.49145   0.00000  Uiso   1.00
H77    H     0.34503   0.51172   0.32760   0.00000  Uiso   1.00
H78    H     0.40651   0.40551   0.28681   0.00000  Uiso   1.00
H79    H     0.23619   0.55535   0.23000   0.00000  Uiso   1.00
H80    H     0.37703   0.56475   0.47893   0.00000  Uiso   1.00
H81    H     0.49884   0.30286   0.22111   0.00000  Uiso   1.00
H82    H     0.13969   0.61882   0.10137   0.00000  Uiso   1.00
H83    H     0.43669   0.63865   0.62627   0.00000  Uiso   1.00
O84    O     0.62241   0.28491   0.12400   0.00000  Uiso   1.00
O85    O     0.15123   0.69945   0.96691   0.00000  Uiso   1.00
O86    O     0.54089   0.72547   0.65557   0.00000  Uiso   1.00
N87    N     0.61241   0.39364   0.12363   0.00000  Uiso   1.00
N88    N     0.27664   0.68903   0.01167   0.00000  Uiso   1.00
N89    N     0.55430   0.70759   0.50240   0.00000  Uiso   1.00
N90    N     0.52656   0.34001   0.19618   0.00000  Uiso   1.00
N91    N     0.19078   0.63541   0.08422   0.00000  Uiso   1.00
N92    N     0.46844   0.65396   0.57495   0.00000  Uiso   1.00
C93    C     0.48871   0.89855   0.29380   0.00000  Uiso   1.00
C94    C     0.50182   0.96893   0.29881   0.00000  Uiso   1.00
C95    C     0.56067   0.99823   0.34345   0.00000  Uiso   1.00
C96    C     0.56275   0.06308   0.34011   0.00000  Uiso   1.00
C97    C     0.59144   0.16715   0.35499   0.00000  Uiso   1.00
C98    C     0.40928   0.88752   0.32968   0.00000  Uiso   1.00
C99    C     0.39033   0.84837   0.40027   0.00000  Uiso   1.00
C100   C     0.31449   0.84469   0.42291   0.00000  Uiso   1.00
C101   C     0.19950   0.82234   0.48566   0.00000  Uiso   1.00
C102   C     0.48581   0.88242   0.19444   0.00000  Uiso   1.00
C103   C     0.53119   0.83896   0.15131   0.00000  Uiso   1.00
C104   C     0.51978   0.83097   0.06007   0.00000  Uiso   1.00
C105   C     0.52361   0.80069   0.91284   0.00000  Uiso   1.00
C106   C     0.38774   0.96161   0.20848   0.00000  Uiso   1.00
C107   C     0.44698   0.00318   0.25247   0.00000  Uiso   1.00
C108   C     0.44896   0.06800   0.24906   0.00000  Uiso   1.00
C109   C     0.50781   0.09739   0.29368   0.00000  Uiso   1.00
C110   C     0.35444   0.92177   0.28334   0.00000  Uiso   1.00
C111   C     0.27861   0.91814   0.30588   0.00000  Uiso   1.00
C112   C     0.25955   0.87900   0.37648   0.00000  Uiso   1.00
C113   C     0.43097   0.91667   0.14809   0.00000  Uiso   1.00
C114   C     0.41948   0.90873   0.05691   0.00000  Uiso   1.00
C115   C     0.46483   0.86528   0.01365   0.00000  Uiso   1.00
H116   H     0.53140   0.87188   0.32988   0.00000  Uiso   1.00
H117   H     0.60310   0.97170   0.37932   0.00000  Uiso   1.00
H118   H     0.43278   0.82187   0.43611   0.00000  Uiso   1.00
H119   H     0.57362   0.81246   0.18719   0.00000  Uiso   1.00
H120   H     0.65840   0.09748   0.41372   0.00000  Uiso   1.00
H121   H     0.29926   0.78153   0.53346   0.00000  Uiso   1.00
H122   H     0.59625   0.76169   0.00855   0.00000  Uiso   1.00
H123   H     0.34503   0.98828   0.17240   0.00000  Uiso   1.00
H124   H     0.40651   0.09449   0.21319   0.00000  Uiso   1.00
H125   H     0.23619   0.94465   0.27000   0.00000  Uiso   1.00
H126   H     0.37703   0.93525   0.02107   0.00000  Uiso   1.00
H127   H     0.49884   0.19714   0.27889   0.00000  Uiso   1.00
H128   H     0.13969   0.88118   0.39863   0.00000  Uiso   1.00
H129   H     0.43669   0.86135   0.87373   0.00000  Uiso   1.00
O130   O     0.62241   0.21509   0.37600   0.00000  Uiso   1.00
O131   O     0.15123   0.80055   0.53309   0.00000  Uiso   1.00
O132   O     0.54089   0.77453   0.84443   0.00000  Uiso   1.00
N133   N     0.61241   0.10636   0.37637   0.00000  Uiso   1.00
N134   N     0.27664   0.81097   0.48833   0.00000  Uiso   1.00
N135   N     0.55430   0.79241   0.99760   0.00000  Uiso   1.00
N136   N     0.52656   0.15999   0.30382   0.00000  Uiso   1.00
N137   N     0.19078   0.86459   0.41578   0.00000  Uiso   1.00
N138   N     0.46844   0.84604   0.92505   0.00000  Uiso   1.00
C139   C     0.01129   0.10145   0.29380   0.00000  Uiso   1.00
C140   C     0.99818   0.03107   0.29881   0.00000  Uiso   1.00
C141   C     0.93933   0.00177   0.34345   0.00000  Uiso   1.00
C142   C     0.93725   0.93692   0.34011   0.00000  Uiso   1.00
C143   C     0.90856   0.83285   0.35499   0.00000  Uiso   1.00
C144   C     0.09072   0.11248   0.32968   0.00000  Uiso   1.00
C145   C     0.10967   0.15163   0.40027   0.00000  Uiso   1.00
C146   C     0.18551   0.15531   0.42291   0.00000  Uiso   1.00
C147   C     0.30050   0.17766   0.48566   0.00000  Uiso   1.00
C148   C     0.01419   0.11758   0.19444   0.00000  Uiso   1.00
C149   C     0.96881   0.16104   0.15131   0.00000  Uiso   1.00
C150   C     0.98022   0.16903   0.06007   0.00000  Uiso   1.00
C151   C     0.97639   0.19931   0.91284   0.00000  Uiso   1.00
C152   C     0.11226   0.03839   0.20848   0.00000  Uiso   1.00
C153   C     0.05302   0.99682   0.25247   0.00000  Uiso   1.00
C154   C     0.05104   0.93200   0.24906   0.00000  Uiso   1.00
C155   C     0.99219   0.90261   0.29368   0.00000  Uiso   1.00
C156   C     0.14556   0.07823   0.28334   0.00000  Uiso   1.00
C157   C     0.22139   0.08186   0.30588   0.00000  Uiso   1.00
C158   C     0.24045   0.12100   0.37648   0.00000  Uiso   1.00
C159   C     0.06903   0.08333   0.14809   0.00000  Uiso   1.00
C160   C     0.08052   0.09127   0.05691   0.00000  Uiso   1.00
C161   C     0.03517   0.13472   0.01365   0.00000  Uiso   1.00
H162   H     0.96860   0.12812   0.32988   0.00000  Uiso   1.00
H163   H     0.89690   0.02830   0.37932   0.00000  Uiso   1.00
H164   H     0.06722   0.17813   0.43611   0.00000  Uiso   1.00
H165   H     0.92638   0.18754   0.18719   0.00000  Uiso   1.00
H166   H     0.84160   0.90252   0.41372   0.00000  Uiso   1.00
H167   H     0.20074   0.21847   0.53346   0.00000  Uiso   1.00
H168   H     0.90375   0.23831   0.00855   0.00000  Uiso   1.00
H169   H     0.15497   0.01172   0.17240   0.00000  Uiso   1.00
H170   H     0.09349   0.90551   0.21319   0.00000  Uiso   1.00
H171   H     0.26381   0.05535   0.27000   0.00000  Uiso   1.00
H172   H     0.12297   0.06475   0.02107   0.00000  Uiso   1.00
H173   H     0.00116   0.80286   0.27889   0.00000  Uiso   1.00
H174   H     0.36031   0.11882   0.39863   0.00000  Uiso   1.00
H175   H     0.06331   0.13865   0.87373   0.00000  Uiso   1.00
O176   O     0.87759   0.78491   0.37600   0.00000  Uiso   1.00
O177   O     0.34877   0.19945   0.53309   0.00000  Uiso   1.00
O178   O     0.95911   0.22547   0.84443   0.00000  Uiso   1.00
N179   N     0.88759   0.89364   0.37637   0.00000  Uiso   1.00
N180   N     0.22336   0.18903   0.48833   0.00000  Uiso   1.00
N181   N     0.94570   0.20759   0.99760   0.00000  Uiso   1.00
N182   N     0.97344   0.84001   0.30382   0.00000  Uiso   1.00
N183   N     0.30922   0.13541   0.41578   0.00000  Uiso   1.00
N184   N     0.03156   0.15396   0.92505   0.00000  Uiso   1.00
C185   C     0.98871   0.60145   0.79380   0.00000  Uiso   1.00
C186   C     0.00182   0.53107   0.79881   0.00000  Uiso   1.00
C187   C     0.06067   0.50177   0.84345   0.00000  Uiso   1.00
C188   C     0.06275   0.43692   0.84011   0.00000  Uiso   1.00
C189   C     0.09144   0.33285   0.85499   0.00000  Uiso   1.00
C190   C     0.90928   0.61248   0.82968   0.00000  Uiso   1.00
C191   C     0.89033   0.65163   0.90027   0.00000  Uiso   1.00
C192   C     0.81449   0.65531   0.92291   0.00000  Uiso   1.00
C193   C     0.69950   0.67766   0.98566   0.00000  Uiso   1.00
C194   C     0.98581   0.61758   0.69444   0.00000  Uiso   1.00
C195   C     0.03119   0.66104   0.65131   0.00000  Uiso   1.00
C196   C     0.01978   0.66903   0.56007   0.00000  Uiso   1.00
C197   C     0.02361   0.69931   0.41284   0.00000  Uiso   1.00
C198   C     0.88774   0.53839   0.70848   0.00000  Uiso   1.00
C199   C     0.94698   0.49682   0.75247   0.00000  Uiso   1.00
C200   C     0.94896   0.43200   0.74906   0.00000  Uiso   1.00
C201   C     0.00781   0.40261   0.79368   0.00000  Uiso   1.00
C202   C     0.85444   0.57823   0.78334   0.00000  Uiso   1.00
C203   C     0.77861   0.58186   0.80588   0.00000  Uiso   1.00
C204   C     0.75955   0.62100   0.87648   0.00000  Uiso   1.00
C205   C     0.93097   0.58333   0.64809   0.00000  Uiso   1.00
C206   C     0.91948   0.59127   0.55691   0.00000  Uiso   1.00
C207   C     0.96483   0.63472   0.51365   0.00000  Uiso   1.00
H208   H     0.03140   0.62812   0.82988   0.00000  Uiso   1.00
H209   H     0.10310   0.52830   0.87932   0.00000  Uiso   1.00
H210   H     0.93278   0.67813   0.93611   0.00000  Uiso   1.00
H211   H     0.07362   0.68754   0.68719   0.00000  Uiso   1.00
H212   H     0.15840   0.40252   0.91372   0.00000  Uiso   1.00
H213   H     0.79926   0.71847   0.03346   0.00000  Uiso   1.00
H214   H     0.09625   0.73831   0.50855   0.00000  Uiso   1.00
H215   H     0.84503   0.51172   0.67240   0.00000  Uiso   1.00
H216   H     0.90651   0.40551   0.71319   0.00000  Uiso   1.00
H217   H     0.73619   0.55535   0.77000   0.00000  Uiso   1.00
H218   H     0.87703   0.56475   0.52107   0.00000  Uiso   1.00
H219   H     0.99884   0.30286   0.77889   0.00000  Uiso   1.00
H220   H     0.63969   0.61882   0.89863   0.00000  Uiso   1.00
H221   H     0.93669   0.63865   0.37373   0.00000  Uiso   1.00
O222   O     0.12241   0.28491   0.87600   0.00000  Uiso   1.00
O223   O     0.65123   0.69945   0.03309   0.00000  Uiso   1.00
O224   O     0.04089   0.72547   0.34443   0.00000  Uiso   1.00
N225   N     0.11241   0.39364   0.87637   0.00000  Uiso   1.00
N226   N     0.77664   0.68903   0.98833   0.00000  Uiso   1.00
N227   N     0.05430   0.70759   0.49760   0.00000  Uiso   1.00
N228   N     0.02656   0.34001   0.80382   0.00000  Uiso   1.00
N229   N     0.69078   0.63541   0.91578   0.00000  Uiso   1.00
N230   N     0.96844   0.65396   0.42505   0.00000  Uiso   1.00
C231   C     0.51129   0.39855   0.79380   0.00000  Uiso   1.00
C232   C     0.49818   0.46893   0.79881   0.00000  Uiso   1.00
C233   C     0.43933   0.49823   0.84345   0.00000  Uiso   1.00
C234   C     0.43725   0.56308   0.84011   0.00000  Uiso   1.00
C235   C     0.40856   0.66715   0.85499   0.00000  Uiso   1.00
C236   C     0.59072   0.38752   0.82968   0.00000  Uiso   1.00
C237   C     0.60967   0.34837   0.90027   0.00000  Uiso   1.00
C238   C     0.68551   0.34469   0.92291   0.00000  Uiso   1.00
C239   C     0.80050   0.32234   0.98566   0.00000  Uiso   1.00
C240   C     0.51419   0.38242   0.69444   0.00000  Uiso   1.00
C241   C     0.46881   0.33896   0.65131   0.00000  Uiso   1.00
C242   C     0.48022   0.33097   0.56007   0.00000  Uiso   1.00
C243   C     0.47639   0.30069   0.41284   0.00000  Uiso   1.00
C244   C     0.61226   0.46161   0.70848   0.00000  Uiso   1.00
C245   C     0.55302   0.50318   0.75247   0.00000  Uiso   1.00
C246   C     0.55104   0.56800   0.74906   0.00000  Uiso   1.00
C247   C     0.49219   0.59739   0.79368   0.00000  Uiso   1.00
C248   C     0.64556   0.42177   0.78334   0.00000  Uiso   1.00
C249   C     0.72139   0.41814   0.80588   0.00000  Uiso   1.00
C250   C     0.74045   0.37900   0.87648   0.00000  Uiso   1.00
C251   C     0.56903   0.41667   0.64809   0.00000  Uiso   1.00
C252   C     0.58052   0.40873   0.55691   0.00000  Uiso   1.00
C253   C     0.53517   0.36528   0.51365   0.00000  Uiso   1.00
H254   H     0.46860   0.37188   0.82988   0.00000  Uiso   1.00
H255   H     0.39690   0.47170   0.87932   0.00000  Uiso   1.00
H256   H     0.56722   0.32187   0.93611   0.00000  Uiso   1.00
H257   H     0.42638   0.31246   0.68719   0.00000  Uiso   1.00
H258   H     0.34160   0.59748   0.91372   0.00000  Uiso   1.00
H259   H     0.70074   0.28153   0.03346   0.00000  Uiso   1.00
H260   H     0.40375   0.26169   0.50855   0.00000  Uiso   1.00
H261   H     0.65497   0.48828   0.67240   0.00000  Uiso   1.00
H262   H     0.59349   0.59449   0.71319   0.00000  Uiso   1.00
H263   H     0.76381   0.44465   0.77000   0.00000  Uiso   1.00
H264   H     0.62297   0.43525   0.52107   0.00000  Uiso   1.00
H265   H     0.50116   0.69714   0.77889   0.00000  Uiso   1.00
H266   H     0.86031   0.38118   0.89863   0.00000  Uiso   1.00
H267   H     0.56331   0.36135   0.37373   0.00000  Uiso   1.00
O268   O     0.37759   0.71509   0.87600   0.00000  Uiso   1.00
O269   O     0.84877   0.30055   0.03309   0.00000  Uiso   1.00
O270   O     0.45911   0.27453   0.34443   0.00000  Uiso   1.00
N271   N     0.38759   0.60636   0.87637   0.00000  Uiso   1.00
N272   N     0.72336   0.31097   0.98833   0.00000  Uiso   1.00
N273   N     0.44570   0.29241   0.49760   0.00000  Uiso   1.00
N274   N     0.47344   0.65999   0.80382   0.00000  Uiso   1.00
N275   N     0.80922   0.36459   0.91578   0.00000  Uiso   1.00
N276   N     0.53156   0.34604   0.42505   0.00000  Uiso   1.00
C277   C     0.51129   0.10145   0.70620   0.00000  Uiso   1.00
C278   C     0.49818   0.03107   0.70119   0.00000  Uiso   1.00
C279   C     0.43933   0.00177   0.65655   0.00000  Uiso   1.00
C280   C     0.43725   0.93692   0.65989   0.00000  Uiso   1.00
C281   C     0.40856   0.83285   0.64501   0.00000  Uiso   1.00
C282   C     0.59072   0.11248   0.67032   0.00000  Uiso   1.00
C283   C     0.60967   0.15163   0.59973   0.00000  Uiso   1.00
C284   C     0.68551   0.15531   0.57709   0.00000  Uiso   1.00
C285   C     0.80050   0.17766   0.51434   0.00000  Uiso   1.00
C286   C     0.51419   0.11758   0.80556   0.00000  Uiso   1.00
C287   C     0.46881   0.16104   0.84869   0.00000  Uiso   1.00
C288   C     0.48022   0.16903   0.93993   0.00000  Uiso   1.00
C289   C     0.47639   0.19931   0.08716   0.00000  Uiso   1.00
C290   C     0.61226   0.03839   0.79152   0.00000  Uiso   1.00
C291   C     0.55302   0.99682   0.74753   0.00000  Uiso   1.00
C292   C     0.55104   0.93200   0.75094   0.00000  Uiso   1.00
C293   C     0.49219   0.90261   0.70632   0.00000  Uiso   1.00
C294   C     0.64556   0.07823   0.71666   0.00000  Uiso   1.00
C295   C     0.72139   0.08186   0.69412   0.00000  Uiso   1.00
C296   C     0.74045   0.12100   0.62352   0.00000  Uiso   1.00
C297   C     0.56903   0.08333   0.85191   0.00000  Uiso   1.00
C298   C     0.58052   0.09127   0.94309   0.00000  Uiso   1.00
C299   C     0.53517   0.13472   0.98635   0.00000  Uiso   1.00
H300   H     0.46860   0.12812   0.67012   0.00000  Uiso   1.00
H301   H     0.39690   0.02830   0.62068   0.00000  Uiso   1.00
H302   H     0.56722   0.17813   0.56389   0.00000  Uiso   1.00
H303   H     0.42638   0.18754   0.81281   0.00000  Uiso   1.00
H304   H     0.34160   0.90252   0.58628   0.00000  Uiso   1.00
H305   H     0.70074   0.21847   0.46654   0.00000  Uiso   1.00
H306   H     0.40375   0.23831   0.99145   0.00000  Uiso   1.00
H307   H     0.65497   0.01172   0.82760   0.00000  Uiso   1.00
H308   H     0.59349   0.90551   0.78681   0.00000  Uiso   1.00
H309   H     0.76381   0.05535   0.73000   0.00000  Uiso   1.00
H310   H     0.62297   0.06475   0.97893   0.00000  Uiso   1.00
H311   H     0.50116   0.80286   0.72111   0.00000  Uiso   1.00
H312   H     0.86031   0.11882   0.60137   0.00000  Uiso   1.00
H313   H     0.56331   0.13865   0.12627   0.00000  Uiso   1.00
O314   O     0.37759   0.78491   0.62400   0.00000  Uiso   1.00
O315   O     0.84877   0.19945   0.46691   0.00000  Uiso   1.00
O316   O     0.45911   0.22547   0.15557   0.00000  Uiso   1.00
N317   N     0.38759   0.89364   0.62363   0.00000  Uiso   1.00
N318   N     0.72336   0.18903   0.51167   0.00000  Uiso   1.00
N319   N     0.44570   0.20759   0.00240   0.00000  Uiso   1.00
N320   N     0.47344   0.84001   0.69618   0.00000  Uiso   1.00
N321   N     0.80922   0.13541   0.58422   0.00000  Uiso   1.00
N322   N     0.53156   0.15396   0.07495   0.00000  Uiso   1.00
C323   C     0.98871   0.89855   0.70620   0.00000  Uiso   1.00
C324   C     0.00182   0.96893   0.70119   0.00000  Uiso   1.00
C325   C     0.06067   0.99823   0.65655   0.00000  Uiso   1.00
C326   C     0.06275   0.06308   0.65989   0.00000  Uiso   1.00
C327   C     0.09144   0.16715   0.64501   0.00000  Uiso   1.00
C328   C     0.90928   0.88752   0.67032   0.00000  Uiso   1.00
C329   C     0.89033   0.84837   0.59973   0.00000  Uiso   1.00
C330   C     0.81449   0.84469   0.57709   0.00000  Uiso   1.00
C331   C     0.69950   0.82234   0.51434   0.00000  Uiso   1.00
C332   C     0.98581   0.88242   0.80556   0.00000  Uiso   1.00
C333   C     0.03119   0.83896   0.84869   0.00000  Uiso   1.00
C334   C     0.01978   0.83097   0.93993   0.00000  Uiso   1.00
C335   C     0.02361   0.80069   0.08716   0.00000  Uiso   1.00
C336   C     0.88774   0.96161   0.79152   0.00000  Uiso   1.00
C337   C     0.94698   0.00318   0.74753   0.00000  Uiso   1.00
C338   C     0.94896   0.06800   0.75094   0.00000  Uiso   1.00
C339   C     0.00781   0.09739   0.70632   0.00000  Uiso   1.00
C340   C     0.85444   0.92177   0.71666   0.00000  Uiso   1.00
C341   C     0.77861   0.91814   0.69412   0.00000  Uiso   1.00
C342   C     0.75955   0.87900   0.62352   0.00000  Uiso   1.00
C343   C     0.93097   0.91667   0.85191   0.00000  Uiso   1.00
C344   C     0.91948   0.90873   0.94309   0.00000  Uiso   1.00
C345   C     0.96483   0.86528   0.98635   0.00000  Uiso   1.00
H346   H     0.03140   0.87188   0.67012   0.00000  Uiso   1.00
H347   H     0.10310   0.97170   0.62068   0.00000  Uiso   1.00
H348   H     0.93278   0.82187   0.56389   0.00000  Uiso   1.00
H349   H     0.07362   0.81246   0.81281   0.00000  Uiso   1.00
H350   H     0.15840   0.09748   0.58628   0.00000  Uiso   1.00
H351   H     0.79926   0.78153   0.46654   0.00000  Uiso   1.00
H352   H     0.09625   0.76169   0.99145   0.00000  Uiso   1.00
H353   H     0.84503   0.98828   0.82760   0.00000  Uiso   1.00
H354   H     0.90651   0.09449   0.78681   0.00000  Uiso   1.00
H355   H     0.73619   0.94465   0.73000   0.00000  Uiso   1.00
H356   H     0.87703   0.93525   0.97893   0.00000  Uiso   1.00
H357   H     0.99884   0.19714   0.72111   0.00000  Uiso   1.00
H358   H     0.63969   0.88118   0.60137   0.00000  Uiso   1.00
H359   H     0.93669   0.86135   0.12627   0.00000  Uiso   1.00
O360   O     0.12241   0.21509   0.62400   0.00000  Uiso   1.00
O361   O     0.65123   0.80055   0.46691   0.00000  Uiso   1.00
O362   O     0.04089   0.77453   0.15557   0.00000  Uiso   1.00
N363   N     0.11241   0.10636   0.62363   0.00000  Uiso   1.00
N364   N     0.77664   0.81097   0.51167   0.00000  Uiso   1.00
N365   N     0.05430   0.79241   0.00240   0.00000  Uiso   1.00
N366   N     0.02656   0.15999   0.69618   0.00000  Uiso   1.00
N367   N     0.69078   0.86459   0.58422   0.00000  Uiso   1.00
N368   N     0.96844   0.84604   0.07495   0.00000  Uiso   1.00
