data_job_04724
_audit_creation_date              2018-12-19
_audit_creation_method            'Materials Studio'
_symmetry_space_group_name_H-M    'P1'
_symmetry_Int_Tables_number       1
_symmetry_cell_setting            triclinic
loop_
_symmetry_equiv_pos_as_xyz
  x,y,z
_cell_length_a                    29.6148
_cell_length_b                    8.1376
_cell_length_c                    31.7725
_cell_angle_alpha                 90.0000
_cell_angle_beta                  136.6283
_cell_angle_gamma                 90.0000
loop_
_atom_site_label
_atom_site_type_symbol
_atom_site_fract_x
_atom_site_fract_y
_atom_site_fract_z
_atom_site_U_iso_or_equiv
_atom_site_adp_type
_atom_site_occupancy
C1     C     0.16833   0.71555   0.78736   0.00000  Uiso   1.00
C2     C     0.14770   0.68196   0.81872   0.00000  Uiso   1.00
C3     C     0.14541   0.52876   0.83629   0.00000  Uiso   1.00
C4     C     0.12521   0.52391   0.86433   0.00000  Uiso   1.00
C5     C     0.09577   0.44995   0.91146   0.00000  Uiso   1.00
C6     C     0.11093   0.80634   0.72815   0.00000  Uiso   1.00
C7     C     0.07773   0.75772   0.66958   0.00000  Uiso   1.00
C8     C     0.02658   0.85759   0.62137   0.00000  Uiso   1.00
C9     C     0.94010   0.97679   0.52789   0.00000  Uiso   1.00
C10    C     0.22456   0.83912   0.82791   0.00000  Uiso   1.00
C11    C     0.28690   0.81810   0.85321   0.00000  Uiso   1.00
C12    C     0.33142   0.94559   0.88899   0.00000  Uiso   1.00
C13    C     0.42136   0.11570   0.95041   0.00000  Uiso   1.00
C14    C     0.13654   0.97935   0.80589   0.00000  Uiso   1.00
C15    C     0.13043   0.82525   0.82878   0.00000  Uiso   1.00
C16    C     0.11023   0.82063   0.85680   0.00000  Uiso   1.00
C17    C     0.10791   0.66745   0.87442   0.00000  Uiso   1.00
C18    C     0.09366   0.94962   0.73821   0.00000  Uiso   1.00
C19    C     0.04256   0.04959   0.69008   0.00000  Uiso   1.00
C20    C     0.00929   0.00114   0.63145   0.00000  Uiso   1.00
C21    C     0.20730   0.98241   0.83798   0.00000  Uiso   1.00
C22    C     0.25173   0.10997   0.87372   0.00000  Uiso   1.00
C23    C     0.31412   0.08914   0.89907   0.00000  Uiso   1.00
H24    H     0.18177   0.60400   0.77952   0.00000  Uiso   1.00
H25    H     0.15877   0.41790   0.82849   0.00000  Uiso   1.00
H26    H     0.09111   0.64684   0.66180   0.00000  Uiso   1.00
H27    H     0.30024   0.70720   0.84541   0.00000  Uiso   1.00
H28    H     0.12562   0.27477   0.88720   0.00000  Uiso   1.00
H29    H     0.98298   0.75752   0.53573   0.00000  Uiso   1.00
H30    H     0.42398   0.88481   0.92290   0.00000  Uiso   1.00
H31    H     0.12310   0.09092   0.81373   0.00000  Uiso   1.00
H32    H     0.09687   0.93154   0.86458   0.00000  Uiso   1.00
H33    H     0.02921   0.16047   0.69789   0.00000  Uiso   1.00
H34    H     0.23835   0.22083   0.88150   0.00000  Uiso   1.00
H35    H     0.07539   0.69165   0.91650   0.00000  Uiso   1.00
H36    H     0.93274   0.17441   0.56502   0.00000  Uiso   1.00
H37    H     0.37374   0.30169   0.95219   0.00000  Uiso   1.00
O38    O     0.08429   0.36957   0.93467   0.00000  Uiso   1.00
O39    O     0.89716   0.00295   0.47355   0.00000  Uiso   1.00
O40    O     0.47574   0.16993   0.98151   0.00000  Uiso   1.00
N41    N     0.11741   0.39476   0.88713   0.00000  Uiso   1.00
N42    N     0.98404   0.84609   0.55852   0.00000  Uiso   1.00
N43    N     0.39634   0.96511   0.92048   0.00000  Uiso   1.00
N44    N     0.09038   0.61908   0.90289   0.00000  Uiso   1.00
N45    N     0.95701   0.07041   0.57429   0.00000  Uiso   1.00
N46    N     0.36930   0.18943   0.93624   0.00000  Uiso   1.00
C47    C     0.66833   0.21555   0.78736   0.00000  Uiso   1.00
C48    C     0.64770   0.18196   0.81872   0.00000  Uiso   1.00
C49    C     0.64541   0.02876   0.83629   0.00000  Uiso   1.00
C50    C     0.62521   0.02391   0.86433   0.00000  Uiso   1.00
C51    C     0.59577   0.94995   0.91146   0.00000  Uiso   1.00
C52    C     0.61093   0.30634   0.72815   0.00000  Uiso   1.00
C53    C     0.57773   0.25772   0.66958   0.00000  Uiso   1.00
C54    C     0.52658   0.35759   0.62137   0.00000  Uiso   1.00
C55    C     0.44010   0.47679   0.52789   0.00000  Uiso   1.00
C56    C     0.72456   0.33912   0.82791   0.00000  Uiso   1.00
C57    C     0.78690   0.31810   0.85321   0.00000  Uiso   1.00
C58    C     0.83142   0.44559   0.88899   0.00000  Uiso   1.00
C59    C     0.92136   0.61570   0.95041   0.00000  Uiso   1.00
C60    C     0.63654   0.47935   0.80589   0.00000  Uiso   1.00
C61    C     0.63043   0.32525   0.82878   0.00000  Uiso   1.00
C62    C     0.61023   0.32063   0.85680   0.00000  Uiso   1.00
C63    C     0.60791   0.16745   0.87442   0.00000  Uiso   1.00
C64    C     0.59366   0.44962   0.73821   0.00000  Uiso   1.00
C65    C     0.54256   0.54959   0.69008   0.00000  Uiso   1.00
C66    C     0.50929   0.50114   0.63145   0.00000  Uiso   1.00
C67    C     0.70730   0.48241   0.83798   0.00000  Uiso   1.00
C68    C     0.75173   0.60997   0.87372   0.00000  Uiso   1.00
C69    C     0.81412   0.58914   0.89907   0.00000  Uiso   1.00
H70    H     0.68177   0.10400   0.77952   0.00000  Uiso   1.00
H71    H     0.65877   0.91790   0.82849   0.00000  Uiso   1.00
H72    H     0.59111   0.14684   0.66180   0.00000  Uiso   1.00
H73    H     0.80024   0.20720   0.84541   0.00000  Uiso   1.00
H74    H     0.62562   0.77477   0.88720   0.00000  Uiso   1.00
H75    H     0.48298   0.25752   0.53573   0.00000  Uiso   1.00
H76    H     0.92398   0.38481   0.92290   0.00000  Uiso   1.00
H77    H     0.62310   0.59092   0.81373   0.00000  Uiso   1.00
H78    H     0.59687   0.43154   0.86458   0.00000  Uiso   1.00
H79    H     0.52921   0.66047   0.69789   0.00000  Uiso   1.00
H80    H     0.73835   0.72083   0.88150   0.00000  Uiso   1.00
H81    H     0.57539   0.19165   0.91650   0.00000  Uiso   1.00
H82    H     0.43274   0.67441   0.56502   0.00000  Uiso   1.00
H83    H     0.87374   0.80169   0.95219   0.00000  Uiso   1.00
O84    O     0.58429   0.86957   0.93467   0.00000  Uiso   1.00
O85    O     0.39716   0.50295   0.47355   0.00000  Uiso   1.00
O86    O     0.97574   0.66993   0.98151   0.00000  Uiso   1.00
N87    N     0.61741   0.89476   0.88713   0.00000  Uiso   1.00
N88    N     0.48404   0.34609   0.55852   0.00000  Uiso   1.00
N89    N     0.89634   0.46511   0.92048   0.00000  Uiso   1.00
N90    N     0.59038   0.11908   0.90289   0.00000  Uiso   1.00
N91    N     0.45701   0.57041   0.57429   0.00000  Uiso   1.00
N92    N     0.86930   0.68943   0.93624   0.00000  Uiso   1.00
C93    C     0.83167   0.71555   0.71264   0.00000  Uiso   1.00
C94    C     0.85230   0.68196   0.68128   0.00000  Uiso   1.00
C95    C     0.85459   0.52876   0.66371   0.00000  Uiso   1.00
C96    C     0.87479   0.52391   0.63567   0.00000  Uiso   1.00
C97    C     0.90423   0.44995   0.58854   0.00000  Uiso   1.00
C98    C     0.88907   0.80634   0.77185   0.00000  Uiso   1.00
C99    C     0.92227   0.75772   0.83042   0.00000  Uiso   1.00
C100   C     0.97342   0.85759   0.87863   0.00000  Uiso   1.00
C101   C     0.05990   0.97679   0.97211   0.00000  Uiso   1.00
C102   C     0.77544   0.83912   0.67209   0.00000  Uiso   1.00
C103   C     0.71310   0.81810   0.64679   0.00000  Uiso   1.00
C104   C     0.66858   0.94559   0.61101   0.00000  Uiso   1.00
C105   C     0.57864   0.11570   0.54959   0.00000  Uiso   1.00
C106   C     0.86346   0.97935   0.69411   0.00000  Uiso   1.00
C107   C     0.86957   0.82525   0.67122   0.00000  Uiso   1.00
C108   C     0.88977   0.82063   0.64320   0.00000  Uiso   1.00
C109   C     0.89209   0.66745   0.62558   0.00000  Uiso   1.00
C110   C     0.90634   0.94962   0.76179   0.00000  Uiso   1.00
C111   C     0.95744   0.04959   0.80992   0.00000  Uiso   1.00
C112   C     0.99071   0.00114   0.86855   0.00000  Uiso   1.00
C113   C     0.79270   0.98241   0.66202   0.00000  Uiso   1.00
C114   C     0.74827   0.10997   0.62628   0.00000  Uiso   1.00
C115   C     0.68588   0.08914   0.60093   0.00000  Uiso   1.00
H116   H     0.81823   0.60400   0.72048   0.00000  Uiso   1.00
H117   H     0.84123   0.41790   0.67151   0.00000  Uiso   1.00
H118   H     0.90889   0.64684   0.83820   0.00000  Uiso   1.00
H119   H     0.69976   0.70720   0.65459   0.00000  Uiso   1.00
H120   H     0.87438   0.27477   0.61280   0.00000  Uiso   1.00
H121   H     0.01702   0.75752   0.96427   0.00000  Uiso   1.00
H122   H     0.57602   0.88481   0.57710   0.00000  Uiso   1.00
H123   H     0.87690   0.09092   0.68627   0.00000  Uiso   1.00
H124   H     0.90313   0.93154   0.63542   0.00000  Uiso   1.00
H125   H     0.97079   0.16047   0.80211   0.00000  Uiso   1.00
H126   H     0.76165   0.22083   0.61850   0.00000  Uiso   1.00
H127   H     0.92461   0.69165   0.58350   0.00000  Uiso   1.00
H128   H     0.06726   0.17441   0.93498   0.00000  Uiso   1.00
H129   H     0.62626   0.30169   0.54781   0.00000  Uiso   1.00
O130   O     0.91571   0.36957   0.56533   0.00000  Uiso   1.00
O131   O     0.10284   0.00295   0.02645   0.00000  Uiso   1.00
O132   O     0.52426   0.16993   0.51849   0.00000  Uiso   1.00
N133   N     0.88259   0.39476   0.61287   0.00000  Uiso   1.00
N134   N     0.01596   0.84609   0.94148   0.00000  Uiso   1.00
N135   N     0.60366   0.96511   0.57952   0.00000  Uiso   1.00
N136   N     0.90962   0.61908   0.59711   0.00000  Uiso   1.00
N137   N     0.04299   0.07041   0.92571   0.00000  Uiso   1.00
N138   N     0.63070   0.18943   0.56376   0.00000  Uiso   1.00
C139   C     0.33167   0.21555   0.71264   0.00000  Uiso   1.00
C140   C     0.35230   0.18196   0.68128   0.00000  Uiso   1.00
C141   C     0.35459   0.02876   0.66371   0.00000  Uiso   1.00
C142   C     0.37479   0.02391   0.63567   0.00000  Uiso   1.00
C143   C     0.40423   0.94995   0.58854   0.00000  Uiso   1.00
C144   C     0.38907   0.30634   0.77185   0.00000  Uiso   1.00
C145   C     0.42227   0.25772   0.83042   0.00000  Uiso   1.00
C146   C     0.47342   0.35759   0.87863   0.00000  Uiso   1.00
C147   C     0.55990   0.47679   0.97211   0.00000  Uiso   1.00
C148   C     0.27544   0.33912   0.67209   0.00000  Uiso   1.00
C149   C     0.21310   0.31810   0.64679   0.00000  Uiso   1.00
C150   C     0.16858   0.44559   0.61101   0.00000  Uiso   1.00
C151   C     0.07864   0.61570   0.54959   0.00000  Uiso   1.00
C152   C     0.36346   0.47935   0.69411   0.00000  Uiso   1.00
C153   C     0.36957   0.32525   0.67122   0.00000  Uiso   1.00
C154   C     0.38977   0.32063   0.64320   0.00000  Uiso   1.00
C155   C     0.39209   0.16745   0.62558   0.00000  Uiso   1.00
C156   C     0.40634   0.44962   0.76179   0.00000  Uiso   1.00
C157   C     0.45744   0.54959   0.80992   0.00000  Uiso   1.00
C158   C     0.49071   0.50114   0.86855   0.00000  Uiso   1.00
C159   C     0.29270   0.48241   0.66202   0.00000  Uiso   1.00
C160   C     0.24827   0.60997   0.62628   0.00000  Uiso   1.00
C161   C     0.18588   0.58914   0.60093   0.00000  Uiso   1.00
H162   H     0.31823   0.10400   0.72048   0.00000  Uiso   1.00
H163   H     0.34123   0.91790   0.67151   0.00000  Uiso   1.00
H164   H     0.40889   0.14684   0.83820   0.00000  Uiso   1.00
H165   H     0.19976   0.20720   0.65459   0.00000  Uiso   1.00
H166   H     0.37438   0.77477   0.61280   0.00000  Uiso   1.00
H167   H     0.51702   0.25752   0.96427   0.00000  Uiso   1.00
H168   H     0.07602   0.38481   0.57710   0.00000  Uiso   1.00
H169   H     0.37690   0.59092   0.68627   0.00000  Uiso   1.00
H170   H     0.40313   0.43154   0.63542   0.00000  Uiso   1.00
H171   H     0.47079   0.66047   0.80211   0.00000  Uiso   1.00
H172   H     0.26165   0.72083   0.61850   0.00000  Uiso   1.00
H173   H     0.42461   0.19165   0.58350   0.00000  Uiso   1.00
H174   H     0.56726   0.67441   0.93498   0.00000  Uiso   1.00
H175   H     0.12626   0.80169   0.54781   0.00000  Uiso   1.00
O176   O     0.41571   0.86957   0.56533   0.00000  Uiso   1.00
O177   O     0.60284   0.50295   0.02645   0.00000  Uiso   1.00
O178   O     0.02426   0.66993   0.51849   0.00000  Uiso   1.00
N179   N     0.38259   0.89476   0.61287   0.00000  Uiso   1.00
N180   N     0.51596   0.34609   0.94148   0.00000  Uiso   1.00
N181   N     0.10366   0.46511   0.57952   0.00000  Uiso   1.00
N182   N     0.40962   0.11908   0.59711   0.00000  Uiso   1.00
N183   N     0.54299   0.57041   0.92571   0.00000  Uiso   1.00
N184   N     0.13070   0.68943   0.56376   0.00000  Uiso   1.00
C185   C     0.83167   0.28445   0.21264   0.00000  Uiso   1.00
C186   C     0.85230   0.31804   0.18128   0.00000  Uiso   1.00
C187   C     0.85459   0.47124   0.16371   0.00000  Uiso   1.00
C188   C     0.87479   0.47609   0.13567   0.00000  Uiso   1.00
C189   C     0.90423   0.55005   0.08854   0.00000  Uiso   1.00
C190   C     0.88907   0.19366   0.27185   0.00000  Uiso   1.00
C191   C     0.92227   0.24228   0.33042   0.00000  Uiso   1.00
C192   C     0.97342   0.14241   0.37863   0.00000  Uiso   1.00
C193   C     0.05990   0.02321   0.47211   0.00000  Uiso   1.00
C194   C     0.77544   0.16088   0.17209   0.00000  Uiso   1.00
C195   C     0.71310   0.18190   0.14679   0.00000  Uiso   1.00
C196   C     0.66858   0.05441   0.11101   0.00000  Uiso   1.00
C197   C     0.57864   0.88430   0.04959   0.00000  Uiso   1.00
C198   C     0.86346   0.02065   0.19411   0.00000  Uiso   1.00
C199   C     0.86957   0.17475   0.17122   0.00000  Uiso   1.00
C200   C     0.88977   0.17937   0.14320   0.00000  Uiso   1.00
C201   C     0.89209   0.33255   0.12558   0.00000  Uiso   1.00
C202   C     0.90634   0.05038   0.26179   0.00000  Uiso   1.00
C203   C     0.95744   0.95041   0.30992   0.00000  Uiso   1.00
C204   C     0.99071   0.99886   0.36855   0.00000  Uiso   1.00
C205   C     0.79270   0.01759   0.16202   0.00000  Uiso   1.00
C206   C     0.74827   0.89003   0.12628   0.00000  Uiso   1.00
C207   C     0.68588   0.91086   0.10093   0.00000  Uiso   1.00
H208   H     0.81823   0.39600   0.22048   0.00000  Uiso   1.00
H209   H     0.84123   0.58210   0.17151   0.00000  Uiso   1.00
H210   H     0.90889   0.35316   0.33820   0.00000  Uiso   1.00
H211   H     0.69976   0.29280   0.15459   0.00000  Uiso   1.00
H212   H     0.87438   0.72523   0.11280   0.00000  Uiso   1.00
H213   H     0.01702   0.24248   0.46427   0.00000  Uiso   1.00
H214   H     0.57602   0.11519   0.07710   0.00000  Uiso   1.00
H215   H     0.87690   0.90908   0.18627   0.00000  Uiso   1.00
H216   H     0.90313   0.06846   0.13542   0.00000  Uiso   1.00
H217   H     0.97079   0.83953   0.30211   0.00000  Uiso   1.00
H218   H     0.76165   0.77917   0.11850   0.00000  Uiso   1.00
H219   H     0.92461   0.30835   0.08350   0.00000  Uiso   1.00
H220   H     0.06726   0.82559   0.43498   0.00000  Uiso   1.00
H221   H     0.62626   0.69831   0.04781   0.00000  Uiso   1.00
O222   O     0.91571   0.63043   0.06533   0.00000  Uiso   1.00
O223   O     0.10284   0.99705   0.52645   0.00000  Uiso   1.00
O224   O     0.52426   0.83007   0.01849   0.00000  Uiso   1.00
N225   N     0.88259   0.60524   0.11287   0.00000  Uiso   1.00
N226   N     0.01596   0.15391   0.44148   0.00000  Uiso   1.00
N227   N     0.60366   0.03489   0.07952   0.00000  Uiso   1.00
N228   N     0.90962   0.38092   0.09711   0.00000  Uiso   1.00
N229   N     0.04299   0.92959   0.42571   0.00000  Uiso   1.00
N230   N     0.63070   0.81057   0.06376   0.00000  Uiso   1.00
C231   C     0.33167   0.78445   0.21264   0.00000  Uiso   1.00
C232   C     0.35230   0.81804   0.18128   0.00000  Uiso   1.00
C233   C     0.35459   0.97124   0.16371   0.00000  Uiso   1.00
C234   C     0.37479   0.97609   0.13567   0.00000  Uiso   1.00
C235   C     0.40423   0.05005   0.08854   0.00000  Uiso   1.00
C236   C     0.38907   0.69366   0.27185   0.00000  Uiso   1.00
C237   C     0.42227   0.74228   0.33042   0.00000  Uiso   1.00
C238   C     0.47342   0.64241   0.37863   0.00000  Uiso   1.00
C239   C     0.55990   0.52321   0.47211   0.00000  Uiso   1.00
C240   C     0.27544   0.66088   0.17209   0.00000  Uiso   1.00
C241   C     0.21310   0.68190   0.14679   0.00000  Uiso   1.00
C242   C     0.16858   0.55441   0.11101   0.00000  Uiso   1.00
C243   C     0.07864   0.38430   0.04959   0.00000  Uiso   1.00
C244   C     0.36346   0.52065   0.19411   0.00000  Uiso   1.00
C245   C     0.36957   0.67475   0.17122   0.00000  Uiso   1.00
C246   C     0.38977   0.67937   0.14320   0.00000  Uiso   1.00
C247   C     0.39209   0.83255   0.12558   0.00000  Uiso   1.00
C248   C     0.40634   0.55038   0.26179   0.00000  Uiso   1.00
C249   C     0.45744   0.45041   0.30992   0.00000  Uiso   1.00
C250   C     0.49071   0.49886   0.36855   0.00000  Uiso   1.00
C251   C     0.29270   0.51759   0.16202   0.00000  Uiso   1.00
C252   C     0.24827   0.39003   0.12628   0.00000  Uiso   1.00
C253   C     0.18588   0.41086   0.10093   0.00000  Uiso   1.00
H254   H     0.31823   0.89600   0.22048   0.00000  Uiso   1.00
H255   H     0.34123   0.08210   0.17151   0.00000  Uiso   1.00
H256   H     0.40889   0.85316   0.33820   0.00000  Uiso   1.00
H257   H     0.19976   0.79280   0.15459   0.00000  Uiso   1.00
H258   H     0.37438   0.22523   0.11280   0.00000  Uiso   1.00
H259   H     0.51702   0.74248   0.46427   0.00000  Uiso   1.00
H260   H     0.07602   0.61519   0.07710   0.00000  Uiso   1.00
H261   H     0.37690   0.40908   0.18627   0.00000  Uiso   1.00
H262   H     0.40313   0.56846   0.13542   0.00000  Uiso   1.00
H263   H     0.47079   0.33953   0.30211   0.00000  Uiso   1.00
H264   H     0.26165   0.27917   0.11850   0.00000  Uiso   1.00
H265   H     0.42461   0.80835   0.08350   0.00000  Uiso   1.00
H266   H     0.56726   0.32559   0.43498   0.00000  Uiso   1.00
H267   H     0.12626   0.19831   0.04781   0.00000  Uiso   1.00
O268   O     0.41571   0.13043   0.06533   0.00000  Uiso   1.00
O269   O     0.60284   0.49705   0.52645   0.00000  Uiso   1.00
O270   O     0.02426   0.33007   0.01849   0.00000  Uiso   1.00
N271   N     0.38259   0.10524   0.11287   0.00000  Uiso   1.00
N272   N     0.51596   0.65391   0.44148   0.00000  Uiso   1.00
N273   N     0.10366   0.53489   0.07952   0.00000  Uiso   1.00
N274   N     0.40962   0.88092   0.09711   0.00000  Uiso   1.00
N275   N     0.54299   0.42959   0.42571   0.00000  Uiso   1.00
N276   N     0.13070   0.31057   0.06376   0.00000  Uiso   1.00
C277   C     0.16833   0.28445   0.28736   0.00000  Uiso   1.00
C278   C     0.14770   0.31804   0.31872   0.00000  Uiso   1.00
C279   C     0.14541   0.47124   0.33629   0.00000  Uiso   1.00
C280   C     0.12521   0.47609   0.36433   0.00000  Uiso   1.00
C281   C     0.09577   0.55005   0.41146   0.00000  Uiso   1.00
C282   C     0.11093   0.19366   0.22815   0.00000  Uiso   1.00
C283   C     0.07773   0.24228   0.16958   0.00000  Uiso   1.00
C284   C     0.02658   0.14241   0.12137   0.00000  Uiso   1.00
C285   C     0.94010   0.02321   0.02789   0.00000  Uiso   1.00
C286   C     0.22456   0.16088   0.32791   0.00000  Uiso   1.00
C287   C     0.28690   0.18190   0.35321   0.00000  Uiso   1.00
C288   C     0.33142   0.05441   0.38899   0.00000  Uiso   1.00
C289   C     0.42136   0.88430   0.45041   0.00000  Uiso   1.00
C290   C     0.13654   0.02065   0.30589   0.00000  Uiso   1.00
C291   C     0.13043   0.17475   0.32878   0.00000  Uiso   1.00
C292   C     0.11023   0.17937   0.35680   0.00000  Uiso   1.00
C293   C     0.10791   0.33255   0.37442   0.00000  Uiso   1.00
C294   C     0.09366   0.05038   0.23821   0.00000  Uiso   1.00
C295   C     0.04256   0.95041   0.19008   0.00000  Uiso   1.00
C296   C     0.00929   0.99886   0.13145   0.00000  Uiso   1.00
C297   C     0.20730   0.01759   0.33798   0.00000  Uiso   1.00
C298   C     0.25173   0.89003   0.37372   0.00000  Uiso   1.00
C299   C     0.31412   0.91086   0.39907   0.00000  Uiso   1.00
H300   H     0.18177   0.39600   0.27952   0.00000  Uiso   1.00
H301   H     0.15877   0.58210   0.32849   0.00000  Uiso   1.00
H302   H     0.09111   0.35316   0.16180   0.00000  Uiso   1.00
H303   H     0.30024   0.29280   0.34541   0.00000  Uiso   1.00
H304   H     0.12562   0.72523   0.38720   0.00000  Uiso   1.00
H305   H     0.98298   0.24248   0.03573   0.00000  Uiso   1.00
H306   H     0.42398   0.11519   0.42290   0.00000  Uiso   1.00
H307   H     0.12310   0.90908   0.31373   0.00000  Uiso   1.00
H308   H     0.09687   0.06846   0.36458   0.00000  Uiso   1.00
H309   H     0.02921   0.83953   0.19789   0.00000  Uiso   1.00
H310   H     0.23835   0.77917   0.38150   0.00000  Uiso   1.00
H311   H     0.07539   0.30835   0.41650   0.00000  Uiso   1.00
H312   H     0.93274   0.82559   0.06502   0.00000  Uiso   1.00
H313   H     0.37374   0.69831   0.45219   0.00000  Uiso   1.00
O314   O     0.08429   0.63043   0.43467   0.00000  Uiso   1.00
O315   O     0.89716   0.99705   0.97355   0.00000  Uiso   1.00
O316   O     0.47574   0.83007   0.48151   0.00000  Uiso   1.00
N317   N     0.11741   0.60524   0.38713   0.00000  Uiso   1.00
N318   N     0.98404   0.15391   0.05852   0.00000  Uiso   1.00
N319   N     0.39634   0.03489   0.42048   0.00000  Uiso   1.00
N320   N     0.09038   0.38092   0.40289   0.00000  Uiso   1.00
N321   N     0.95701   0.92959   0.07429   0.00000  Uiso   1.00
N322   N     0.36930   0.81057   0.43624   0.00000  Uiso   1.00
C323   C     0.66833   0.78445   0.28736   0.00000  Uiso   1.00
C324   C     0.64770   0.81804   0.31872   0.00000  Uiso   1.00
C325   C     0.64541   0.97124   0.33629   0.00000  Uiso   1.00
C326   C     0.62521   0.97609   0.36433   0.00000  Uiso   1.00
C327   C     0.59577   0.05005   0.41146   0.00000  Uiso   1.00
C328   C     0.61093   0.69366   0.22815   0.00000  Uiso   1.00
C329   C     0.57773   0.74228   0.16958   0.00000  Uiso   1.00
C330   C     0.52658   0.64241   0.12137   0.00000  Uiso   1.00
C331   C     0.44010   0.52321   0.02789   0.00000  Uiso   1.00
C332   C     0.72456   0.66088   0.32791   0.00000  Uiso   1.00
C333   C     0.78690   0.68190   0.35321   0.00000  Uiso   1.00
C334   C     0.83142   0.55441   0.38899   0.00000  Uiso   1.00
C335   C     0.92136   0.38430   0.45041   0.00000  Uiso   1.00
C336   C     0.63654   0.52065   0.30589   0.00000  Uiso   1.00
C337   C     0.63043   0.67475   0.32878   0.00000  Uiso   1.00
C338   C     0.61023   0.67937   0.35680   0.00000  Uiso   1.00
C339   C     0.60791   0.83255   0.37442   0.00000  Uiso   1.00
C340   C     0.59366   0.55038   0.23821   0.00000  Uiso   1.00
C341   C     0.54256   0.45041   0.19008   0.00000  Uiso   1.00
C342   C     0.50929   0.49886   0.13145   0.00000  Uiso   1.00
C343   C     0.70730   0.51759   0.33798   0.00000  Uiso   1.00
C344   C     0.75173   0.39003   0.37372   0.00000  Uiso   1.00
C345   C     0.81412   0.41086   0.39907   0.00000  Uiso   1.00
H346   H     0.68177   0.89600   0.27952   0.00000  Uiso   1.00
H347   H     0.65877   0.08210   0.32849   0.00000  Uiso   1.00
H348   H     0.59111   0.85316   0.16180   0.00000  Uiso   1.00
H349   H     0.80024   0.79280   0.34541   0.00000  Uiso   1.00
H350   H     0.62562   0.22523   0.38720   0.00000  Uiso   1.00
H351   H     0.48298   0.74248   0.03573   0.00000  Uiso   1.00
H352   H     0.92398   0.61519   0.42290   0.00000  Uiso   1.00
H353   H     0.62310   0.40908   0.31373   0.00000  Uiso   1.00
H354   H     0.59687   0.56846   0.36458   0.00000  Uiso   1.00
H355   H     0.52921   0.33953   0.19789   0.00000  Uiso   1.00
H356   H     0.73835   0.27917   0.38150   0.00000  Uiso   1.00
H357   H     0.57539   0.80835   0.41650   0.00000  Uiso   1.00
H358   H     0.43274   0.32559   0.06502   0.00000  Uiso   1.00
H359   H     0.87374   0.19831   0.45219   0.00000  Uiso   1.00
O360   O     0.58429   0.13043   0.43467   0.00000  Uiso   1.00
O361   O     0.39716   0.49705   0.97355   0.00000  Uiso   1.00
O362   O     0.97574   0.33007   0.48151   0.00000  Uiso   1.00
N363   N     0.61741   0.10524   0.38713   0.00000  Uiso   1.00
N364   N     0.48404   0.65391   0.05852   0.00000  Uiso   1.00
N365   N     0.89634   0.53489   0.42048   0.00000  Uiso   1.00
N366   N     0.59038   0.88092   0.40289   0.00000  Uiso   1.00
N367   N     0.45701   0.42959   0.07429   0.00000  Uiso   1.00
N368   N     0.86930   0.31057   0.43624   0.00000  Uiso   1.00
