data_job_02794
_audit_creation_date              2018-12-19
_audit_creation_method            'Materials Studio'
_symmetry_space_group_name_H-M    'P1'
_symmetry_Int_Tables_number       1
_symmetry_cell_setting            triclinic
loop_
_symmetry_equiv_pos_as_xyz
  x,y,z
_cell_length_a                    19.4021
_cell_length_b                    15.5430
_cell_length_c                    9.7567
_cell_angle_alpha                 90.0000
_cell_angle_beta                  93.1819
_cell_angle_gamma                 90.0000
loop_
_atom_site_label
_atom_site_type_symbol
_atom_site_fract_x
_atom_site_fract_y
_atom_site_fract_z
_atom_site_U_iso_or_equiv
_atom_site_adp_type
_atom_site_occupancy
C1     C     0.25297   0.25227   0.41266   0.00000  Uiso   1.00
C2     C     0.22780   0.32667   0.49869   0.00000  Uiso   1.00
C3     C     0.15933   0.34717   0.51725   0.00000  Uiso   1.00
C4     C     0.14701   0.41769   0.59973   0.00000  Uiso   1.00
C5     C     0.09969   0.52590   0.72387   0.00000  Uiso   1.00
C6     C     0.29909   0.29226   0.30828   0.00000  Uiso   1.00
C7     C     0.29055   0.28383   0.16674   0.00000  Uiso   1.00
C8     C     0.33825   0.32538   0.08894   0.00000  Uiso   1.00
C9     C     0.40162   0.38012   0.91746   0.00000  Uiso   1.00
C10    C     0.30047   0.19873   0.50878   0.00000  Uiso   1.00
C11    C     0.29311   0.11165   0.53581   0.00000  Uiso   1.00
C12    C     0.34198   0.07446   0.62679   0.00000  Uiso   1.00
C13    C     0.40749   0.98398   0.76664   0.00000  Uiso   1.00
C14    C     0.35285   0.34105   0.52615   0.00000  Uiso   1.00
C15    C     0.28206   0.37489   0.56032   0.00000  Uiso   1.00
C16    C     0.26984   0.44540   0.64280   0.00000  Uiso   1.00
C17    C     0.20136   0.46600   0.66148   0.00000  Uiso   1.00
C18    C     0.35334   0.34048   0.36991   0.00000  Uiso   1.00
C19    C     0.40106   0.38205   0.29230   0.00000  Uiso   1.00
C20    C     0.39260   0.37369   0.15068   0.00000  Uiso   1.00
C21    C     0.35472   0.24696   0.57042   0.00000  Uiso   1.00
C22    C     0.40361   0.20989   0.66137   0.00000  Uiso   1.00
C23    C     0.39633   0.12277   0.68854   0.00000  Uiso   1.00
H24    H     0.21073   0.21473   0.36467   0.00000  Uiso   1.00
H25    H     0.11736   0.30984   0.46952   0.00000  Uiso   1.00
H26    H     0.24857   0.24650   0.11907   0.00000  Uiso   1.00
H27    H     0.25112   0.07436   0.48809   0.00000  Uiso   1.00
H28    H     0.03777   0.43657   0.61291   0.00000  Uiso   1.00
H29    H     0.31443   0.30299   0.87397   0.00000  Uiso   1.00
H30    H     0.31982   0.93999   0.65212   0.00000  Uiso   1.00
H31    H     0.39509   0.37860   0.57413   0.00000  Uiso   1.00
H32    H     0.31184   0.48271   0.69049   0.00000  Uiso   1.00
H33    H     0.44304   0.41936   0.34003   0.00000  Uiso   1.00
H34    H     0.44559   0.24722   0.70905   0.00000  Uiso   1.00
H35    H     0.19561   0.57688   0.79225   0.00000  Uiso   1.00
H36    H     0.47228   0.44329   0.05331   0.00000  Uiso   1.00
H37    H     0.47766   0.08030   0.83146   0.00000  Uiso   1.00
O38    O     0.05859   0.57227   0.77530   0.00000  Uiso   1.00
O39    O     0.42157   0.39700   0.80585   0.00000  Uiso   1.00
O40    O     0.42863   0.92076   0.82676   0.00000  Uiso   1.00
N41    N     0.08634   0.45530   0.63917   0.00000  Uiso   1.00
N42    N     0.34500   0.33041   0.94831   0.00000  Uiso   1.00
N43    N     0.35004   0.99104   0.67578   0.00000  Uiso   1.00
N44    N     0.17127   0.53080   0.73567   0.00000  Uiso   1.00
N45    N     0.42993   0.40591   0.04481   0.00000  Uiso   1.00
N46    N     0.43498   0.06654   0.77228   0.00000  Uiso   1.00
C47    C     0.75158   0.75043   0.52055   0.00000  Uiso   1.00
C48    C     0.77774   0.67757   0.61432   0.00000  Uiso   1.00
C49    C     0.84649   0.65812   0.64721   0.00000  Uiso   1.00
C50    C     0.85974   0.58893   0.73474   0.00000  Uiso   1.00
C51    C     0.90851   0.48307   0.87227   0.00000  Uiso   1.00
C52    C     0.70512   0.70843   0.40846   0.00000  Uiso   1.00
C53    C     0.71280   0.71495   0.26827   0.00000  Uiso   1.00
C54    C     0.66491   0.67175   0.18251   0.00000  Uiso   1.00
C55    C     0.60091   0.61385   0.00044   0.00000  Uiso   1.00
C56    C     0.70425   0.80477   0.60532   0.00000  Uiso   1.00
C57    C     0.71119   0.89230   0.63062   0.00000  Uiso   1.00
C58    C     0.66256   0.93021   0.71059   0.00000  Uiso   1.00
C59    C     0.59721   0.02190   0.83417   0.00000  Uiso   1.00
C60    C     0.65288   0.66213   0.61754   0.00000  Uiso   1.00
C61    C     0.72412   0.62961   0.66699   0.00000  Uiso   1.00
C62    C     0.73728   0.56044   0.75451   0.00000  Uiso   1.00
C63    C     0.80603   0.54089   0.78752   0.00000  Uiso   1.00
C64    C     0.65150   0.66047   0.46114   0.00000  Uiso   1.00
C65    C     0.60359   0.61726   0.37557   0.00000  Uiso   1.00
C66    C     0.61120   0.62371   0.23528   0.00000  Uiso   1.00
C67    C     0.65064   0.75681   0.65801   0.00000  Uiso   1.00
C68    C     0.60198   0.79460   0.73793   0.00000  Uiso   1.00
C69    C     0.60885   0.88217   0.76335   0.00000  Uiso   1.00
H70    H     0.79332   0.78776   0.47953   0.00000  Uiso   1.00
H71    H     0.88797   0.69525   0.60641   0.00000  Uiso   1.00
H72    H     0.75429   0.75207   0.22753   0.00000  Uiso   1.00
H73    H     0.75269   0.92938   0.58984   0.00000  Uiso   1.00
H74    H     0.96925   0.57151   0.77026   0.00000  Uiso   1.00
H75    H     0.68738   0.69135   0.97138   0.00000  Uiso   1.00
H76    H     0.68399   0.06525   0.73537   0.00000  Uiso   1.00
H77    H     0.61113   0.62480   0.65855   0.00000  Uiso   1.00
H78    H     0.69578   0.52334   0.79526   0.00000  Uiso   1.00
H79    H     0.56211   0.58016   0.41637   0.00000  Uiso   1.00
H80    H     0.56050   0.75747   0.77868   0.00000  Uiso   1.00
H81    H     0.81326   0.43197   0.92354   0.00000  Uiso   1.00
H82    H     0.53139   0.55182   0.12465   0.00000  Uiso   1.00
H83    H     0.52801   0.92572   0.88864   0.00000  Uiso   1.00
O84    O     0.95023   0.43792   0.93356   0.00000  Uiso   1.00
O85    O     0.58042   0.59516   0.88546   0.00000  Uiso   1.00
O86    O     0.57598   0.08571   0.88780   0.00000  Uiso   1.00
N87    N     0.92092   0.55260   0.78760   0.00000  Uiso   1.00
N88    N     0.65740   0.66464   0.04069   0.00000  Uiso   1.00
N89    N     0.65422   0.01421   0.75492   0.00000  Uiso   1.00
N90    N     0.83699   0.47752   0.87007   0.00000  Uiso   1.00
N91    N     0.57346   0.58956   0.12317   0.00000  Uiso   1.00
N92    N     0.57028   0.93913   0.83740   0.00000  Uiso   1.00
C93    C     0.25297   0.74773   0.91266   0.00000  Uiso   1.00
C94    C     0.22780   0.67333   0.99869   0.00000  Uiso   1.00
C95    C     0.15933   0.65283   0.01725   0.00000  Uiso   1.00
C96    C     0.14701   0.58231   0.09973   0.00000  Uiso   1.00
C97    C     0.09969   0.47410   0.22387   0.00000  Uiso   1.00
C98    C     0.29909   0.70774   0.80828   0.00000  Uiso   1.00
C99    C     0.29055   0.71617   0.66674   0.00000  Uiso   1.00
C100   C     0.33825   0.67462   0.58894   0.00000  Uiso   1.00
C101   C     0.40162   0.61988   0.41746   0.00000  Uiso   1.00
C102   C     0.30047   0.80127   0.00878   0.00000  Uiso   1.00
C103   C     0.29311   0.88835   0.03581   0.00000  Uiso   1.00
C104   C     0.34198   0.92554   0.12679   0.00000  Uiso   1.00
C105   C     0.40749   0.01602   0.26664   0.00000  Uiso   1.00
C106   C     0.35285   0.65895   0.02615   0.00000  Uiso   1.00
C107   C     0.28206   0.62511   0.06032   0.00000  Uiso   1.00
C108   C     0.26984   0.55460   0.14280   0.00000  Uiso   1.00
C109   C     0.20136   0.53400   0.16148   0.00000  Uiso   1.00
C110   C     0.35334   0.65952   0.86991   0.00000  Uiso   1.00
C111   C     0.40106   0.61795   0.79230   0.00000  Uiso   1.00
C112   C     0.39260   0.62631   0.65068   0.00000  Uiso   1.00
C113   C     0.35472   0.75304   0.07042   0.00000  Uiso   1.00
C114   C     0.40361   0.79011   0.16137   0.00000  Uiso   1.00
C115   C     0.39633   0.87723   0.18854   0.00000  Uiso   1.00
H116   H     0.21073   0.78527   0.86467   0.00000  Uiso   1.00
H117   H     0.11736   0.69016   0.96952   0.00000  Uiso   1.00
H118   H     0.24857   0.75350   0.61907   0.00000  Uiso   1.00
H119   H     0.25112   0.92564   0.98809   0.00000  Uiso   1.00
H120   H     0.03777   0.56343   0.11291   0.00000  Uiso   1.00
H121   H     0.31443   0.69701   0.37397   0.00000  Uiso   1.00
H122   H     0.31982   0.06001   0.15212   0.00000  Uiso   1.00
H123   H     0.39509   0.62140   0.07413   0.00000  Uiso   1.00
H124   H     0.31184   0.51729   0.19049   0.00000  Uiso   1.00
H125   H     0.44304   0.58064   0.84003   0.00000  Uiso   1.00
H126   H     0.44559   0.75278   0.20905   0.00000  Uiso   1.00
H127   H     0.19561   0.42312   0.29225   0.00000  Uiso   1.00
H128   H     0.47228   0.55671   0.55331   0.00000  Uiso   1.00
H129   H     0.47766   0.91970   0.33146   0.00000  Uiso   1.00
O130   O     0.05859   0.42773   0.27530   0.00000  Uiso   1.00
O131   O     0.42157   0.60300   0.30585   0.00000  Uiso   1.00
O132   O     0.42863   0.07924   0.32676   0.00000  Uiso   1.00
N133   N     0.08634   0.54470   0.13917   0.00000  Uiso   1.00
N134   N     0.34500   0.66959   0.44831   0.00000  Uiso   1.00
N135   N     0.35004   0.00896   0.17578   0.00000  Uiso   1.00
N136   N     0.17127   0.46920   0.23567   0.00000  Uiso   1.00
N137   N     0.42993   0.59409   0.54481   0.00000  Uiso   1.00
N138   N     0.43498   0.93346   0.27228   0.00000  Uiso   1.00
C139   C     0.75158   0.24957   0.02055   0.00000  Uiso   1.00
C140   C     0.77774   0.32243   0.11432   0.00000  Uiso   1.00
C141   C     0.84649   0.34188   0.14721   0.00000  Uiso   1.00
C142   C     0.85974   0.41107   0.23474   0.00000  Uiso   1.00
C143   C     0.90851   0.51693   0.37227   0.00000  Uiso   1.00
C144   C     0.70512   0.29157   0.90846   0.00000  Uiso   1.00
C145   C     0.71280   0.28505   0.76827   0.00000  Uiso   1.00
C146   C     0.66491   0.32825   0.68251   0.00000  Uiso   1.00
C147   C     0.60091   0.38615   0.50044   0.00000  Uiso   1.00
C148   C     0.70425   0.19523   0.10532   0.00000  Uiso   1.00
C149   C     0.71119   0.10770   0.13062   0.00000  Uiso   1.00
C150   C     0.66256   0.06979   0.21059   0.00000  Uiso   1.00
C151   C     0.59721   0.97810   0.33417   0.00000  Uiso   1.00
C152   C     0.65288   0.33787   0.11754   0.00000  Uiso   1.00
C153   C     0.72412   0.37039   0.16699   0.00000  Uiso   1.00
C154   C     0.73728   0.43956   0.25451   0.00000  Uiso   1.00
C155   C     0.80603   0.45911   0.28752   0.00000  Uiso   1.00
C156   C     0.65150   0.33953   0.96114   0.00000  Uiso   1.00
C157   C     0.60359   0.38274   0.87557   0.00000  Uiso   1.00
C158   C     0.61120   0.37629   0.73528   0.00000  Uiso   1.00
C159   C     0.65064   0.24319   0.15801   0.00000  Uiso   1.00
C160   C     0.60198   0.20540   0.23793   0.00000  Uiso   1.00
C161   C     0.60885   0.11783   0.26335   0.00000  Uiso   1.00
H162   H     0.79332   0.21224   0.97953   0.00000  Uiso   1.00
H163   H     0.88797   0.30475   0.10641   0.00000  Uiso   1.00
H164   H     0.75429   0.24793   0.72753   0.00000  Uiso   1.00
H165   H     0.75269   0.07062   0.08984   0.00000  Uiso   1.00
H166   H     0.96925   0.42849   0.27026   0.00000  Uiso   1.00
H167   H     0.68738   0.30865   0.47138   0.00000  Uiso   1.00
H168   H     0.68399   0.93475   0.23537   0.00000  Uiso   1.00
H169   H     0.61113   0.37520   0.15855   0.00000  Uiso   1.00
H170   H     0.69578   0.47666   0.29526   0.00000  Uiso   1.00
H171   H     0.56211   0.41984   0.91637   0.00000  Uiso   1.00
H172   H     0.56050   0.24253   0.27868   0.00000  Uiso   1.00
H173   H     0.81326   0.56803   0.42354   0.00000  Uiso   1.00
H174   H     0.53139   0.44818   0.62465   0.00000  Uiso   1.00
H175   H     0.52801   0.07428   0.38864   0.00000  Uiso   1.00
O176   O     0.95023   0.56208   0.43356   0.00000  Uiso   1.00
O177   O     0.58042   0.40484   0.38546   0.00000  Uiso   1.00
O178   O     0.57598   0.91429   0.38780   0.00000  Uiso   1.00
N179   N     0.92092   0.44740   0.28760   0.00000  Uiso   1.00
N180   N     0.65740   0.33536   0.54069   0.00000  Uiso   1.00
N181   N     0.65422   0.98579   0.25492   0.00000  Uiso   1.00
N182   N     0.83699   0.52248   0.37007   0.00000  Uiso   1.00
N183   N     0.57346   0.41044   0.62317   0.00000  Uiso   1.00
N184   N     0.57028   0.06087   0.33740   0.00000  Uiso   1.00
