data_job_04033
_audit_creation_date              2018-12-19
_audit_creation_method            'Materials Studio'
_symmetry_space_group_name_H-M    'P1'
_symmetry_Int_Tables_number       1
_symmetry_cell_setting            triclinic
loop_
_symmetry_equiv_pos_as_xyz
  x,y,z
_cell_length_a                    9.1646
_cell_length_b                    10.2100
_cell_length_c                    16.0932
_cell_angle_alpha                 80.2852
_cell_angle_beta                  87.7588
_cell_angle_gamma                 77.5513
loop_
_atom_site_label
_atom_site_type_symbol
_atom_site_fract_x
_atom_site_fract_y
_atom_site_fract_z
_atom_site_U_iso_or_equiv
_atom_site_adp_type
_atom_site_occupancy
C1     C     0.85505   0.83888   0.75274   0.00000  Uiso   1.00
C2     C     0.84988   0.69480   0.74108   0.00000  Uiso   1.00
C3     C     0.72779   0.65453   0.71299   0.00000  Uiso   1.00
C4     C     0.74549   0.51807   0.70662   0.00000  Uiso   1.00
C5     C     0.71689   0.30844   0.68537   0.00000  Uiso   1.00
C6     C     0.89966   0.82889   0.84426   0.00000  Uiso   1.00
C7     C     0.81943   0.90138   0.90291   0.00000  Uiso   1.00
C8     C     0.87906   0.87780   0.98340   0.00000  Uiso   1.00
C9     C     0.92780   0.87642   0.12232   0.00000  Uiso   1.00
C10    C     0.98595   0.87593   0.69937   0.00000  Uiso   1.00
C11    C     0.97829   0.98801   0.63620   0.00000  Uiso   1.00
C12    C     0.11057   0.00405   0.59471   0.00000  Uiso   1.00
C13    C     0.29329   0.07572   0.50865   0.00000  Uiso   1.00
C14    C     0.10360   0.66812   0.79139   0.00000  Uiso   1.00
C15    C     0.98488   0.60205   0.76208   0.00000  Uiso   1.00
C16    C     0.00277   0.46560   0.75575   0.00000  Uiso   1.00
C17    C     0.88073   0.42515   0.72765   0.00000  Uiso   1.00
C18    C     0.03465   0.73614   0.86526   0.00000  Uiso   1.00
C19    C     0.09442   0.71245   0.94568   0.00000  Uiso   1.00
C20    C     0.01430   0.78488   0.00443   0.00000  Uiso   1.00
C21    C     0.12095   0.78318   0.72036   0.00000  Uiso   1.00
C22    C     0.25327   0.79907   0.67896   0.00000  Uiso   1.00
C23    C     0.24582   0.91114   0.61574   0.00000  Uiso   1.00
H24    H     0.74995   0.91109   0.73640   0.00000  Uiso   1.00
H25    H     0.62333   0.72634   0.69676   0.00000  Uiso   1.00
H26    H     0.71497   0.97316   0.88665   0.00000  Uiso   1.00
H27    H     0.87380   0.05976   0.61997   0.00000  Uiso   1.00
H28    H     0.54246   0.48060   0.66209   0.00000  Uiso   1.00
H29    H     0.73572   0.00106   0.06248   0.00000  Uiso   1.00
H30    H     0.07064   0.18368   0.50014   0.00000  Uiso   1.00
H31    H     0.20870   0.59591   0.80774   0.00000  Uiso   1.00
H32    H     0.10726   0.39385   0.77200   0.00000  Uiso   1.00
H33    H     0.19889   0.64067   0.96190   0.00000  Uiso   1.00
H34    H     0.35772   0.72727   0.69522   0.00000  Uiso   1.00
H35    H     0.93523   0.21074   0.72317   0.00000  Uiso   1.00
H36    H     0.12849   0.73121   0.12356   0.00000  Uiso   1.00
H37    H     0.46341   0.91382   0.56122   0.00000  Uiso   1.00
O38    O     0.66382   0.21843   0.66786   0.00000  Uiso   1.00
O39    O     0.91738   0.90128   0.19315   0.00000  Uiso   1.00
O40    O     0.35678   0.14087   0.45538   0.00000  Uiso   1.00
N41    N     0.64883   0.44482   0.68135   0.00000  Uiso   1.00
N42    N     0.82951   0.93141   0.05569   0.00000  Uiso   1.00
N43    N     0.14263   0.10216   0.52997   0.00000  Uiso   1.00
N44    N     0.86018   0.29961   0.71422   0.00000  Uiso   1.00
N45    N     0.04085   0.78620   0.08856   0.00000  Uiso   1.00
N46    N     0.35398   0.95695   0.56284   0.00000  Uiso   1.00
C47    C     0.14495   0.16112   0.24726   0.00000  Uiso   1.00
C48    C     0.15012   0.30520   0.25892   0.00000  Uiso   1.00
C49    C     0.27221   0.34547   0.28701   0.00000  Uiso   1.00
C50    C     0.25451   0.48193   0.29338   0.00000  Uiso   1.00
C51    C     0.28311   0.69156   0.31463   0.00000  Uiso   1.00
C52    C     0.10034   0.17111   0.15574   0.00000  Uiso   1.00
C53    C     0.18057   0.09862   0.09709   0.00000  Uiso   1.00
C54    C     0.12094   0.12220   0.01660   0.00000  Uiso   1.00
C55    C     0.07220   0.12358   0.87768   0.00000  Uiso   1.00
C56    C     0.01405   0.12407   0.30063   0.00000  Uiso   1.00
C57    C     0.02171   0.01199   0.36380   0.00000  Uiso   1.00
C58    C     0.88943   0.99595   0.40529   0.00000  Uiso   1.00
C59    C     0.70671   0.92428   0.49135   0.00000  Uiso   1.00
C60    C     0.89640   0.33188   0.20861   0.00000  Uiso   1.00
C61    C     0.01512   0.39795   0.23792   0.00000  Uiso   1.00
C62    C     0.99723   0.53440   0.24425   0.00000  Uiso   1.00
C63    C     0.11927   0.57485   0.27235   0.00000  Uiso   1.00
C64    C     0.96535   0.26386   0.13474   0.00000  Uiso   1.00
C65    C     0.90558   0.28755   0.05432   0.00000  Uiso   1.00
C66    C     0.98570   0.21512   0.99557   0.00000  Uiso   1.00
C67    C     0.87905   0.21682   0.27964   0.00000  Uiso   1.00
C68    C     0.74673   0.20093   0.32104   0.00000  Uiso   1.00
C69    C     0.75418   0.08886   0.38426   0.00000  Uiso   1.00
H70    H     0.25005   0.08891   0.26360   0.00000  Uiso   1.00
H71    H     0.37667   0.27366   0.30324   0.00000  Uiso   1.00
H72    H     0.28503   0.02684   0.11335   0.00000  Uiso   1.00
H73    H     0.12620   0.94024   0.38003   0.00000  Uiso   1.00
H74    H     0.45754   0.51940   0.33791   0.00000  Uiso   1.00
H75    H     0.26428   0.99894   0.93752   0.00000  Uiso   1.00
H76    H     0.92936   0.81632   0.49986   0.00000  Uiso   1.00
H77    H     0.79130   0.40409   0.19226   0.00000  Uiso   1.00
H78    H     0.89274   0.60615   0.22800   0.00000  Uiso   1.00
H79    H     0.80111   0.35933   0.03810   0.00000  Uiso   1.00
H80    H     0.64228   0.27273   0.30478   0.00000  Uiso   1.00
H81    H     0.06477   0.78926   0.27683   0.00000  Uiso   1.00
H82    H     0.87151   0.26879   0.87644   0.00000  Uiso   1.00
H83    H     0.53659   0.08618   0.43878   0.00000  Uiso   1.00
O84    O     0.33618   0.78157   0.33214   0.00000  Uiso   1.00
O85    O     0.08262   0.09872   0.80685   0.00000  Uiso   1.00
O86    O     0.64322   0.85913   0.54462   0.00000  Uiso   1.00
N87    N     0.35117   0.55518   0.31865   0.00000  Uiso   1.00
N88    N     0.17049   0.06859   0.94431   0.00000  Uiso   1.00
N89    N     0.85737   0.89784   0.47003   0.00000  Uiso   1.00
N90    N     0.13982   0.70039   0.28578   0.00000  Uiso   1.00
N91    N     0.95915   0.21380   0.91144   0.00000  Uiso   1.00
N92    N     0.64602   0.04305   0.43716   0.00000  Uiso   1.00
