data_job_06488
_audit_creation_date              2018-12-19
_audit_creation_method            'Materials Studio'
_symmetry_space_group_name_H-M    'P1'
_symmetry_Int_Tables_number       1
_symmetry_cell_setting            triclinic
loop_
_symmetry_equiv_pos_as_xyz
  x,y,z
_cell_length_a                    19.2648
_cell_length_b                    20.5196
_cell_length_c                    22.0484
_cell_angle_alpha                 115.6200
_cell_angle_beta                  106.2907
_cell_angle_gamma                 98.9940
loop_
_atom_site_label
_atom_site_type_symbol
_atom_site_fract_x
_atom_site_fract_y
_atom_site_fract_z
_atom_site_U_iso_or_equiv
_atom_site_adp_type
_atom_site_occupancy
C1     C     0.38923   0.68058   0.62411   0.00000  Uiso   1.00
C2     C     0.33791   0.61196   0.61863   0.00000  Uiso   1.00
C3     C     0.27115   0.60878   0.63125   0.00000  Uiso   1.00
C4     C     0.23238   0.54079   0.62342   0.00000  Uiso   1.00
C5     C     0.14860   0.44376   0.61795   0.00000  Uiso   1.00
C6     C     0.46849   0.69849   0.67867   0.00000  Uiso   1.00
C7     C     0.51151   0.76807   0.74176   0.00000  Uiso   1.00
C8     C     0.58267   0.77292   0.78446   0.00000  Uiso   1.00
C9     C     0.70163   0.81024   0.87218   0.00000  Uiso   1.00
C10    C     0.39546   0.65243   0.55013   0.00000  Uiso   1.00
C11    C     0.37711   0.68329   0.50515   0.00000  Uiso   1.00
C12    C     0.38680   0.64937   0.43965   0.00000  Uiso   1.00
C13    C     0.39238   0.61518   0.32779   0.00000  Uiso   1.00
C14    C     0.43909   0.56548   0.58777   0.00000  Uiso   1.00
C15    C     0.36500   0.54944   0.59889   0.00000  Uiso   1.00
C16    C     0.32632   0.48144   0.59104   0.00000  Uiso   1.00
C17    C     0.25951   0.47816   0.60364   0.00000  Uiso   1.00
C18    C     0.49557   0.63597   0.65893   0.00000  Uiso   1.00
C19    C     0.56668   0.64072   0.70155   0.00000  Uiso   1.00
C20    C     0.60981   0.71029   0.76469   0.00000  Uiso   1.00
C21    C     0.42254   0.58991   0.53039   0.00000  Uiso   1.00
C22    C     0.43227   0.55594   0.46495   0.00000  Uiso   1.00
C23    C     0.41393   0.58674   0.41987   0.00000  Uiso   1.00
H24    H     0.36815   0.72926   0.63948   0.00000  Uiso   1.00
H25    H     0.25021   0.65718   0.64653   0.00000  Uiso   1.00
H26    H     0.49054   0.81644   0.75701   0.00000  Uiso   1.00
H27    H     0.35615   0.73167   0.52045   0.00000  Uiso   1.00
H28    H     0.13143   0.54970   0.64567   0.00000  Uiso   1.00
H29    H     0.63818   0.88552   0.87862   0.00000  Uiso   1.00
H30    H     0.35479   0.70678   0.37977   0.00000  Uiso   1.00
H31    H     0.46018   0.51681   0.57240   0.00000  Uiso   1.00
H32    H     0.34729   0.43307   0.57576   0.00000  Uiso   1.00
H33    H     0.58762   0.59233   0.68625   0.00000  Uiso   1.00
H34    H     0.45323   0.50756   0.44969   0.00000  Uiso   1.00
H35    H     0.21022   0.36781   0.58824   0.00000  Uiso   1.00
H36    H     0.71698   0.70363   0.82119   0.00000  Uiso   1.00
H37    H     0.43359   0.52488   0.32234   0.00000  Uiso   1.00
O38    O     0.09492   0.40751   0.62040   0.00000  Uiso   1.00
O39    O     0.75977   0.84810   0.92602   0.00000  Uiso   1.00
O40    O     0.38796   0.61358   0.27154   0.00000  Uiso   1.00
N41    N     0.16545   0.51838   0.63167   0.00000  Uiso   1.00
N42    N     0.63924   0.83235   0.84948   0.00000  Uiso   1.00
N43    N     0.37431   0.66525   0.38310   0.00000  Uiso   1.00
N44    N     0.20785   0.42050   0.60077   0.00000  Uiso   1.00
N45    N     0.68163   0.73447   0.81857   0.00000  Uiso   1.00
N46    N     0.41671   0.56737   0.35220   0.00000  Uiso   1.00
C47    C     0.86899   0.33712   0.97728   0.00000  Uiso   1.00
C48    C     0.78707   0.31551   0.92540   0.00000  Uiso   1.00
C49    C     0.72179   0.28349   0.93095   0.00000  Uiso   1.00
C50    C     0.65215   0.26789   0.87805   0.00000  Uiso   1.00
C51    C     0.52558   0.23189   0.80605   0.00000  Uiso   1.00
C52    C     0.90892   0.29436   0.92982   0.00000  Uiso   1.00
C53    C     0.94610   0.24456   0.93910   0.00000  Uiso   1.00
C54    C     0.97905   0.21116   0.88993   0.00000  Uiso   1.00
C55    C     0.04171   0.14236   0.82483   0.00000  Uiso   1.00
C56    C     0.90577   0.42150   0.00547   0.00000  Uiso   1.00
C57    C     0.94033   0.47861   0.07835   0.00000  Uiso   1.00
C58    C     0.97064   0.55225   0.09286   0.00000  Uiso   1.00
C59    C     0.02841   0.68086   0.14520   0.00000  Uiso   1.00
C60    C     0.86141   0.36634   0.87346   0.00000  Uiso   1.00
C61    C     0.78295   0.33138   0.86901   0.00000  Uiso   1.00
C62    C     0.71340   0.31582   0.81608   0.00000  Uiso   1.00
C63    C     0.64802   0.28379   0.82156   0.00000  Uiso   1.00
C64    C     0.90481   0.31023   0.87343   0.00000  Uiso   1.00
C65    C     0.93771   0.27689   0.82423   0.00000  Uiso   1.00
C66    C     0.97493   0.22706   0.83343   0.00000  Uiso   1.00
C67    C     0.90166   0.43737   0.94907   0.00000  Uiso   1.00
C68    C     0.93193   0.51094   0.96347   0.00000  Uiso   1.00
C69    C     0.96651   0.56815   0.03636   0.00000  Uiso   1.00
H70    H     0.87220   0.32476   0.02118   0.00000  Uiso   1.00
H71    H     0.72500   0.27121   0.97460   0.00000  Uiso   1.00
H72    H     0.94929   0.23230   0.98275   0.00000  Uiso   1.00
H73    H     0.94350   0.46631   0.12197   0.00000  Uiso   1.00
H74    H     0.55999   0.21882   0.89806   0.00000  Uiso   1.00
H75    H     0.03293   0.13679   0.91527   0.00000  Uiso   1.00
H76    H     0.02074   0.63024   0.20885   0.00000  Uiso   1.00
H77    H     0.85820   0.37869   0.82955   0.00000  Uiso   1.00
H78    H     0.71023   0.32811   0.77245   0.00000  Uiso   1.00
H79    H     0.93452   0.28919   0.78060   0.00000  Uiso   1.00
H80    H     0.92873   0.52320   0.91982   0.00000  Uiso   1.00
H81    H     0.54800   0.26499   0.73399   0.00000  Uiso   1.00
H82    H     0.02095   0.18296   0.75120   0.00000  Uiso   1.00
H83    H     0.00875   0.67641   0.04477   0.00000  Uiso   1.00
O84    O     0.45690   0.20763   0.78191   0.00000  Uiso   1.00
O85    O     0.07740   0.10002   0.80449   0.00000  Uiso   1.00
O86    O     0.06140   0.74742   0.18965   0.00000  Uiso   1.00
N87    N     0.57747   0.23664   0.86729   0.00000  Uiso   1.00
N88    N     0.01963   0.15994   0.88338   0.00000  Uiso   1.00
N89    N     0.00825   0.62127   0.15784   0.00000  Uiso   1.00
N90    N     0.57102   0.26149   0.77901   0.00000  Uiso   1.00
N91    N     0.01318   0.18478   0.79509   0.00000  Uiso   1.00
N92    N     0.00180   0.64612   0.06956   0.00000  Uiso   1.00
C93    C     0.81308   0.94849   0.18670   0.00000  Uiso   1.00
C94    C     0.79030   0.00650   0.24258   0.00000  Uiso   1.00
C95    C     0.71612   0.00427   0.23623   0.00000  Uiso   1.00
C96    C     0.70726   0.06268   0.29326   0.00000  Uiso   1.00
C97    C     0.66230   0.14388   0.37069   0.00000  Uiso   1.00
C98    C     0.86409   0.99389   0.16700   0.00000  Uiso   1.00
C99    C     0.85195   0.98103   0.09711   0.00000  Uiso   1.00
C100   C     0.90522   0.02881   0.09052   0.00000  Uiso   1.00
C101   C     0.97485   0.09038   0.05062   0.00000  Uiso   1.00
C102   C     0.86446   0.91890   0.22768   0.00000  Uiso   1.00
C103   C     0.85265   0.84300   0.20879   0.00000  Uiso   1.00
C104   C     0.90624   0.82765   0.25327   0.00000  Uiso   1.00
C105   C     0.97643   0.77280   0.30758   0.00000  Uiso   1.00
C106   C     0.92927   0.05619   0.29928   0.00000  Uiso   1.00
C107   C     0.85342   0.06500   0.30372   0.00000  Uiso   1.00
C108   C     0.84467   0.12343   0.36077   0.00000  Uiso   1.00
C109   C     0.77048   0.12128   0.35451   0.00000  Uiso   1.00
C110   C     0.92720   0.05238   0.22814   0.00000  Uiso   1.00
C111   C     0.98051   0.10019   0.22165   0.00000  Uiso   1.00
C112   C     0.96845   0.08742   0.15177   0.00000  Uiso   1.00
C113   C     0.92757   0.97740   0.28882   0.00000  Uiso   1.00
C114   C     0.98119   0.96216   0.33334   0.00000  Uiso   1.00
C115   C     0.96946   0.88625   0.31452   0.00000  Uiso   1.00
H116   H     0.76395   0.90295   0.13910   0.00000  Uiso   1.00
H117   H     0.66729   0.95899   0.18890   0.00000  Uiso   1.00
H118   H     0.80311   0.93575   0.04980   0.00000  Uiso   1.00
H119   H     0.80380   0.79775   0.16147   0.00000  Uiso   1.00
H120   H     0.58797   0.04694   0.27106   0.00000  Uiso   1.00
H121   H     0.87437   0.99792   0.97776   0.00000  Uiso   1.00
H122   H     0.87582   0.70690   0.21323   0.00000  Uiso   1.00
H123   H     0.97841   0.10174   0.34688   0.00000  Uiso   1.00
H124   H     0.89352   0.16869   0.40808   0.00000  Uiso   1.00
H125   H     0.02934   0.14545   0.26898   0.00000  Uiso   1.00
H126   H     0.03003   0.00745   0.38065   0.00000  Uiso   1.00
H127   H     0.77158   0.21714   0.44896   0.00000  Uiso   1.00
H128   H     0.05798   0.16812   0.15566   0.00000  Uiso   1.00
H129   H     0.05943   0.87710   0.39113   0.00000  Uiso   1.00
O130   O     0.62006   0.17251   0.39651   0.00000  Uiso   1.00
O131   O     0.99581   0.10819   0.01171   0.00000  Uiso   1.00
O132   O     0.99771   0.72638   0.32064   0.00000  Uiso   1.00
N133   N     0.64283   0.07780   0.30454   0.00000  Uiso   1.00
N134   N     0.91059   0.03198   0.03032   0.00000  Uiso   1.00
N135   N     0.91196   0.75990   0.25045   0.00000  Uiso   1.00
N136   N     0.74163   0.16938   0.40026   0.00000  Uiso   1.00
N137   N     0.00939   0.12356   0.12605   0.00000  Uiso   1.00
N138   N     0.01076   0.85148   0.34618   0.00000  Uiso   1.00
C139   C     0.85252   0.68863   0.69987   0.00000  Uiso   1.00
C140   C     0.79460   0.70746   0.65224   0.00000  Uiso   1.00
C141   C     0.73657   0.73458   0.66800   0.00000  Uiso   1.00
C142   C     0.68958   0.74833   0.61744   0.00000  Uiso   1.00
C143   C     0.59805   0.77957   0.55323   0.00000  Uiso   1.00
C144   C     0.93099   0.73634   0.71509   0.00000  Uiso   1.00
C145   C     0.98764   0.78775   0.78371   0.00000  Uiso   1.00
C146   C     0.05546   0.82581   0.78606   0.00000  Uiso   1.00
C147   C     0.17569   0.90186   0.81943   0.00000  Uiso   1.00
C148   C     0.84548   0.60576   0.65154   0.00000  Uiso   1.00
C149   C     0.83025   0.54737   0.66673   0.00000  Uiso   1.00
C150   C     0.82609   0.47548   0.61558   0.00000  Uiso   1.00
C151   C     0.81356   0.34878   0.55028   0.00000  Uiso   1.00
C152   C     0.87225   0.66480   0.58203   0.00000  Uiso   1.00
C153   C     0.80533   0.69452   0.58823   0.00000  Uiso   1.00
C154   C     0.75841   0.70822   0.53763   0.00000  Uiso   1.00
C155   C     0.70031   0.73536   0.55332   0.00000  Uiso   1.00
C156   C     0.94171   0.72341   0.65109   0.00000  Uiso   1.00
C157   C     0.00947   0.76139   0.65334   0.00000  Uiso   1.00
C158   C     0.06620   0.81285   0.72194   0.00000  Uiso   1.00
C159   C     0.85620   0.59281   0.58753   0.00000  Uiso   1.00
C160   C     0.85208   0.52101   0.53635   0.00000  Uiso   1.00
C161   C     0.83683   0.46252   0.55146   0.00000  Uiso   1.00
H162   H     0.84418   0.69870   0.74970   0.00000  Uiso   1.00
H163   H     0.72830   0.74460   0.71755   0.00000  Uiso   1.00
H164   H     0.97933   0.79775   0.83323   0.00000  Uiso   1.00
H165   H     0.82195   0.55740   0.71626   0.00000  Uiso   1.00
H166   H     0.60458   0.78980   0.65368   0.00000  Uiso   1.00
H167   H     0.13389   0.90185   0.89761   0.00000  Uiso   1.00
H168   H     0.80204   0.39504   0.65096   0.00000  Uiso   1.00
H169   H     0.88060   0.65473   0.53220   0.00000  Uiso   1.00
H170   H     0.76672   0.69820   0.48811   0.00000  Uiso   1.00
H171   H     0.01775   0.75136   0.60379   0.00000  Uiso   1.00
H172   H     0.86037   0.51102   0.48683   0.00000  Uiso   1.00
H173   H     0.63576   0.75215   0.46746   0.00000  Uiso   1.00
H174   H     0.16507   0.86420   0.71139   0.00000  Uiso   1.00
H175   H     0.83322   0.35739   0.46475   0.00000  Uiso   1.00
O176   O     0.54461   0.80039   0.53550   0.00000  Uiso   1.00
O177   O     0.23905   0.94739   0.85552   0.00000  Uiso   1.00
O178   O     0.80367   0.28247   0.53193   0.00000  Uiso   1.00
N179   N     0.62753   0.77496   0.61590   0.00000  Uiso   1.00
N180   N     0.12240   0.87973   0.84396   0.00000  Uiso   1.00
N181   N     0.81217   0.40591   0.61338   0.00000  Uiso   1.00
N182   N     0.64431   0.75469   0.51569   0.00000  Uiso   1.00
N183   N     0.13918   0.85947   0.74375   0.00000  Uiso   1.00
N184   N     0.82895   0.38565   0.51317   0.00000  Uiso   1.00
C185   C     0.35954   0.07894   0.27329   0.00000  Uiso   1.00
C186   C     0.28037   0.02623   0.25005   0.00000  Uiso   1.00
C187   C     0.21154   0.03480   0.21898   0.00000  Uiso   1.00
C188   C     0.14530   0.98050   0.20157   0.00000  Uiso   1.00
C189   C     0.02197   0.90785   0.16344   0.00000  Uiso   1.00
C190   C     0.39992   0.02838   0.23259   0.00000  Uiso   1.00
C191   C     0.43163   0.03878   0.18685   0.00000  Uiso   1.00
C192   C     0.46605   0.98630   0.15475   0.00000  Uiso   1.00
C193   C     0.52838   0.91704   0.08956   0.00000  Uiso   1.00
C194   C     0.40160   0.10567   0.35388   0.00000  Uiso   1.00
C195   C     0.43474   0.18105   0.41012   0.00000  Uiso   1.00
C196   C     0.47059   0.19364   0.48013   0.00000  Uiso   1.00
C197   C     0.53553   0.24437   0.60326   0.00000  Uiso   1.00
C198   C     0.36431   0.96726   0.29761   0.00000  Uiso   1.00
C199   C     0.28296   0.96557   0.26326   0.00000  Uiso   1.00
C200   C     0.21682   0.91124   0.24589   0.00000  Uiso   1.00
C201   C     0.14790   0.91973   0.21480   0.00000  Uiso   1.00
C202   C     0.40252   0.96773   0.24580   0.00000  Uiso   1.00
C203   C     0.43690   0.91522   0.21376   0.00000  Uiso   1.00
C204   C     0.46864   0.92553   0.16798   0.00000  Uiso   1.00
C205   C     0.40420   0.04501   0.36709   0.00000  Uiso   1.00
C206   C     0.44001   0.05749   0.43703   0.00000  Uiso   1.00
C207   C     0.47319   0.13287   0.49337   0.00000  Uiso   1.00
H208   H     0.35753   0.12616   0.26300   0.00000  Uiso   1.00
H209   H     0.20955   0.08174   0.20876   0.00000  Uiso   1.00
H210   H     0.42962   0.08573   0.17665   0.00000  Uiso   1.00
H211   H     0.43272   0.22797   0.39988   0.00000  Uiso   1.00
H212   H     0.04664   0.00573   0.15443   0.00000  Uiso   1.00
H213   H     0.51068   0.01415   0.08673   0.00000  Uiso   1.00
H214   H     0.51723   0.31410   0.55746   0.00000  Uiso   1.00
H215   H     0.36633   0.92004   0.30789   0.00000  Uiso   1.00
H216   H     0.21884   0.86431   0.25612   0.00000  Uiso   1.00
H217   H     0.43890   0.86830   0.22400   0.00000  Uiso   1.00
H218   H     0.44201   0.01054   0.44723   0.00000  Uiso   1.00
H219   H     0.05418   0.82925   0.19286   0.00000  Uiso   1.00
H220   H     0.51822   0.83767   0.12517   0.00000  Uiso   1.00
H221   H     0.52477   0.13762   0.59589   0.00000  Uiso   1.00
O222   O     0.95323   0.88454   0.13876   0.00000  Uiso   1.00
O223   O     0.56203   0.89559   0.04995   0.00000  Uiso   1.00
O224   O     0.57063   0.28912   0.66753   0.00000  Uiso   1.00
N225   N     0.06866   0.97185   0.17059   0.00000  Uiso   1.00
N226   N     0.50249   0.97972   0.10729   0.00000  Uiso   1.00
N227   N     0.50864   0.26014   0.54738   0.00000  Uiso   1.00
N228   N     0.07271   0.87689   0.19127   0.00000  Uiso   1.00
N229   N     0.50655   0.88476   0.12797   0.00000  Uiso   1.00
N230   N     0.51269   0.16518   0.56806   0.00000  Uiso   1.00
C231   C     0.25107   0.29013   0.91522   0.00000  Uiso   1.00
C232   C     0.24331   0.35304   0.98028   0.00000  Uiso   1.00
C233   C     0.17528   0.35914   0.98825   0.00000  Uiso   1.00
C234   C     0.18028   0.42086   0.05179   0.00000  Uiso   1.00
C235   C     0.15751   0.51036   0.14467   0.00000  Uiso   1.00
C236   C     0.30419   0.25465   0.94654   0.00000  Uiso   1.00
C237   C     0.28734   0.17803   0.92613   0.00000  Uiso   1.00
C238   C     0.34359   0.15693   0.96127   0.00000  Uiso   1.00
C239   C     0.41535   0.09368   0.00173   0.00000  Uiso   1.00
C240   C     0.29470   0.33037   0.88647   0.00000  Uiso   1.00
C241   C     0.26988   0.31741   0.81554   0.00000  Uiso   1.00
C242   C     0.31816   0.36006   0.80009   0.00000  Uiso   1.00
C243   C     0.37519   0.41437   0.74728   0.00000  Uiso   1.00
C244   C     0.38094   0.38888   0.01390   0.00000  Uiso   1.00
C245   C     0.31385   0.40667   0.03388   0.00000  Uiso   1.00
C246   C     0.31896   0.46841   0.09742   0.00000  Uiso   1.00
C247   C     0.25095   0.47460   0.10548   0.00000  Uiso   1.00
C248   C     0.37472   0.30829   0.00014   0.00000  Uiso   1.00
C249   C     0.43102   0.28729   0.03531   0.00000  Uiso   1.00
C250   C     0.41426   0.21067   0.01496   0.00000  Uiso   1.00
C251   C     0.36524   0.38401   0.94006   0.00000  Uiso   1.00
C252   C     0.41357   0.42668   0.92472   0.00000  Uiso   1.00
C253   C     0.38883   0.41379   0.85378   0.00000  Uiso   1.00
H254   H     0.19615   0.24836   0.87350   0.00000  Uiso   1.00
H255   H     0.12070   0.31762   0.94676   0.00000  Uiso   1.00
H256   H     0.23275   0.13654   0.88465   0.00000  Uiso   1.00
H257   H     0.21529   0.27590   0.77408   0.00000  Uiso   1.00
H258   H     0.06816   0.41803   0.05164   0.00000  Uiso   1.00
H259   H     0.30442   0.03621   0.92066   0.00000  Uiso   1.00
H260   H     0.26762   0.33008   0.68749   0.00000  Uiso   1.00
H261   H     0.43586   0.43064   0.05563   0.00000  Uiso   1.00
H262   H     0.37356   0.50991   0.13889   0.00000  Uiso   1.00
H263   H     0.48560   0.32882   0.07678   0.00000  Uiso   1.00
H264   H     0.46815   0.46818   0.96620   0.00000  Uiso   1.00
H265   H     0.27339   0.57410   0.20758   0.00000  Uiso   1.00
H266   H     0.50965   0.19227   0.07659   0.00000  Uiso   1.00
H267   H     0.47285   0.48615   0.84343   0.00000  Uiso   1.00
O268   O     0.12547   0.54490   0.18110   0.00000  Uiso   1.00
O269   O     0.43544   0.04396   0.00925   0.00000  Uiso   1.00
O270   O     0.38716   0.42952   0.70334   0.00000  Uiso   1.00
N271   N     0.12501   0.44390   0.07691   0.00000  Uiso   1.00
N272   N     0.34590   0.08692   0.95446   0.00000  Uiso   1.00
N273   N     0.31150   0.36165   0.73646   0.00000  Uiso   1.00
N274   N     0.23544   0.52788   0.16081   0.00000  Uiso   1.00
N275   N     0.45633   0.17089   0.03836   0.00000  Uiso   1.00
N276   N     0.42193   0.44562   0.82037   0.00000  Uiso   1.00
C277   C     0.56341   0.30513   0.27621   0.00000  Uiso   1.00
C278   C     0.62080   0.34133   0.25503   0.00000  Uiso   1.00
C279   C     0.66978   0.30820   0.22598   0.00000  Uiso   1.00
C280   C     0.71795   0.35059   0.21024   0.00000  Uiso   1.00
C281   C     0.80718   0.39570   0.17536   0.00000  Uiso   1.00
C282   C     0.48585   0.30494   0.23347   0.00000  Uiso   1.00
C283   C     0.42136   0.24121   0.18631   0.00000  Uiso   1.00
C284   C     0.35593   0.25298   0.15244   0.00000  Uiso   1.00
C285   C     0.23563   0.24160   0.08414   0.00000  Uiso   1.00
C286   C     0.58250   0.36108   0.35636   0.00000  Uiso   1.00
C287   C     0.59926   0.34454   0.41252   0.00000  Uiso   1.00
C288   C     0.61519   0.40356   0.48211   0.00000  Uiso   1.00
C289   C     0.64495   0.47934   0.60462   0.00000  Uiso   1.00
C290   C     0.56187   0.43934   0.29992   0.00000  Uiso   1.00
C291   C     0.61996   0.41423   0.26791   0.00000  Uiso   1.00
C292   C     0.66808   0.45669   0.25222   0.00000  Uiso   1.00
C293   C     0.71712   0.42362   0.22315   0.00000  Uiso   1.00
C294   C     0.48501   0.37784   0.24635   0.00000  Uiso   1.00
C295   C     0.41966   0.38970   0.21255   0.00000  Uiso   1.00
C296   C     0.35509   0.32601   0.16534   0.00000  Uiso   1.00
C297   C     0.58167   0.43398   0.36924   0.00000  Uiso   1.00
C298   C     0.59757   0.49303   0.43876   0.00000  Uiso   1.00
C299   C     0.61435   0.47659   0.49502   0.00000  Uiso   1.00
H300   H     0.56405   0.24837   0.26617   0.00000  Uiso   1.00
H301   H     0.67040   0.25178   0.21601   0.00000  Uiso   1.00
H302   H     0.42203   0.18481   0.17636   0.00000  Uiso   1.00
H303   H     0.59990   0.28812   0.40253   0.00000  Uiso   1.00
H304   H     0.78793   0.28769   0.16605   0.00000  Uiso   1.00
H305   H     0.26420   0.14648   0.08246   0.00000  Uiso   1.00
H306   H     0.63929   0.36434   0.55940   0.00000  Uiso   1.00
H307   H     0.56121   0.49610   0.30995   0.00000  Uiso   1.00
H308   H     0.66742   0.51310   0.26219   0.00000  Uiso   1.00
H309   H     0.41904   0.44613   0.22253   0.00000  Uiso   1.00
H310   H     0.59691   0.54944   0.44871   0.00000  Uiso   1.00
H311   H     0.78550   0.49979   0.20353   0.00000  Uiso   1.00
H312   H     0.26177   0.35858   0.11994   0.00000  Uiso   1.00
H313   H     0.63686   0.57644   0.59687   0.00000  Uiso   1.00
O314   O     0.85661   0.40045   0.15256   0.00000  Uiso   1.00
O315   O     0.16950   0.21519   0.04290   0.00000  Uiso   1.00
O316   O     0.66161   0.50101   0.66863   0.00000  Uiso   1.00
N317   N     0.77279   0.33528   0.18144   0.00000  Uiso   1.00
N318   N     0.28314   0.20326   0.10328   0.00000  Uiso   1.00
N319   N     0.63380   0.40693   0.54917   0.00000  Uiso   1.00
N320   N     0.77149   0.44941   0.20161   0.00000  Uiso   1.00
N321   N     0.28184   0.31739   0.12344   0.00000  Uiso   1.00
N322   N     0.63249   0.52106   0.56934   0.00000  Uiso   1.00
C323   C     0.29450   0.66864   0.93748   0.00000  Uiso   1.00
C324   C     0.34282   0.65975   0.99952   0.00000  Uiso   1.00
C325   C     0.41231   0.64623   0.00756   0.00000  Uiso   1.00
C326   C     0.44759   0.63990   0.06807   0.00000  Uiso   1.00
C327   C     0.52769   0.62509   0.15672   0.00000  Uiso   1.00
C328   C     0.28270   0.74596   0.97371   0.00000  Uiso   1.00
C329   C     0.30163   0.80491   0.96004   0.00000  Uiso   1.00
C330   C     0.28629   0.87114   0.99882   0.00000  Uiso   1.00
C331   C     0.27299   0.99013   0.04736   0.00000  Uiso   1.00
C332   C     0.21623   0.60899   0.90306   0.00000  Uiso   1.00
C333   C     0.17926   0.55278   0.82998   0.00000  Uiso   1.00
C334   C     0.10795   0.50370   0.80927   0.00000  Uiso   1.00
C335   C     0.99144   0.41003   0.74812   0.00000  Uiso   1.00
C336   C     0.23359   0.68144   0.03065   0.00000  Uiso   1.00
C337   C     0.30974   0.66671   0.05013   0.00000  Uiso   1.00
C338   C     0.34493   0.66040   0.11064   0.00000  Uiso   1.00
C339   C     0.41446   0.64687   0.11877   0.00000  Uiso   1.00
C340   C     0.24962   0.75291   0.02432   0.00000  Uiso   1.00
C341   C     0.23425   0.81907   0.06312   0.00000  Uiso   1.00
C342   C     0.25315   0.87811   0.04952   0.00000  Uiso   1.00
C343   C     0.18315   0.61594   0.95367   0.00000  Uiso   1.00
C344   C     0.11188   0.56694   0.93307   0.00000  Uiso   1.00
C345   C     0.07481   0.51067   0.85997   0.00000  Uiso   1.00
H346   H     0.32025   0.66323   0.89808   0.00000  Uiso   1.00
H347   H     0.43789   0.64086   0.96838   0.00000  Uiso   1.00
H348   H     0.32722   0.79950   0.92087   0.00000  Uiso   1.00
H349   H     0.20487   0.54741   0.79083   0.00000  Uiso   1.00
H350   H     0.55375   0.61916   0.06866   0.00000  Uiso   1.00
H351   H     0.32037   0.95366   0.96845   0.00000  Uiso   1.00
H352   H     0.06237   0.42208   0.69424   0.00000  Uiso   1.00
H353   H     0.20784   0.68686   0.07006   0.00000  Uiso   1.00
H354   H     0.31932   0.66578   0.14980   0.00000  Uiso   1.00
H355   H     0.20865   0.82443   0.10228   0.00000  Uiso   1.00
H356   H     0.08630   0.57234   0.97225   0.00000  Uiso   1.00
H357   H     0.45751   0.63939   0.21591   0.00000  Uiso   1.00
H358   H     0.22412   0.97389   0.11569   0.00000  Uiso   1.00
H359   H     0.96613   0.44231   0.84149   0.00000  Uiso   1.00
O360   O     0.58101   0.61501   0.19165   0.00000  Uiso   1.00
O361   O     0.27480   0.05385   0.06016   0.00000  Uiso   1.00
O362   O     0.93632   0.35643   0.70042   0.00000  Uiso   1.00
N363   N     0.51579   0.62680   0.09236   0.00000  Uiso   1.00
N364   N     0.29760   0.93954   0.99868   0.00000  Uiso   1.00
N365   N     0.05639   0.44257   0.74232   0.00000  Uiso   1.00
N366   N     0.46401   0.63768   0.17159   0.00000  Uiso   1.00
N367   N     0.24582   0.95042   0.07791   0.00000  Uiso   1.00
N368   N     0.00461   0.45345   0.82155   0.00000  Uiso   1.00
C369   C     0.30489   0.07251   0.67517   0.00000  Uiso   1.00
C370   C     0.35708   0.02328   0.66739   0.00000  Uiso   1.00
C371   C     0.42210   0.03491   0.72313   0.00000  Uiso   1.00
C372   C     0.46207   0.98352   0.70490   0.00000  Uiso   1.00
C373   C     0.54678   0.91630   0.70369   0.00000  Uiso   1.00
C374   C     0.22511   0.01858   0.64813   0.00000  Uiso   1.00
C375   C     0.17918   0.02628   0.68769   0.00000  Uiso   1.00
C376   C     0.10805   0.97093   0.65324   0.00000  Uiso   1.00
C377   C     0.98786   0.89646   0.62211   0.00000  Uiso   1.00
C378   C     0.30186   0.09893   0.61988   0.00000  Uiso   1.00
C379   C     0.32044   0.17418   0.63568   0.00000  Uiso   1.00
C380   C     0.31392   0.18648   0.57744   0.00000  Uiso   1.00
C381   C     0.31290   0.23677   0.50245   0.00000  Uiso   1.00
C382   C     0.26024   0.96054   0.54366   0.00000  Uiso   1.00
C383   C     0.33283   0.96246   0.59596   0.00000  Uiso   1.00
C384   C     0.37271   0.91103   0.57763   0.00000  Uiso   1.00
C385   C     0.43778   0.92259   0.63335   0.00000  Uiso   1.00
C386   C     0.20086   0.95777   0.57670   0.00000  Uiso   1.00
C387   C     0.12978   0.90240   0.54219   0.00000  Uiso   1.00
C388   C     0.08376   0.91001   0.58168   0.00000  Uiso   1.00
C389   C     0.27762   0.03811   0.54845   0.00000  Uiso   1.00
C390   C     0.27105   0.05030   0.49018   0.00000  Uiso   1.00
C391   C     0.28963   0.12556   0.50588   0.00000  Uiso   1.00
H392   H     0.32376   0.11985   0.73078   0.00000  Uiso   1.00
H393   H     0.44085   0.08198   0.77841   0.00000  Uiso   1.00
H394   H     0.19796   0.07335   0.74296   0.00000  Uiso   1.00
H395   H     0.33921   0.22123   0.69096   0.00000  Uiso   1.00
H396   H     0.55995   0.01315   0.79971   0.00000  Uiso   1.00
H397   H     0.04780   0.99497   0.72496   0.00000  Uiso   1.00
H398   H     0.34564   0.30681   0.61531   0.00000  Uiso   1.00
H399   H     0.24136   0.91319   0.48805   0.00000  Uiso   1.00
H400   H     0.35393   0.86398   0.52235   0.00000  Uiso   1.00
H401   H     0.11104   0.85535   0.48691   0.00000  Uiso   1.00
H402   H     0.25229   0.00323   0.43491   0.00000  Uiso   1.00
H403   H     0.48940   0.83621   0.59189   0.00000  Uiso   1.00
H404   H     0.97724   0.81803   0.51714   0.00000  Uiso   1.00
H405   H     0.27509   0.12987   0.40749   0.00000  Uiso   1.00
O406   O     0.60020   0.89602   0.72275   0.00000  Uiso   1.00
O407   O     0.92827   0.87218   0.62468   0.00000  Uiso   1.00
O408   O     0.31904   0.28130   0.48082   0.00000  Uiso   1.00
N409   N     0.52791   0.97827   0.74609   0.00000  Uiso   1.00
N410   N     0.04908   0.96127   0.67621   0.00000  Uiso   1.00
N411   N     0.32752   0.25281   0.57369   0.00000  Uiso   1.00
N412   N     0.48995   0.88306   0.63426   0.00000  Uiso   1.00
N413   N     0.01112   0.86606   0.56438   0.00000  Uiso   1.00
N414   N     0.28956   0.15760   0.46186   0.00000  Uiso   1.00
C415   C     0.01879   0.36516   0.22066   0.00000  Uiso   1.00
C416   C     0.08757   0.34962   0.25960   0.00000  Uiso   1.00
C417   C     0.15419   0.35193   0.24677   0.00000  Uiso   1.00
C418   C     0.21044   0.33595   0.28809   0.00000  Uiso   1.00
C419   C     0.31875   0.31446   0.34058   0.00000  Uiso   1.00
C420   C     0.95044   0.29436   0.18779   0.00000  Uiso   1.00
C421   C     0.90176   0.25023   0.11458   0.00000  Uiso   1.00
C422   C     0.84258   0.18774   0.09546   0.00000  Uiso   1.00
C423   C     0.73797   0.08051   0.03647   0.00000  Uiso   1.00
C424   C     0.00562   0.42921   0.28050   0.00000  Uiso   1.00
C425   C     0.00332   0.49847   0.28524   0.00000  Uiso   1.00
C426   C     0.99057   0.54951   0.34416   0.00000  Uiso   1.00
C427   C     0.97164   0.65165   0.42913   0.00000  Uiso   1.00
C428   C     0.00022   0.33265   0.31687   0.00000  Uiso   1.00
C429   C     0.07748   0.33196   0.31186   0.00000  Uiso   1.00
C430   C     0.13364   0.31597   0.35321   0.00000  Uiso   1.00
C431   C     0.20034   0.31826   0.34044   0.00000  Uiso   1.00
C432   C     0.94035   0.27670   0.24005   0.00000  Uiso   1.00
C433   C     0.88122   0.21427   0.22103   0.00000  Uiso   1.00
C434   C     0.83247   0.17005   0.14781   0.00000  Uiso   1.00
C435   C     0.99554   0.41156   0.33276   0.00000  Uiso   1.00
C436   C     0.98278   0.46250   0.39169   0.00000  Uiso   1.00
C437   C     0.98047   0.53182   0.39652   0.00000  Uiso   1.00
H438   H     0.02663   0.37890   0.17997   0.00000  Uiso   1.00
H439   H     0.16197   0.36559   0.20631   0.00000  Uiso   1.00
H440   H     0.90958   0.26391   0.07415   0.00000  Uiso   1.00
H441   H     0.01113   0.51211   0.24479   0.00000  Uiso   1.00
H442   H     0.30755   0.34302   0.25855   0.00000  Uiso   1.00
H443   H     0.77536   0.12864   0.97989   0.00000  Uiso   1.00
H444   H     0.98949   0.65201   0.33970   0.00000  Uiso   1.00
H445   H     0.99236   0.31891   0.35755   0.00000  Uiso   1.00
H446   H     0.12582   0.30231   0.39365   0.00000  Uiso   1.00
H447   H     0.87343   0.20062   0.26148   0.00000  Uiso   1.00
H448   H     0.97498   0.44882   0.43212   0.00000  Uiso   1.00
H449   H     0.27821   0.29165   0.41059   0.00000  Uiso   1.00
H450   H     0.74602   0.07727   0.13193   0.00000  Uiso   1.00
H451   H     0.96015   0.60064   0.49175   0.00000  Uiso   1.00
O452   O     0.38128   0.30747   0.35509   0.00000  Uiso   1.00
O453   O     0.68306   0.02623   0.98950   0.00000  Uiso   1.00
O454   O     0.96400   0.71287   0.46157   0.00000  Uiso   1.00
N455   N     0.28234   0.33323   0.28939   0.00000  Uiso   1.00
N456   N     0.78478   0.13279   0.02885   0.00000  Uiso   1.00
N457   N     0.98495   0.62208   0.36524   0.00000  Uiso   1.00
N458   N     0.26655   0.30559   0.37121   0.00000  Uiso   1.00
N459   N     0.76899   0.10515   0.11067   0.00000  Uiso   1.00
N460   N     0.96916   0.59444   0.44705   0.00000  Uiso   1.00
C461   C     0.86456   0.00461   0.56631   0.00000  Uiso   1.00
C462   C     0.92139   0.07235   0.57556   0.00000  Uiso   1.00
C463   C     0.99603   0.07864   0.58132   0.00000  Uiso   1.00
C464   C     0.03884   0.14516   0.58951   0.00000  Uiso   1.00
C465   C     0.13178   0.24151   0.60356   0.00000  Uiso   1.00
C466   C     0.83836   0.03693   0.62930   0.00000  Uiso   1.00
C467   C     0.84318   0.01343   0.68024   0.00000  Uiso   1.00
C468   C     0.81608   0.05014   0.73366   0.00000  Uiso   1.00
C469   C     0.78006   0.09146   0.83112   0.00000  Uiso   1.00
C470   C     0.79508   0.97787   0.49701   0.00000  Uiso   1.00
C471   C     0.76350   0.90471   0.43671   0.00000  Uiso   1.00
C472   C     0.69996   0.89169   0.37875   0.00000  Uiso   1.00
C473   C     0.59675   0.84132   0.27079   0.00000  Uiso   1.00
C474   C     0.80786   0.11158   0.57061   0.00000  Uiso   1.00
C475   C     0.89059   0.13045   0.57790   0.00000  Uiso   1.00
C476   C     0.93329   0.19698   0.58608   0.00000  Uiso   1.00
C477   C     0.00799   0.20336   0.59184   0.00000  Uiso   1.00
C478   C     0.80756   0.09503   0.63164   0.00000  Uiso   1.00
C479   C     0.78044   0.13177   0.68499   0.00000  Uiso   1.00
C480   C     0.78523   0.10834   0.73600   0.00000  Uiso   1.00
C481   C     0.76428   0.03597   0.49934   0.00000  Uiso   1.00
C482   C     0.70077   0.02306   0.44146   0.00000  Uiso   1.00
C483   C     0.66910   0.94989   0.38109   0.00000  Uiso   1.00
H484   H     0.88854   0.95938   0.56449   0.00000  Uiso   1.00
H485   H     0.01985   0.03366   0.57952   0.00000  Uiso   1.00
H486   H     0.86701   0.96846   0.67841   0.00000  Uiso   1.00
H487   H     0.78735   0.85976   0.43492   0.00000  Uiso   1.00
H488   H     0.15185   0.14165   0.59723   0.00000  Uiso   1.00
H489   H     0.82957   0.00415   0.80575   0.00000  Uiso   1.00
H490   H     0.66159   0.77494   0.29229   0.00000  Uiso   1.00
H491   H     0.78388   0.15681   0.57242   0.00000  Uiso   1.00
H492   H     0.90944   0.24193   0.58788   0.00000  Uiso   1.00
H493   H     0.75661   0.17673   0.68678   0.00000  Uiso   1.00
H494   H     0.67695   0.06803   0.44329   0.00000  Uiso   1.00
H495   H     0.06225   0.31069   0.60403   0.00000  Uiso   1.00
H496   H     0.73996   0.17319   0.81254   0.00000  Uiso   1.00
H497   H     0.57198   0.94398   0.29909   0.00000  Uiso   1.00
O498   O     0.19155   0.27861   0.61068   0.00000  Uiso   1.00
O499   O     0.76871   0.09821   0.88423   0.00000  Uiso   1.00
O500   O     0.54833   0.79749   0.21059   0.00000  Uiso   1.00
N501   N     0.11353   0.16975   0.59670   0.00000  Uiso   1.00
N502   N     0.81222   0.04120   0.79165   0.00000  Uiso   1.00
N503   N     0.65516   0.82690   0.31162   0.00000  Uiso   1.00
N504   N     0.06531   0.26070   0.60035   0.00000  Uiso   1.00
N505   N     0.76400   0.13216   0.79531   0.00000  Uiso   1.00
N506   N     0.60695   0.91786   0.31528   0.00000  Uiso   1.00
C507   C     0.68406   0.67924   0.00161   0.00000  Uiso   1.00
C508   C     0.74461   0.67632   0.96924   0.00000  Uiso   1.00
C509   C     0.81709   0.72921   0.00309   0.00000  Uiso   1.00
C510   C     0.86402   0.71638   0.96439   0.00000  Uiso   1.00
C511   C     0.96179   0.72152   0.92477   0.00000  Uiso   1.00
C512   C     0.61371   0.67755   0.94687   0.00000  Uiso   1.00
C513   C     0.57614   0.73148   0.96192   0.00000  Uiso   1.00
C514   C     0.51288   0.71968   0.90440   0.00000  Uiso   1.00
C515   C     0.40740   0.72670   0.83007   0.00000  Uiso   1.00
C516   C     0.66262   0.60379   0.00035   0.00000  Uiso   1.00
C517   C     0.66615   0.59569   0.06036   0.00000  Uiso   1.00
C518   C     0.64405   0.52178   0.04785   0.00000  Uiso   1.00
C519   C     0.61451   0.41427   0.05656   0.00000  Uiso   1.00
C520   C     0.63850   0.56239   0.87268   0.00000  Uiso   1.00
C521   C     0.71986   0.61285   0.89921   0.00000  Uiso   1.00
C522   C     0.76669   0.59993   0.86045   0.00000  Uiso   1.00
C523   C     0.83923   0.65280   0.89424   0.00000  Uiso   1.00
C524   C     0.58897   0.61409   0.87685   0.00000  Uiso   1.00
C525   C     0.52574   0.60220   0.81929   0.00000  Uiso   1.00
C526   C     0.48809   0.65609   0.83424   0.00000  Uiso   1.00
C527   C     0.63788   0.54032   0.93033   0.00000  Uiso   1.00
C528   C     0.61576   0.46641   0.91772   0.00000  Uiso   1.00
C529   C     0.61926   0.45820   0.97770   0.00000  Uiso   1.00
H530   H     0.70332   0.72866   0.05612   0.00000  Uiso   1.00
H531   H     0.83622   0.77833   0.05728   0.00000  Uiso   1.00
H532   H     0.59530   0.78058   0.01612   0.00000  Uiso   1.00
H533   H     0.68530   0.64482   0.11454   0.00000  Uiso   1.00
H534   H     0.97264   0.80542   0.02767   0.00000  Uiso   1.00
H535   H     0.46464   0.81017   0.94089   0.00000  Uiso   1.00
H536   H     0.65443   0.52388   0.14843   0.00000  Uiso   1.00
H537   H     0.61923   0.51298   0.81816   0.00000  Uiso   1.00
H538   H     0.74752   0.55081   0.80626   0.00000  Uiso   1.00
H539   H     0.50661   0.55307   0.76511   0.00000  Uiso   1.00
H540   H     0.59661   0.41730   0.86353   0.00000  Uiso   1.00
H541   H     0.90065   0.62076   0.82393   0.00000  Uiso   1.00
H542   H     0.39265   0.62551   0.73716   0.00000  Uiso   1.00
H543   H     0.58244   0.33922   0.94470   0.00000  Uiso   1.00
O544   O     0.02254   0.74189   0.92226   0.00000  Uiso   1.00
O545   O     0.35607   0.74811   0.80841   0.00000  Uiso   1.00
O546   O     0.60507   0.37250   0.08070   0.00000  Uiso   1.00
N547   N     0.93809   0.75676   0.98136   0.00000  Uiso   1.00
N548   N     0.46316   0.76121   0.90023   0.00000  Uiso   1.00
N549   N     0.64057   0.49355   0.09426   0.00000  Uiso   1.00
N550   N     0.89936   0.65740   0.87173   0.00000  Uiso   1.00
N551   N     0.42442   0.66185   0.79060   0.00000  Uiso   1.00
N552   N     0.60184   0.39418   0.98463   0.00000  Uiso   1.00
