data_job_01227
_audit_creation_date              2018-12-19
_audit_creation_method            'Materials Studio'
_symmetry_space_group_name_H-M    'P1'
_symmetry_Int_Tables_number       1
_symmetry_cell_setting            triclinic
loop_
_symmetry_equiv_pos_as_xyz
  x,y,z
_cell_length_a                    23.5328
_cell_length_b                    23.5328
_cell_length_c                    7.1687
_cell_angle_alpha                 90.0000
_cell_angle_beta                  90.0000
_cell_angle_gamma                 120.0000
loop_
_atom_site_label
_atom_site_type_symbol
_atom_site_fract_x
_atom_site_fract_y
_atom_site_fract_z
_atom_site_U_iso_or_equiv
_atom_site_adp_type
_atom_site_occupancy
C1     C     0.67882   0.97766   0.76039   0.00000  Uiso   1.00
C2     C     0.71828   0.96635   0.90966   0.00000  Uiso   1.00
C3     C     0.76204   0.94406   0.87832   0.00000  Uiso   1.00
C4     C     0.79326   0.93692   0.03340   0.00000  Uiso   1.00
C5     C     0.85635   0.91710   0.23784   0.00000  Uiso   1.00
C6     C     0.60703   0.93614   0.81743   0.00000  Uiso   1.00
C7     C     0.55725   0.88847   0.70853   0.00000  Uiso   1.00
C8     C     0.49483   0.85591   0.78596   0.00000  Uiso   1.00
C9     C     0.38519   0.78922   0.84715   0.00000  Uiso   1.00
C10    C     0.69583   0.04895   0.78101   0.00000  Uiso   1.00
C11    C     0.72070   0.09613   0.64146   0.00000  Uiso   1.00
C12    C     0.73302   0.15855   0.68822   0.00000  Uiso   1.00
C13    C     0.76126   0.26702   0.69284   0.00000  Uiso   1.00
C14    C     0.65647   0.00461   0.09153   0.00000  Uiso   1.00
C15    C     0.70613   0.98098   0.08953   0.00000  Uiso   1.00
C16    C     0.73730   0.97388   0.24470   0.00000  Uiso   1.00
C17    C     0.78110   0.95159   0.21359   0.00000  Uiso   1.00
C18    C     0.59489   0.95078   0.99729   0.00000  Uiso   1.00
C19    C     0.53252   0.91828   0.07490   0.00000  Uiso   1.00
C20    C     0.48266   0.87057   0.96615   0.00000  Uiso   1.00
C21    C     0.68369   0.06359   0.96087   0.00000  Uiso   1.00
C22    C     0.69597   0.12594   0.00784   0.00000  Uiso   1.00
C23    C     0.72085   0.17321   0.86840   0.00000  Uiso   1.00
H24    H     0.68827   0.96627   0.62036   0.00000  Uiso   1.00
H25    H     0.77142   0.93274   0.73911   0.00000  Uiso   1.00
H26    H     0.56667   0.87716   0.56934   0.00000  Uiso   1.00
H27    H     0.73009   0.08479   0.50229   0.00000  Uiso   1.00
H28    H     0.85823   0.90200   0.95010   0.00000  Uiso   1.00
H29    H     0.42649   0.78482   0.59209   0.00000  Uiso   1.00
H30    H     0.77110   0.22265   0.45071   0.00000  Uiso   1.00
H31    H     0.64701   0.01600   0.23157   0.00000  Uiso   1.00
H32    H     0.72790   0.98520   0.38387   0.00000  Uiso   1.00
H33    H     0.52314   0.92962   0.21409   0.00000  Uiso   1.00
H34    H     0.68656   0.13725   0.14704   0.00000  Uiso   1.00
H35    H     0.82290   0.94458   0.47341   0.00000  Uiso   1.00
H36    H     0.39116   0.82740   0.11539   0.00000  Uiso   1.00
H37    H     0.73577   0.26523   0.97402   0.00000  Uiso   1.00
O38    O     0.89450   0.90211   0.30091   0.00000  Uiso   1.00
O39    O     0.32808   0.74839   0.83121   0.00000  Uiso   1.00
O40    O     0.78020   0.32281   0.64572   0.00000  Uiso   1.00
N41    N     0.83882   0.91626   0.05235   0.00000  Uiso   1.00
N42    N     0.43518   0.80670   0.71765   0.00000  Uiso   1.00
N43    N     0.75734   0.21603   0.58545   0.00000  Uiso   1.00
N44    N     0.81982   0.93917   0.33394   0.00000  Uiso   1.00
N45    N     0.41617   0.82961   0.99924   0.00000  Uiso   1.00
N46    N     0.73833   0.23894   0.86704   0.00000  Uiso   1.00
C47    C     0.02234   0.70116   0.76039   0.00000  Uiso   1.00
C48    C     0.03365   0.75193   0.90966   0.00000  Uiso   1.00
C49    C     0.05594   0.81798   0.87832   0.00000  Uiso   1.00
C50    C     0.06308   0.85634   0.03340   0.00000  Uiso   1.00
C51    C     0.08290   0.93926   0.23784   0.00000  Uiso   1.00
C52    C     0.06386   0.67089   0.81743   0.00000  Uiso   1.00
C53    C     0.11153   0.66878   0.70853   0.00000  Uiso   1.00
C54    C     0.14409   0.63892   0.78596   0.00000  Uiso   1.00
C55    C     0.21078   0.59597   0.84715   0.00000  Uiso   1.00
C56    C     0.95105   0.64688   0.78101   0.00000  Uiso   1.00
C57    C     0.90387   0.62457   0.64146   0.00000  Uiso   1.00
C58    C     0.84145   0.57447   0.68822   0.00000  Uiso   1.00
C59    C     0.73298   0.49424   0.69284   0.00000  Uiso   1.00
C60    C     0.99539   0.65186   0.09153   0.00000  Uiso   1.00
C61    C     0.01902   0.72515   0.08953   0.00000  Uiso   1.00
C62    C     0.02612   0.76343   0.24470   0.00000  Uiso   1.00
C63    C     0.04841   0.82952   0.21359   0.00000  Uiso   1.00
C64    C     0.04922   0.64411   0.99729   0.00000  Uiso   1.00
C65    C     0.08172   0.61424   0.07490   0.00000  Uiso   1.00
C66    C     0.12943   0.61209   0.96615   0.00000  Uiso   1.00
C67    C     0.93641   0.62010   0.96087   0.00000  Uiso   1.00
C68    C     0.87406   0.57002   0.00784   0.00000  Uiso   1.00
C69    C     0.82679   0.54764   0.86840   0.00000  Uiso   1.00
H70    H     0.03373   0.72201   0.62036   0.00000  Uiso   1.00
H71    H     0.06726   0.83868   0.73911   0.00000  Uiso   1.00
H72    H     0.12284   0.68951   0.56934   0.00000  Uiso   1.00
H73    H     0.91521   0.64530   0.50229   0.00000  Uiso   1.00
H74    H     0.09800   0.95623   0.95010   0.00000  Uiso   1.00
H75    H     0.21518   0.64167   0.59209   0.00000  Uiso   1.00
H76    H     0.77735   0.54845   0.45071   0.00000  Uiso   1.00
H77    H     0.98400   0.63101   0.23157   0.00000  Uiso   1.00
H78    H     0.01480   0.74269   0.38387   0.00000  Uiso   1.00
H79    H     0.07038   0.59352   0.21409   0.00000  Uiso   1.00
H80    H     0.86275   0.54931   0.14704   0.00000  Uiso   1.00
H81    H     0.05542   0.87833   0.47341   0.00000  Uiso   1.00
H82    H     0.17260   0.56376   0.11539   0.00000  Uiso   1.00
H83    H     0.73477   0.47054   0.97402   0.00000  Uiso   1.00
O84    O     0.09789   0.99239   0.30091   0.00000  Uiso   1.00
O85    O     0.25161   0.57969   0.83121   0.00000  Uiso   1.00
O86    O     0.67719   0.45739   0.64572   0.00000  Uiso   1.00
N87    N     0.08374   0.92257   0.05235   0.00000  Uiso   1.00
N88    N     0.19330   0.62848   0.71765   0.00000  Uiso   1.00
N89    N     0.78397   0.54131   0.58545   0.00000  Uiso   1.00
N90    N     0.06083   0.88065   0.33394   0.00000  Uiso   1.00
N91    N     0.17039   0.58656   0.99924   0.00000  Uiso   1.00
N92    N     0.76106   0.49939   0.86704   0.00000  Uiso   1.00
C93    C     0.29884   0.32118   0.76039   0.00000  Uiso   1.00
C94    C     0.24807   0.28172   0.90966   0.00000  Uiso   1.00
C95    C     0.18202   0.23796   0.87832   0.00000  Uiso   1.00
C96    C     0.14366   0.20674   0.03340   0.00000  Uiso   1.00
C97    C     0.06074   0.14365   0.23784   0.00000  Uiso   1.00
C98    C     0.32911   0.39297   0.81743   0.00000  Uiso   1.00
C99    C     0.33122   0.44275   0.70853   0.00000  Uiso   1.00
C100   C     0.36108   0.50517   0.78596   0.00000  Uiso   1.00
C101   C     0.40403   0.61481   0.84715   0.00000  Uiso   1.00
C102   C     0.35312   0.30417   0.78101   0.00000  Uiso   1.00
C103   C     0.37543   0.27930   0.64146   0.00000  Uiso   1.00
C104   C     0.42553   0.26698   0.68822   0.00000  Uiso   1.00
C105   C     0.50576   0.23874   0.69284   0.00000  Uiso   1.00
C106   C     0.34814   0.34353   0.09153   0.00000  Uiso   1.00
C107   C     0.27485   0.29387   0.08953   0.00000  Uiso   1.00
C108   C     0.23657   0.26270   0.24470   0.00000  Uiso   1.00
C109   C     0.17048   0.21890   0.21359   0.00000  Uiso   1.00
C110   C     0.35589   0.40511   0.99729   0.00000  Uiso   1.00
C111   C     0.38576   0.46748   0.07490   0.00000  Uiso   1.00
C112   C     0.38791   0.51734   0.96615   0.00000  Uiso   1.00
C113   C     0.37990   0.31631   0.96087   0.00000  Uiso   1.00
C114   C     0.42998   0.30403   0.00784   0.00000  Uiso   1.00
C115   C     0.45236   0.27915   0.86840   0.00000  Uiso   1.00
H116   H     0.27799   0.31173   0.62036   0.00000  Uiso   1.00
H117   H     0.16132   0.22858   0.73911   0.00000  Uiso   1.00
H118   H     0.31049   0.43333   0.56934   0.00000  Uiso   1.00
H119   H     0.35470   0.26991   0.50229   0.00000  Uiso   1.00
H120   H     0.04377   0.14177   0.95010   0.00000  Uiso   1.00
H121   H     0.35833   0.57351   0.59209   0.00000  Uiso   1.00
H122   H     0.45155   0.22890   0.45071   0.00000  Uiso   1.00
H123   H     0.36899   0.35299   0.23157   0.00000  Uiso   1.00
H124   H     0.25731   0.27210   0.38387   0.00000  Uiso   1.00
H125   H     0.40648   0.47686   0.21409   0.00000  Uiso   1.00
H126   H     0.45069   0.31344   0.14704   0.00000  Uiso   1.00
H127   H     0.12167   0.17710   0.47341   0.00000  Uiso   1.00
H128   H     0.43624   0.60884   0.11539   0.00000  Uiso   1.00
H129   H     0.52946   0.26423   0.97402   0.00000  Uiso   1.00
O130   O     0.00761   0.10550   0.30091   0.00000  Uiso   1.00
O131   O     0.42031   0.67192   0.83121   0.00000  Uiso   1.00
O132   O     0.54261   0.21980   0.64572   0.00000  Uiso   1.00
N133   N     0.07743   0.16118   0.05235   0.00000  Uiso   1.00
N134   N     0.37152   0.56482   0.71765   0.00000  Uiso   1.00
N135   N     0.45869   0.24266   0.58545   0.00000  Uiso   1.00
N136   N     0.11935   0.18018   0.33394   0.00000  Uiso   1.00
N137   N     0.41344   0.58383   0.99924   0.00000  Uiso   1.00
N138   N     0.50061   0.26167   0.86704   0.00000  Uiso   1.00
C139   C     0.32118   0.02234   0.23961   0.00000  Uiso   1.00
C140   C     0.28172   0.03365   0.09034   0.00000  Uiso   1.00
C141   C     0.23796   0.05594   0.12168   0.00000  Uiso   1.00
C142   C     0.20674   0.06308   0.96660   0.00000  Uiso   1.00
C143   C     0.14365   0.08290   0.76216   0.00000  Uiso   1.00
C144   C     0.39297   0.06386   0.18257   0.00000  Uiso   1.00
C145   C     0.44275   0.11153   0.29147   0.00000  Uiso   1.00
C146   C     0.50517   0.14409   0.21404   0.00000  Uiso   1.00
C147   C     0.61481   0.21078   0.15285   0.00000  Uiso   1.00
C148   C     0.30417   0.95105   0.21899   0.00000  Uiso   1.00
C149   C     0.27930   0.90387   0.35854   0.00000  Uiso   1.00
C150   C     0.26698   0.84145   0.31178   0.00000  Uiso   1.00
C151   C     0.23874   0.73298   0.30716   0.00000  Uiso   1.00
C152   C     0.34353   0.99539   0.90847   0.00000  Uiso   1.00
C153   C     0.29387   0.01902   0.91047   0.00000  Uiso   1.00
C154   C     0.26270   0.02612   0.75530   0.00000  Uiso   1.00
C155   C     0.21890   0.04841   0.78641   0.00000  Uiso   1.00
C156   C     0.40511   0.04922   0.00271   0.00000  Uiso   1.00
C157   C     0.46748   0.08172   0.92510   0.00000  Uiso   1.00
C158   C     0.51734   0.12943   0.03385   0.00000  Uiso   1.00
C159   C     0.31631   0.93641   0.03913   0.00000  Uiso   1.00
C160   C     0.30403   0.87406   0.99216   0.00000  Uiso   1.00
C161   C     0.27915   0.82679   0.13160   0.00000  Uiso   1.00
H162   H     0.31173   0.03373   0.37964   0.00000  Uiso   1.00
H163   H     0.22858   0.06726   0.26089   0.00000  Uiso   1.00
H164   H     0.43333   0.12284   0.43066   0.00000  Uiso   1.00
H165   H     0.26991   0.91521   0.49771   0.00000  Uiso   1.00
H166   H     0.14177   0.09800   0.04990   0.00000  Uiso   1.00
H167   H     0.57351   0.21518   0.40791   0.00000  Uiso   1.00
H168   H     0.22890   0.77735   0.54929   0.00000  Uiso   1.00
H169   H     0.35299   0.98400   0.76843   0.00000  Uiso   1.00
H170   H     0.27210   0.01480   0.61613   0.00000  Uiso   1.00
H171   H     0.47686   0.07038   0.78591   0.00000  Uiso   1.00
H172   H     0.31344   0.86275   0.85296   0.00000  Uiso   1.00
H173   H     0.17710   0.05542   0.52659   0.00000  Uiso   1.00
H174   H     0.60884   0.17260   0.88461   0.00000  Uiso   1.00
H175   H     0.26423   0.73477   0.02598   0.00000  Uiso   1.00
O176   O     0.10550   0.09789   0.69909   0.00000  Uiso   1.00
O177   O     0.67192   0.25161   0.16879   0.00000  Uiso   1.00
O178   O     0.21980   0.67719   0.35428   0.00000  Uiso   1.00
N179   N     0.16118   0.08374   0.94765   0.00000  Uiso   1.00
N180   N     0.56482   0.19330   0.28235   0.00000  Uiso   1.00
N181   N     0.24266   0.78397   0.41455   0.00000  Uiso   1.00
N182   N     0.18018   0.06083   0.66606   0.00000  Uiso   1.00
N183   N     0.58383   0.17039   0.00076   0.00000  Uiso   1.00
N184   N     0.26167   0.76106   0.13296   0.00000  Uiso   1.00
C185   C     0.97766   0.29884   0.23961   0.00000  Uiso   1.00
C186   C     0.96635   0.24807   0.09034   0.00000  Uiso   1.00
C187   C     0.94406   0.18202   0.12168   0.00000  Uiso   1.00
C188   C     0.93692   0.14366   0.96660   0.00000  Uiso   1.00
C189   C     0.91710   0.06074   0.76216   0.00000  Uiso   1.00
C190   C     0.93614   0.32911   0.18257   0.00000  Uiso   1.00
C191   C     0.88847   0.33122   0.29147   0.00000  Uiso   1.00
C192   C     0.85591   0.36108   0.21404   0.00000  Uiso   1.00
C193   C     0.78922   0.40403   0.15285   0.00000  Uiso   1.00
C194   C     0.04895   0.35312   0.21899   0.00000  Uiso   1.00
C195   C     0.09613   0.37543   0.35854   0.00000  Uiso   1.00
C196   C     0.15855   0.42553   0.31178   0.00000  Uiso   1.00
C197   C     0.26702   0.50576   0.30716   0.00000  Uiso   1.00
C198   C     0.00461   0.34814   0.90847   0.00000  Uiso   1.00
C199   C     0.98098   0.27485   0.91047   0.00000  Uiso   1.00
C200   C     0.97388   0.23657   0.75530   0.00000  Uiso   1.00
C201   C     0.95159   0.17048   0.78641   0.00000  Uiso   1.00
C202   C     0.95078   0.35589   0.00271   0.00000  Uiso   1.00
C203   C     0.91828   0.38576   0.92510   0.00000  Uiso   1.00
C204   C     0.87057   0.38791   0.03385   0.00000  Uiso   1.00
C205   C     0.06359   0.37990   0.03913   0.00000  Uiso   1.00
C206   C     0.12594   0.42998   0.99216   0.00000  Uiso   1.00
C207   C     0.17321   0.45236   0.13160   0.00000  Uiso   1.00
H208   H     0.96627   0.27799   0.37964   0.00000  Uiso   1.00
H209   H     0.93274   0.16132   0.26089   0.00000  Uiso   1.00
H210   H     0.87716   0.31049   0.43066   0.00000  Uiso   1.00
H211   H     0.08479   0.35470   0.49771   0.00000  Uiso   1.00
H212   H     0.90200   0.04377   0.04990   0.00000  Uiso   1.00
H213   H     0.78482   0.35833   0.40791   0.00000  Uiso   1.00
H214   H     0.22265   0.45155   0.54929   0.00000  Uiso   1.00
H215   H     0.01600   0.36899   0.76843   0.00000  Uiso   1.00
H216   H     0.98520   0.25731   0.61613   0.00000  Uiso   1.00
H217   H     0.92962   0.40648   0.78591   0.00000  Uiso   1.00
H218   H     0.13725   0.45069   0.85296   0.00000  Uiso   1.00
H219   H     0.94458   0.12167   0.52659   0.00000  Uiso   1.00
H220   H     0.82740   0.43624   0.88461   0.00000  Uiso   1.00
H221   H     0.26523   0.52946   0.02598   0.00000  Uiso   1.00
O222   O     0.90211   0.00761   0.69909   0.00000  Uiso   1.00
O223   O     0.74839   0.42031   0.16879   0.00000  Uiso   1.00
O224   O     0.32281   0.54261   0.35428   0.00000  Uiso   1.00
N225   N     0.91626   0.07743   0.94765   0.00000  Uiso   1.00
N226   N     0.80670   0.37152   0.28235   0.00000  Uiso   1.00
N227   N     0.21603   0.45869   0.41455   0.00000  Uiso   1.00
N228   N     0.93917   0.11935   0.66606   0.00000  Uiso   1.00
N229   N     0.82961   0.41344   0.00076   0.00000  Uiso   1.00
N230   N     0.23894   0.50061   0.13296   0.00000  Uiso   1.00
C231   C     0.70116   0.67882   0.23961   0.00000  Uiso   1.00
C232   C     0.75193   0.71828   0.09034   0.00000  Uiso   1.00
C233   C     0.81798   0.76204   0.12168   0.00000  Uiso   1.00
C234   C     0.85634   0.79326   0.96660   0.00000  Uiso   1.00
C235   C     0.93926   0.85635   0.76216   0.00000  Uiso   1.00
C236   C     0.67089   0.60703   0.18257   0.00000  Uiso   1.00
C237   C     0.66878   0.55725   0.29147   0.00000  Uiso   1.00
C238   C     0.63892   0.49483   0.21404   0.00000  Uiso   1.00
C239   C     0.59597   0.38519   0.15285   0.00000  Uiso   1.00
C240   C     0.64688   0.69583   0.21899   0.00000  Uiso   1.00
C241   C     0.62457   0.72070   0.35854   0.00000  Uiso   1.00
C242   C     0.57447   0.73302   0.31178   0.00000  Uiso   1.00
C243   C     0.49424   0.76126   0.30716   0.00000  Uiso   1.00
C244   C     0.65186   0.65647   0.90847   0.00000  Uiso   1.00
C245   C     0.72515   0.70613   0.91047   0.00000  Uiso   1.00
C246   C     0.76343   0.73730   0.75530   0.00000  Uiso   1.00
C247   C     0.82952   0.78110   0.78641   0.00000  Uiso   1.00
C248   C     0.64411   0.59489   0.00271   0.00000  Uiso   1.00
C249   C     0.61424   0.53252   0.92510   0.00000  Uiso   1.00
C250   C     0.61209   0.48266   0.03385   0.00000  Uiso   1.00
C251   C     0.62010   0.68369   0.03913   0.00000  Uiso   1.00
C252   C     0.57002   0.69597   0.99216   0.00000  Uiso   1.00
C253   C     0.54764   0.72085   0.13160   0.00000  Uiso   1.00
H254   H     0.72201   0.68827   0.37964   0.00000  Uiso   1.00
H255   H     0.83868   0.77142   0.26089   0.00000  Uiso   1.00
H256   H     0.68951   0.56667   0.43066   0.00000  Uiso   1.00
H257   H     0.64530   0.73009   0.49771   0.00000  Uiso   1.00
H258   H     0.95623   0.85823   0.04990   0.00000  Uiso   1.00
H259   H     0.64167   0.42649   0.40791   0.00000  Uiso   1.00
H260   H     0.54845   0.77110   0.54929   0.00000  Uiso   1.00
H261   H     0.63101   0.64701   0.76843   0.00000  Uiso   1.00
H262   H     0.74269   0.72790   0.61613   0.00000  Uiso   1.00
H263   H     0.59352   0.52314   0.78591   0.00000  Uiso   1.00
H264   H     0.54931   0.68656   0.85296   0.00000  Uiso   1.00
H265   H     0.87833   0.82290   0.52659   0.00000  Uiso   1.00
H266   H     0.56376   0.39116   0.88461   0.00000  Uiso   1.00
H267   H     0.47054   0.73577   0.02598   0.00000  Uiso   1.00
O268   O     0.99239   0.89450   0.69909   0.00000  Uiso   1.00
O269   O     0.57969   0.32808   0.16879   0.00000  Uiso   1.00
O270   O     0.45739   0.78020   0.35428   0.00000  Uiso   1.00
N271   N     0.92257   0.83882   0.94765   0.00000  Uiso   1.00
N272   N     0.62848   0.43518   0.28235   0.00000  Uiso   1.00
N273   N     0.54131   0.75734   0.41455   0.00000  Uiso   1.00
N274   N     0.88065   0.81982   0.66606   0.00000  Uiso   1.00
N275   N     0.58656   0.41617   0.00076   0.00000  Uiso   1.00
N276   N     0.49939   0.73833   0.13296   0.00000  Uiso   1.00
