data_job_06372
_audit_creation_date              2018-12-19
_audit_creation_method            'Materials Studio'
_symmetry_space_group_name_H-M    'P1'
_symmetry_Int_Tables_number       1
_symmetry_cell_setting            triclinic
loop_
_symmetry_equiv_pos_as_xyz
  x,y,z
_cell_length_a                    16.7719
_cell_length_b                    16.1539
_cell_length_c                    15.9259
_cell_angle_alpha                 101.0160
_cell_angle_beta                  100.5600
_cell_angle_gamma                 101.0950
loop_
_atom_site_label
_atom_site_type_symbol
_atom_site_fract_x
_atom_site_fract_y
_atom_site_fract_z
_atom_site_U_iso_or_equiv
_atom_site_adp_type
_atom_site_occupancy
C1     C     0.55561   0.12638   0.69775   0.00000  Uiso   1.00
C2     C     0.52986   0.15621   0.61369   0.00000  Uiso   1.00
C3     C     0.56206   0.23648   0.59870   0.00000  Uiso   1.00
C4     C     0.53027   0.25125   0.51751   0.00000  Uiso   1.00
C5     C     0.49964   0.30721   0.39672   0.00000  Uiso   1.00
C6     C     0.47573   0.10036   0.72895   0.00000  Uiso   1.00
C7     C     0.46243   0.13367   0.81087   0.00000  Uiso   1.00
C8     C     0.38508   0.10143   0.82670   0.00000  Uiso   1.00
C9     C     0.27045   0.07064   0.88487   0.00000  Uiso   1.00
C10    C     0.58330   0.04273   0.67005   0.00000  Uiso   1.00
C11    C     0.66045   0.02757   0.70246   0.00000  Uiso   1.00
C12    C     0.67367   0.94678   0.66871   0.00000  Uiso   1.00
C13    C     0.72606   0.82651   0.63543   0.00000  Uiso   1.00
C14    C     0.44189   0.00988   0.58019   0.00000  Uiso   1.00
C15    C     0.46809   0.09293   0.54984   0.00000  Uiso   1.00
C16    C     0.43625   0.10758   0.46864   0.00000  Uiso   1.00
C17    C     0.46840   0.18786   0.45354   0.00000  Uiso   1.00
C18    C     0.41397   0.03709   0.66510   0.00000  Uiso   1.00
C19    C     0.33662   0.00478   0.68081   0.00000  Uiso   1.00
C20    C     0.32321   0.03803   0.76273   0.00000  Uiso   1.00
C21    C     0.52154   0.97945   0.60619   0.00000  Uiso   1.00
C22    C     0.53464   0.89867   0.57239   0.00000  Uiso   1.00
C23    C     0.61179   0.88339   0.60475   0.00000  Uiso   1.00
H24    H     0.60369   0.17564   0.74746   0.00000  Uiso   1.00
H25    H     0.60985   0.28544   0.64814   0.00000  Uiso   1.00
H26    H     0.51024   0.18264   0.86027   0.00000  Uiso   1.00
H27    H     0.70823   0.07655   0.75187   0.00000  Uiso   1.00
H28    H     0.58942   0.37926   0.50988   0.00000  Uiso   1.00
H29    H     0.37940   0.16249   0.95718   0.00000  Uiso   1.00
H30    H     0.79690   0.93878   0.72861   0.00000  Uiso   1.00
H31    H     0.39381   0.96061   0.53048   0.00000  Uiso   1.00
H32    H     0.38845   0.05860   0.41924   0.00000  Uiso   1.00
H33    H     0.28884   0.95580   0.63138   0.00000  Uiso   1.00
H34    H     0.48683   0.84972   0.52298   0.00000  Uiso   1.00
H35    H     0.40972   0.19515   0.32410   0.00000  Uiso   1.00
H36    H     0.19970   0.97838   0.77141   0.00000  Uiso   1.00
H37    H     0.61720   0.75467   0.54283   0.00000  Uiso   1.00
O38    O     0.49981   0.35556   0.34774   0.00000  Uiso   1.00
O39    O     0.22429   0.07115   0.93460   0.00000  Uiso   1.00
O40    O     0.77203   0.77766   0.63470   0.00000  Uiso   1.00
N41    N     0.54787   0.32248   0.48141   0.00000  Uiso   1.00
N42    N     0.35152   0.11982   0.89961   0.00000  Uiso   1.00
N43    N     0.74183   0.91066   0.68593   0.00000  Uiso   1.00
N44    N     0.45118   0.22341   0.38145   0.00000  Uiso   1.00
N45    N     0.25482   0.02075   0.79965   0.00000  Uiso   1.00
N46    N     0.64514   0.81160   0.58596   0.00000  Uiso   1.00
C47    C     0.69245   0.55555   0.12489   0.00000  Uiso   1.00
C48    C     0.61268   0.52956   0.15628   0.00000  Uiso   1.00
C49    C     0.59948   0.56305   0.23820   0.00000  Uiso   1.00
C50    C     0.52223   0.53078   0.25423   0.00000  Uiso   1.00
C51    C     0.40778   0.50005   0.31267   0.00000  Uiso   1.00
C52    C     0.72026   0.47193   0.09738   0.00000  Uiso   1.00
C53    C     0.79751   0.45697   0.12976   0.00000  Uiso   1.00
C54    C     0.81083   0.37619   0.09619   0.00000  Uiso   1.00
C55    C     0.86341   0.25601   0.06313   0.00000  Uiso   1.00
C56    C     0.66650   0.58507   0.04070   0.00000  Uiso   1.00
C57    C     0.69855   0.66524   0.02540   0.00000  Uiso   1.00
C58    C     0.66661   0.67971   0.94410   0.00000  Uiso   1.00
C59    C     0.63572   0.73520   0.82304   0.00000  Uiso   1.00
C60    C     0.57875   0.43869   0.00769   0.00000  Uiso   1.00
C61    C     0.55093   0.46608   0.09262   0.00000  Uiso   1.00
C62    C     0.47367   0.43376   0.10853   0.00000  Uiso   1.00
C63    C     0.46036   0.46720   0.19045   0.00000  Uiso   1.00
C64    C     0.65851   0.40845   0.03372   0.00000  Uiso   1.00
C65    C     0.67171   0.32768   0.00009   0.00000  Uiso   1.00
C66    C     0.74895   0.31260   0.03241   0.00000  Uiso   1.00
C67    C     0.60473   0.52160   0.97704   0.00000  Uiso   1.00
C68    C     0.57274   0.53595   0.89574   0.00000  Uiso   1.00
C69    C     0.60474   0.61612   0.88033   0.00000  Uiso   1.00
H70    H     0.74054   0.60496   0.17445   0.00000  Uiso   1.00
H71    H     0.64730   0.61217   0.28745   0.00000  Uiso   1.00
H72    H     0.84530   0.50611   0.17901   0.00000  Uiso   1.00
H73    H     0.74635   0.71434   0.07468   0.00000  Uiso   1.00
H74    H     0.51669   0.59214   0.38467   0.00000  Uiso   1.00
H75    H     0.93420   0.36852   0.15600   0.00000  Uiso   1.00
H76    H     0.72555   0.80762   0.93599   0.00000  Uiso   1.00
H77    H     0.53066   0.38927   0.95813   0.00000  Uiso   1.00
H78    H     0.42589   0.38464   0.05926   0.00000  Uiso   1.00
H79    H     0.62390   0.27858   0.95082   0.00000  Uiso   1.00
H80    H     0.52495   0.48681   0.84649   0.00000  Uiso   1.00
H81    H     0.33699   0.40746   0.19946   0.00000  Uiso   1.00
H82    H     0.75451   0.18384   0.97080   0.00000  Uiso   1.00
H83    H     0.54585   0.62295   0.75079   0.00000  Uiso   1.00
O84    O     0.36172   0.50062   0.36250   0.00000  Uiso   1.00
O85    O     0.90948   0.20725   0.06250   0.00000  Uiso   1.00
O86    O     0.63573   0.78335   0.77385   0.00000  Uiso   1.00
N87    N     0.48877   0.54932   0.32719   0.00000  Uiso   1.00
N88    N     0.87911   0.34025   0.11342   0.00000  Uiso   1.00
N89    N     0.68406   0.75077   0.90772   0.00000  Uiso   1.00
N90    N     0.39207   0.44995   0.22754   0.00000  Uiso   1.00
N91    N     0.78242   0.24088   0.01376   0.00000  Uiso   1.00
N92    N     0.58736   0.65139   0.80806   0.00000  Uiso   1.00
C93    C     0.12510   0.69594   0.55629   0.00000  Uiso   1.00
C94    C     0.15309   0.61243   0.52880   0.00000  Uiso   1.00
C95    C     0.23033   0.59757   0.56136   0.00000  Uiso   1.00
C96    C     0.24384   0.51690   0.52777   0.00000  Uiso   1.00
C97    C     0.29669   0.39689   0.49476   0.00000  Uiso   1.00
C98    C     0.09932   0.72558   0.47212   0.00000  Uiso   1.00
C99    C     0.13134   0.80586   0.45704   0.00000  Uiso   1.00
C100   C     0.09957   0.82043   0.37573   0.00000  Uiso   1.00
C101   C     0.06890   0.87611   0.25476   0.00000  Uiso   1.00
C102   C     0.04519   0.66974   0.58737   0.00000  Uiso   1.00
C103   C     0.03169   0.70309   0.66919   0.00000  Uiso   1.00
C104   C     0.95434   0.67066   0.68491   0.00000  Uiso   1.00
C105   C     0.83962   0.63965   0.74289   0.00000  Uiso   1.00
C106   C     0.01172   0.57908   0.43872   0.00000  Uiso   1.00
C107   C     0.09151   0.54896   0.46494   0.00000  Uiso   1.00
C108   C     0.10490   0.46828   0.43129   0.00000  Uiso   1.00
C109   C     0.18215   0.45330   0.46380   0.00000  Uiso   1.00
C110   C     0.03774   0.66211   0.40826   0.00000  Uiso   1.00
C111   C     0.00591   0.67657   0.32696   0.00000  Uiso   1.00
C112   C     0.03788   0.75684   0.31176   0.00000  Uiso   1.00
C113   C     0.98361   0.60627   0.52351   0.00000  Uiso   1.00
C114   C     0.90626   0.57379   0.53911   0.00000  Uiso   1.00
C115   C     0.89265   0.60707   0.62094   0.00000  Uiso   1.00
H116   H     0.17304   0.74536   0.60600   0.00000  Uiso   1.00
H117   H     0.27798   0.64671   0.61077   0.00000  Uiso   1.00
H118   H     0.17899   0.85497   0.50647   0.00000  Uiso   1.00
H119   H     0.07936   0.75220   0.71859   0.00000  Uiso   1.00
H120   H     0.36717   0.50936   0.58788   0.00000  Uiso   1.00
H121   H     0.15844   0.94849   0.36796   0.00000  Uiso   1.00
H122   H     0.94834   0.73180   0.81525   0.00000  Uiso   1.00
H123   H     0.96378   0.52967   0.38900   0.00000  Uiso   1.00
H124   H     0.05723   0.41918   0.38187   0.00000  Uiso   1.00
H125   H     0.95825   0.62743   0.27757   0.00000  Uiso   1.00
H126   H     0.85862   0.52467   0.48968   0.00000  Uiso   1.00
H127   H     0.18801   0.32469   0.40209   0.00000  Uiso   1.00
H128   H     0.97928   0.76382   0.18218   0.00000  Uiso   1.00
H129   H     0.76918   0.54712   0.62946   0.00000  Uiso   1.00
O130   O     0.34286   0.34824   0.49419   0.00000  Uiso   1.00
O131   O     0.06900   0.92436   0.20567   0.00000  Uiso   1.00
O132   O     0.79336   0.64007   0.79251   0.00000  Uiso   1.00
N133   N     0.31218   0.48105   0.54515   0.00000  Uiso   1.00
N134   N     0.11703   0.89161   0.33953   0.00000  Uiso   1.00
N135   N     0.92060   0.68904   0.75770   0.00000  Uiso   1.00
N136   N     0.21577   0.38168   0.44518   0.00000  Uiso   1.00
N137   N     0.02063   0.79223   0.23956   0.00000  Uiso   1.00
N138   N     0.82420   0.58966   0.65773   0.00000  Uiso   1.00
C139   C     0.05578   0.19666   0.62626   0.00000  Uiso   1.00
C140   C     0.02978   0.11376   0.65692   0.00000  Uiso   1.00
C141   C     0.06176   0.09940   0.73822   0.00000  Uiso   1.00
C142   C     0.02976   0.01924   0.75363   0.00000  Uiso   1.00
C143   C     0.99874   0.90018   0.81094   0.00000  Uiso   1.00
C144   C     0.97603   0.22690   0.60021   0.00000  Uiso   1.00
C145   C     0.96284   0.30769   0.63382   0.00000  Uiso   1.00
C146   C     0.88560   0.32277   0.60149   0.00000  Uiso   1.00
C147   C     0.77117   0.37940   0.57071   0.00000  Uiso   1.00
C148   C     0.08361   0.16925   0.54133   0.00000  Uiso   1.00
C149   C     0.16086   0.20157   0.52542   0.00000  Uiso   1.00
C150   C     0.17418   0.16813   0.44350   0.00000  Uiso   1.00
C151   C     0.22678   0.13524   0.32130   0.00000  Uiso   1.00
C152   C     0.94207   0.07981   0.50906   0.00000  Uiso   1.00
C153   C     0.96801   0.05029   0.59326   0.00000  Uiso   1.00
C154   C     0.93595   0.97012   0.60855   0.00000  Uiso   1.00
C155   C     0.96789   0.95565   0.68986   0.00000  Uiso   1.00
C156   C     0.91427   0.16343   0.53656   0.00000  Uiso   1.00
C157   C     0.83703   0.17840   0.50416   0.00000  Uiso   1.00
C158   C     0.82372   0.25919   0.53771   0.00000  Uiso   1.00
C159   C     0.02184   0.10578   0.47767   0.00000  Uiso   1.00
C160   C     0.03505   0.07228   0.39576   0.00000  Uiso   1.00
C161   C     0.11230   0.10454   0.37973   0.00000  Uiso   1.00
H162   H     0.10387   0.24608   0.67582   0.00000  Uiso   1.00
H163   H     0.10956   0.14855   0.78747   0.00000  Uiso   1.00
H164   H     0.01065   0.35680   0.68308   0.00000  Uiso   1.00
H165   H     0.20864   0.25069   0.57470   0.00000  Uiso   1.00
H166   H     0.08861   0.01243   0.88319   0.00000  Uiso   1.00
H167   H     0.88007   0.45155   0.66306   0.00000  Uiso   1.00
H168   H     0.29757   0.22781   0.43452   0.00000  Uiso   1.00
H169   H     0.89398   0.03039   0.45950   0.00000  Uiso   1.00
H170   H     0.88816   0.92101   0.55928   0.00000  Uiso   1.00
H171   H     0.78925   0.12927   0.45489   0.00000  Uiso   1.00
H172   H     0.98724   0.02316   0.34651   0.00000  Uiso   1.00
H173   H     0.90890   0.82776   0.69799   0.00000  Uiso   1.00
H174   H     0.70037   0.26689   0.47785   0.00000  Uiso   1.00
H175   H     0.11787   0.04314   0.24931   0.00000  Uiso   1.00
O176   O     0.99869   0.85205   0.86014   0.00000  Uiso   1.00
O177   O     0.72511   0.42817   0.57133   0.00000  Uiso   1.00
O178   O     0.27285   0.13462   0.27149   0.00000  Uiso   1.00
N179   N     0.04712   0.98397   0.82590   0.00000  Uiso   1.00
N180   N     0.85215   0.39452   0.62011   0.00000  Uiso   1.00
N181   N     0.24247   0.18536   0.40643   0.00000  Uiso   1.00
N182   N     0.95043   0.88460   0.72625   0.00000  Uiso   1.00
N183   N     0.75546   0.29515   0.52045   0.00000  Uiso   1.00
N184   N     0.14577   0.08599   0.30677   0.00000  Uiso   1.00
C185   C     0.19228   0.62501   0.05546   0.00000  Uiso   1.00
C186   C     0.11264   0.65545   0.02944   0.00000  Uiso   1.00
C187   C     0.09954   0.73622   0.06323   0.00000  Uiso   1.00
C188   C     0.02240   0.75151   0.03088   0.00000  Uiso   1.00
C189   C     0.90814   0.80841   0.00015   0.00000  Uiso   1.00
C190   C     0.22022   0.59779   0.97056   0.00000  Uiso   1.00
C191   C     0.29757   0.63008   0.95486   0.00000  Uiso   1.00
C192   C     0.31099   0.59681   0.87294   0.00000  Uiso   1.00
C193   C     0.36378   0.56414   0.75083   0.00000  Uiso   1.00
C194   C     0.16607   0.54197   0.08581   0.00000  Uiso   1.00
C195   C     0.19791   0.52731   0.16701   0.00000  Uiso   1.00
C196   C     0.16576   0.44704   0.18212   0.00000  Uiso   1.00
C197   C     0.13447   0.32771   0.23896   0.00000  Uiso   1.00
C198   C     0.07857   0.50851   0.93790   0.00000  Uiso   1.00
C199   C     0.05088   0.59216   0.96558   0.00000  Uiso   1.00
C200   C     0.97373   0.60733   0.93316   0.00000  Uiso   1.00
C201   C     0.96052   0.68811   0.96691   0.00000  Uiso   1.00
C202   C     0.15846   0.53451   0.90671   0.00000  Uiso   1.00
C203   C     0.17177   0.50118   0.82479   0.00000  Uiso   1.00
C204   C     0.24912   0.53341   0.80897   0.00000  Uiso   1.00
C205   C     0.10431   0.47869   0.02196   0.00000  Uiso   1.00
C206   C     0.07210   0.39842   0.03694   0.00000  Uiso   1.00
C207   C     0.10389   0.38365   0.11815   0.00000  Uiso   1.00
H208   H     0.24037   0.67428   0.10517   0.00000  Uiso   1.00
H209   H     0.14735   0.78518   0.11264   0.00000  Uiso   1.00
H210   H     0.34536   0.67904   0.00429   0.00000  Uiso   1.00
H211   H     0.24571   0.57630   0.21641   0.00000  Uiso   1.00
H212   H     0.01701   0.88024   0.09275   0.00000  Uiso   1.00
H213   H     0.43452   0.65642   0.86429   0.00000  Uiso   1.00
H214   H     0.22439   0.43976   0.31158   0.00000  Uiso   1.00
H215   H     0.03049   0.45924   0.88818   0.00000  Uiso   1.00
H216   H     0.92595   0.55834   0.88375   0.00000  Uiso   1.00
H217   H     0.12396   0.45221   0.77540   0.00000  Uiso   1.00
H218   H     0.02431   0.34946   0.98751   0.00000  Uiso   1.00
H219   H     0.83731   0.69614   0.90696   0.00000  Uiso   1.00
H220   H     0.25483   0.47231   0.67851   0.00000  Uiso   1.00
H221   H     0.04469   0.25566   0.12580   0.00000  Uiso   1.00
O222   O     0.86219   0.85727   0.00083   0.00000  Uiso   1.00
O223   O     0.40996   0.56361   0.70112   0.00000  Uiso   1.00
O224   O     0.13426   0.27937   0.28795   0.00000  Uiso   1.00
N225   N     0.98905   0.82331   0.04964   0.00000  Uiso   1.00
N226   N     0.37940   0.61406   0.83605   0.00000  Uiso   1.00
N227   N     0.18296   0.41149   0.25422   0.00000  Uiso   1.00
N228   N     0.89236   0.72424   0.94967   0.00000  Uiso   1.00
N229   N     0.28271   0.51499   0.73608   0.00000  Uiso   1.00
N230   N     0.08627   0.31243   0.15425   0.00000  Uiso   1.00
C231   C     0.62510   0.05620   0.19720   0.00000  Uiso   1.00
C232   C     0.65322   0.02900   0.11241   0.00000  Uiso   1.00
C233   C     0.73057   0.06147   0.09681   0.00000  Uiso   1.00
C234   C     0.74418   0.02818   0.01500   0.00000  Uiso   1.00
C235   C     0.79723   0.99557   0.89307   0.00000  Uiso   1.00
C236   C     0.59906   0.97318   0.22767   0.00000  Uiso   1.00
C237   C     0.63088   0.95874   0.30898   0.00000  Uiso   1.00
C238   C     0.59889   0.87847   0.32419   0.00000  Uiso   1.00
C239   C     0.56782   0.75922   0.38122   0.00000  Uiso   1.00
C240   C     0.54532   0.08633   0.17097   0.00000  Uiso   1.00
C241   C     0.53192   0.16701   0.20462   0.00000  Uiso   1.00
C242   C     0.45468   0.18199   0.17210   0.00000  Uiso   1.00
C243   C     0.34016   0.23842   0.14109   0.00000  Uiso   1.00
C244   C     0.51172   0.93934   0.07964   0.00000  Uiso   1.00
C245   C     0.59164   0.96552   0.04856   0.00000  Uiso   1.00
C246   C     0.60513   0.93217   0.96674   0.00000  Uiso   1.00
C247   C     0.68249   0.96459   0.95103   0.00000  Uiso   1.00
C248   C     0.53749   0.90971   0.16382   0.00000  Uiso   1.00
C249   C     0.50544   0.82944   0.17891   0.00000  Uiso   1.00
C250   C     0.53720   0.81488   0.26022   0.00000  Uiso   1.00
C251   C     0.48373   0.02285   0.10711   0.00000  Uiso   1.00
C252   C     0.40649   0.03771   0.07454   0.00000  Uiso   1.00
C253   C     0.39299   0.11840   0.10813   0.00000  Uiso   1.00
H254   H     0.67304   0.10561   0.24692   0.00000  Uiso   1.00
H255   H     0.77821   0.11059   0.14625   0.00000  Uiso   1.00
H256   H     0.67852   0.00788   0.35838   0.00000  Uiso   1.00
H257   H     0.57959   0.21611   0.25403   0.00000  Uiso   1.00
H258   H     0.86766   0.08809   0.00649   0.00000  Uiso   1.00
H259   H     0.65745   0.87152   0.45380   0.00000  Uiso   1.00
H260   H     0.44883   0.31063   0.23375   0.00000  Uiso   1.00
H261   H     0.46378   0.88991   0.02993   0.00000  Uiso   1.00
H262   H     0.55747   0.88305   0.91735   0.00000  Uiso   1.00
H263   H     0.45779   0.78034   0.12949   0.00000  Uiso   1.00
H264   H     0.35885   0.98857   0.02513   0.00000  Uiso   1.00
H265   H     0.68851   0.90341   0.82070   0.00000  Uiso   1.00
H266   H     0.47829   0.68684   0.26802   0.00000  Uiso   1.00
H267   H     0.26968   0.12595   0.04797   0.00000  Uiso   1.00
O268   O     0.84350   0.99510   0.84346   0.00000  Uiso   1.00
O269   O     0.56770   0.71099   0.43032   0.00000  Uiso   1.00
O270   O     0.29400   0.28708   0.14162   0.00000  Uiso   1.00
N271   N     0.81264   0.04558   0.97821   0.00000  Uiso   1.00
N272   N     0.61611   0.84309   0.39641   0.00000  Uiso   1.00
N273   N     0.42106   0.25361   0.19070   0.00000  Uiso   1.00
N274   N     0.71623   0.94620   0.87824   0.00000  Uiso   1.00
N275   N     0.51971   0.74372   0.29644   0.00000  Uiso   1.00
N276   N     0.32466   0.15424   0.09073   0.00000  Uiso   1.00
