data_job_06225
_audit_creation_date              2018-12-19
_audit_creation_method            'Materials Studio'
_symmetry_space_group_name_H-M    'P1'
_symmetry_Int_Tables_number       1
_symmetry_cell_setting            triclinic
loop_
_symmetry_equiv_pos_as_xyz
  x,y,z
_cell_length_a                    17.1105
_cell_length_b                    20.0118
_cell_length_c                    20.0481
_cell_angle_alpha                 112.4140
_cell_angle_beta                  73.4611
_cell_angle_gamma                 73.8343
loop_
_atom_site_label
_atom_site_type_symbol
_atom_site_fract_x
_atom_site_fract_y
_atom_site_fract_z
_atom_site_U_iso_or_equiv
_atom_site_adp_type
_atom_site_occupancy
C1     C     0.24903   0.56070   0.97291   0.00000  Uiso   1.00
C2     C     0.21838   0.64569   0.98582   0.00000  Uiso   1.00
C3     C     0.17468   0.71606   0.05961   0.00000  Uiso   1.00
C4     C     0.15222   0.78781   0.05867   0.00000  Uiso   1.00
C5     C     0.10146   0.91960   0.08968   0.00000  Uiso   1.00
C6     C     0.20426   0.52131   0.92454   0.00000  Uiso   1.00
C7     C     0.14869   0.48709   0.94680   0.00000  Uiso   1.00
C8     C     0.11435   0.45413   0.89427   0.00000  Uiso   1.00
C9     C     0.04172   0.39276   0.83012   0.00000  Uiso   1.00
C10    C     0.35037   0.51668   0.91733   0.00000  Uiso   1.00
C11    C     0.41767   0.47854   0.93352   0.00000  Uiso   1.00
C12    C     0.50635   0.44167   0.87490   0.00000  Uiso   1.00
C13    C     0.66058   0.37310   0.79956   0.00000  Uiso   1.00
C14    C     0.28686   0.56300   0.84003   0.00000  Uiso   1.00
C15    C     0.23892   0.64694   0.91363   0.00000  Uiso   1.00
C16    C     0.21653   0.71861   0.91258   0.00000  Uiso   1.00
C17    C     0.17281   0.78907   0.98636   0.00000  Uiso   1.00
C18    C     0.22480   0.52256   0.85236   0.00000  Uiso   1.00
C19    C     0.19054   0.48964   0.79978   0.00000  Uiso   1.00
C20    C     0.13493   0.45539   0.82196   0.00000  Uiso   1.00
C21    C     0.37092   0.51793   0.84515   0.00000  Uiso   1.00
C22    C     0.45951   0.48110   0.78649   0.00000  Uiso   1.00
C23    C     0.52693   0.44292   0.80259   0.00000  Uiso   1.00
H24    H     0.23304   0.55972   0.02911   0.00000  Uiso   1.00
H25    H     0.15879   0.71506   0.11546   0.00000  Uiso   1.00
H26    H     0.13281   0.48612   0.00266   0.00000  Uiso   1.00
H27    H     0.40174   0.47758   0.98938   0.00000  Uiso   1.00
H28    H     0.08550   0.88784   0.17936   0.00000  Uiso   1.00
H29    H     0.03075   0.40508   0.94151   0.00000  Uiso   1.00
H30    H     0.59785   0.38707   0.91350   0.00000  Uiso   1.00
H31    H     0.30285   0.56398   0.78383   0.00000  Uiso   1.00
H32    H     0.23243   0.71956   0.85672   0.00000  Uiso   1.00
H33    H     0.20645   0.49062   0.74392   0.00000  Uiso   1.00
H34    H     0.47538   0.48208   0.73064   0.00000  Uiso   1.00
H35    H     0.14527   0.89150   0.96936   0.00000  Uiso   1.00
H36    H     0.09053   0.40873   0.73151   0.00000  Uiso   1.00
H37    H     0.65762   0.39073   0.70350   0.00000  Uiso   1.00
O38    O     0.06778   0.99194   0.12673   0.00000  Uiso   1.00
O39    O     0.99597   0.35856   0.81468   0.00000  Uiso   1.00
O40    O     0.73998   0.33495   0.77794   0.00000  Uiso   1.00
N41    N     0.10925   0.86735   0.11993   0.00000  Uiso   1.00
N42    N     0.05805   0.41601   0.89756   0.00000  Uiso   1.00
N43    N     0.58823   0.39915   0.87137   0.00000  Uiso   1.00
N44    N     0.14141   0.86932   0.00693   0.00000  Uiso   1.00
N45    N     0.09021   0.41798   0.78456   0.00000  Uiso   1.00
N46    N     0.62040   0.40112   0.75837   0.00000  Uiso   1.00
C47    C     0.22182   0.02474   0.58918   0.00000  Uiso   1.00
C48    C     0.20382   0.01188   0.66129   0.00000  Uiso   1.00
C49    C     0.23356   0.93814   0.65786   0.00000  Uiso   1.00
C50    C     0.20998   0.93910   0.73057   0.00000  Uiso   1.00
C51    C     0.18983   0.90815   0.83136   0.00000  Uiso   1.00
C52    C     0.12906   0.07249   0.59819   0.00000  Uiso   1.00
C53    C     0.09596   0.04972   0.54170   0.00000  Uiso   1.00
C54    C     0.00945   0.10173   0.56130   0.00000  Uiso   1.00
C55    C     0.87326   0.16492   0.56410   0.00000  Uiso   1.00
C56    C     0.26761   0.08088   0.60073   0.00000  Uiso   1.00
C57    C     0.35100   0.06518   0.54638   0.00000  Uiso   1.00
C58    C     0.38114   0.12426   0.56811   0.00000  Uiso   1.00
C59    C     0.46007   0.20047   0.57487   0.00000  Uiso   1.00
C60    C     0.12704   0.15758   0.72441   0.00000  Uiso   1.00
C61    C     0.15233   0.08403   0.73474   0.00000  Uiso   1.00
C62    C     0.12870   0.08511   0.80748   0.00000  Uiso   1.00
C63    C     0.15841   0.01139   0.80416   0.00000  Uiso   1.00
C64    C     0.07758   0.14465   0.67164   0.00000  Uiso   1.00
C65    C     0.99110   0.19670   0.69132   0.00000  Uiso   1.00
C66    C     0.95788   0.17402   0.63488   0.00000  Uiso   1.00
C67    C     0.21614   0.15304   0.67419   0.00000  Uiso   1.00
C68    C     0.24614   0.21216   0.69600   0.00000  Uiso   1.00
C69    C     0.32956   0.19654   0.64170   0.00000  Uiso   1.00
H70    H     0.26189   0.96857   0.53199   0.00000  Uiso   1.00
H71    H     0.27340   0.88231   0.60100   0.00000  Uiso   1.00
H72    H     0.13582   0.99389   0.48486   0.00000  Uiso   1.00
H73    H     0.39082   0.00934   0.48954   0.00000  Uiso   1.00
H74    H     0.26342   0.81850   0.70990   0.00000  Uiso   1.00
H75    H     0.97335   0.05378   0.46501   0.00000  Uiso   1.00
H76    H     0.51107   0.08636   0.47487   0.00000  Uiso   1.00
H77    H     0.08696   0.21376   0.78160   0.00000  Uiso   1.00
H78    H     0.08886   0.14096   0.86431   0.00000  Uiso   1.00
H79    H     0.95129   0.25254   0.74817   0.00000  Uiso   1.00
H80    H     0.20629   0.26799   0.75285   0.00000  Uiso   1.00
H81    H     0.11364   0.02843   0.92362   0.00000  Uiso   1.00
H82    H     0.82357   0.26371   0.67872   0.00000  Uiso   1.00
H83    H     0.36129   0.29629   0.68859   0.00000  Uiso   1.00
O84    O     0.19292   0.87114   0.86666   0.00000  Uiso   1.00
O85    O     0.81236   0.17983   0.54536   0.00000  Uiso   1.00
O86    O     0.51784   0.22257   0.55831   0.00000  Uiso   1.00
N87    N     0.22792   0.87790   0.74885   0.00000  Uiso   1.00
N88    N     0.95672   0.09786   0.51989   0.00000  Uiso   1.00
N89    N     0.45943   0.12833   0.52911   0.00000  Uiso   1.00
N90    N     0.14733   0.99086   0.86385   0.00000  Uiso   1.00
N91    N     0.87613   0.21082   0.63489   0.00000  Uiso   1.00
N92    N     0.37884   0.24129   0.64411   0.00000  Uiso   1.00
C93    C     0.81101   0.41154   0.43647   0.00000  Uiso   1.00
C94    C     0.86499   0.33945   0.35147   0.00000  Uiso   1.00
C95    C     0.89150   0.34289   0.28114   0.00000  Uiso   1.00
C96    C     0.94047   0.27018   0.20937   0.00000  Uiso   1.00
C97    C     0.02096   0.16941   0.07760   0.00000  Uiso   1.00
C98    C     0.72732   0.40193   0.47524   0.00000  Uiso   1.00
C99    C     0.63807   0.45792   0.50898   0.00000  Uiso   1.00
C100   C     0.57115   0.43782   0.54141   0.00000  Uiso   1.00
C101   C     0.43790   0.43408   0.60183   0.00000  Uiso   1.00
C102   C     0.86801   0.40057   0.48105   0.00000  Uiso   1.00
C103   C     0.89704   0.45542   0.51970   0.00000  Uiso   1.00
C104   C     0.94855   0.43418   0.55704   0.00000  Uiso   1.00
C105   C     0.03375   0.42832   0.62649   0.00000  Uiso   1.00
C106   C     0.85085   0.27630   0.43408   0.00000  Uiso   1.00
C107   C     0.88663   0.26598   0.35018   0.00000  Uiso   1.00
C108   C     0.93558   0.19325   0.27849   0.00000  Uiso   1.00
C109   C     0.96216   0.19659   0.20807   0.00000  Uiso   1.00
C110   C     0.74896   0.32847   0.47394   0.00000  Uiso   1.00
C111   C     0.68215   0.30828   0.50633   0.00000  Uiso   1.00
C112   C     0.59283   0.36422   0.54011   0.00000  Uiso   1.00
C113   C     0.88965   0.32711   0.47975   0.00000  Uiso   1.00
C114   C     0.94113   0.30578   0.51705   0.00000  Uiso   1.00
C115   C     0.97024   0.36058   0.55574   0.00000  Uiso   1.00
H116   H     0.79415   0.46874   0.43748   0.00000  Uiso   1.00
H117   H     0.87472   0.39976   0.28218   0.00000  Uiso   1.00
H118   H     0.62134   0.51477   0.50999   0.00000  Uiso   1.00
H119   H     0.88027   0.51226   0.52069   0.00000  Uiso   1.00
H120   H     0.97357   0.29087   0.10941   0.00000  Uiso   1.00
H121   H     0.43930   0.53340   0.58979   0.00000  Uiso   1.00
H122   H     0.98531   0.52812   0.61237   0.00000  Uiso   1.00
H123   H     0.86770   0.21910   0.43307   0.00000  Uiso   1.00
H124   H     0.95232   0.13641   0.27751   0.00000  Uiso   1.00
H125   H     0.69893   0.25143   0.50532   0.00000  Uiso   1.00
H126   H     0.95787   0.24892   0.51603   0.00000  Uiso   1.00
H127   H     0.03655   0.07714   0.10562   0.00000  Uiso   1.00
H128   H     0.50227   0.31967   0.58600   0.00000  Uiso   1.00
H129   H     0.04828   0.31438   0.60859   0.00000  Uiso   1.00
O130   O     0.05937   0.13412   0.00527   0.00000  Uiso   1.00
O131   O     0.35842   0.45231   0.63551   0.00000  Uiso   1.00
O132   O     0.07478   0.44538   0.66514   0.00000  Uiso   1.00
N133   N     0.97680   0.25192   0.12987   0.00000  Uiso   1.00
N134   N     0.47728   0.47866   0.57898   0.00000  Uiso   1.00
N135   N     0.98774   0.47374   0.60011   0.00000  Uiso   1.00
N136   N     0.01069   0.13691   0.12783   0.00000  Uiso   1.00
N137   N     0.51117   0.36365   0.57694   0.00000  Uiso   1.00
N138   N     0.02162   0.35872   0.59808   0.00000  Uiso   1.00
C139   C     0.75097   0.43930   0.02708   0.00000  Uiso   1.00
C140   C     0.78162   0.35431   0.01418   0.00000  Uiso   1.00
C141   C     0.82532   0.28394   0.94039   0.00000  Uiso   1.00
C142   C     0.84778   0.21219   0.94133   0.00000  Uiso   1.00
C143   C     0.89854   0.08040   0.91032   0.00000  Uiso   1.00
C144   C     0.79574   0.47869   0.07546   0.00000  Uiso   1.00
C145   C     0.85131   0.51291   0.05320   0.00000  Uiso   1.00
C146   C     0.88565   0.54587   0.10573   0.00000  Uiso   1.00
C147   C     0.95828   0.60724   0.16988   0.00000  Uiso   1.00
C148   C     0.64963   0.48332   0.08267   0.00000  Uiso   1.00
C149   C     0.58233   0.52146   0.06648   0.00000  Uiso   1.00
C150   C     0.49365   0.55833   0.12510   0.00000  Uiso   1.00
C151   C     0.33942   0.62690   0.20044   0.00000  Uiso   1.00
C152   C     0.71314   0.43700   0.15997   0.00000  Uiso   1.00
C153   C     0.76108   0.35306   0.08637   0.00000  Uiso   1.00
C154   C     0.78347   0.28139   0.08742   0.00000  Uiso   1.00
C155   C     0.82719   0.21093   0.01364   0.00000  Uiso   1.00
C156   C     0.77520   0.47744   0.14764   0.00000  Uiso   1.00
C157   C     0.80946   0.51036   0.20022   0.00000  Uiso   1.00
C158   C     0.86507   0.54461   0.17804   0.00000  Uiso   1.00
C159   C     0.62908   0.48207   0.15485   0.00000  Uiso   1.00
C160   C     0.54049   0.51890   0.21351   0.00000  Uiso   1.00
C161   C     0.47307   0.55708   0.19741   0.00000  Uiso   1.00
H162   H     0.76696   0.44028   0.97089   0.00000  Uiso   1.00
H163   H     0.84121   0.28494   0.88454   0.00000  Uiso   1.00
H164   H     0.86719   0.51388   0.99734   0.00000  Uiso   1.00
H165   H     0.59826   0.52242   0.01062   0.00000  Uiso   1.00
H166   H     0.91450   0.11216   0.82064   0.00000  Uiso   1.00
H167   H     0.96925   0.59492   0.05849   0.00000  Uiso   1.00
H168   H     0.40215   0.61293   0.08650   0.00000  Uiso   1.00
H169   H     0.69715   0.43602   0.21617   0.00000  Uiso   1.00
H170   H     0.76757   0.28044   0.14328   0.00000  Uiso   1.00
H171   H     0.79355   0.50938   0.25608   0.00000  Uiso   1.00
H172   H     0.52462   0.51792   0.26936   0.00000  Uiso   1.00
H173   H     0.85473   0.10850   0.03064   0.00000  Uiso   1.00
H174   H     0.90947   0.59127   0.26849   0.00000  Uiso   1.00
H175   H     0.34238   0.60927   0.29650   0.00000  Uiso   1.00
O176   O     0.93222   0.00806   0.87327   0.00000  Uiso   1.00
O177   O     0.00403   0.64144   0.18532   0.00000  Uiso   1.00
O178   O     0.26002   0.66505   0.22206   0.00000  Uiso   1.00
N179   N     0.89075   0.13265   0.88007   0.00000  Uiso   1.00
N180   N     0.94195   0.58399   0.10244   0.00000  Uiso   1.00
N181   N     0.41177   0.60085   0.12863   0.00000  Uiso   1.00
N182   N     0.85859   0.13068   0.99307   0.00000  Uiso   1.00
N183   N     0.90979   0.58202   0.21544   0.00000  Uiso   1.00
N184   N     0.37960   0.59888   0.24163   0.00000  Uiso   1.00
C185   C     0.77818   0.97526   0.41082   0.00000  Uiso   1.00
C186   C     0.79618   0.98812   0.33871   0.00000  Uiso   1.00
C187   C     0.76644   0.06186   0.34214   0.00000  Uiso   1.00
C188   C     0.79002   0.06090   0.26943   0.00000  Uiso   1.00
C189   C     0.81017   0.09185   0.16864   0.00000  Uiso   1.00
C190   C     0.87094   0.92750   0.40181   0.00000  Uiso   1.00
C191   C     0.90404   0.95028   0.45830   0.00000  Uiso   1.00
C192   C     0.99055   0.89827   0.43870   0.00000  Uiso   1.00
C193   C     0.12674   0.83508   0.43590   0.00000  Uiso   1.00
C194   C     0.73239   0.91912   0.39927   0.00000  Uiso   1.00
C195   C     0.64900   0.93482   0.45362   0.00000  Uiso   1.00
C196   C     0.61886   0.87574   0.43189   0.00000  Uiso   1.00
C197   C     0.53993   0.79953   0.42513   0.00000  Uiso   1.00
C198   C     0.87296   0.84241   0.27559   0.00000  Uiso   1.00
C199   C     0.84767   0.91597   0.26526   0.00000  Uiso   1.00
C200   C     0.87130   0.91489   0.19252   0.00000  Uiso   1.00
C201   C     0.84159   0.98861   0.19584   0.00000  Uiso   1.00
C202   C     0.92242   0.85535   0.32836   0.00000  Uiso   1.00
C203   C     0.00890   0.80330   0.30868   0.00000  Uiso   1.00
C204   C     0.04212   0.82598   0.36512   0.00000  Uiso   1.00
C205   C     0.78386   0.84696   0.32581   0.00000  Uiso   1.00
C206   C     0.75386   0.78784   0.30400   0.00000  Uiso   1.00
C207   C     0.67044   0.80346   0.35830   0.00000  Uiso   1.00
H208   H     0.73811   0.03143   0.46801   0.00000  Uiso   1.00
H209   H     0.72660   0.11769   0.39900   0.00000  Uiso   1.00
H210   H     0.86418   0.00611   0.51514   0.00000  Uiso   1.00
H211   H     0.60918   0.99066   0.51046   0.00000  Uiso   1.00
H212   H     0.73658   0.18150   0.29010   0.00000  Uiso   1.00
H213   H     0.02665   0.94622   0.53499   0.00000  Uiso   1.00
H214   H     0.48893   0.91364   0.52513   0.00000  Uiso   1.00
H215   H     0.91304   0.78624   0.21840   0.00000  Uiso   1.00
H216   H     0.91114   0.85904   0.13569   0.00000  Uiso   1.00
H217   H     0.04871   0.74746   0.25183   0.00000  Uiso   1.00
H218   H     0.79371   0.73201   0.24715   0.00000  Uiso   1.00
H219   H     0.88636   0.97157   0.07638   0.00000  Uiso   1.00
H220   H     0.17643   0.73629   0.32128   0.00000  Uiso   1.00
H221   H     0.63871   0.70371   0.31141   0.00000  Uiso   1.00
O222   O     0.80708   0.12886   0.13334   0.00000  Uiso   1.00
O223   O     0.18764   0.82017   0.45464   0.00000  Uiso   1.00
O224   O     0.48216   0.77743   0.44169   0.00000  Uiso   1.00
N225   N     0.77208   0.12210   0.25115   0.00000  Uiso   1.00
N226   N     0.04328   0.90214   0.48011   0.00000  Uiso   1.00
N227   N     0.54057   0.87167   0.47089   0.00000  Uiso   1.00
N228   N     0.85267   0.00914   0.13615   0.00000  Uiso   1.00
N229   N     0.12387   0.78918   0.36511   0.00000  Uiso   1.00
N230   N     0.62116   0.75871   0.35589   0.00000  Uiso   1.00
C231   C     0.18899   0.58846   0.56353   0.00000  Uiso   1.00
C232   C     0.13501   0.66055   0.64853   0.00000  Uiso   1.00
C233   C     0.10850   0.65711   0.71886   0.00000  Uiso   1.00
C234   C     0.05953   0.72982   0.79063   0.00000  Uiso   1.00
C235   C     0.97904   0.83059   0.92240   0.00000  Uiso   1.00
C236   C     0.27268   0.59807   0.52476   0.00000  Uiso   1.00
C237   C     0.36193   0.54208   0.49102   0.00000  Uiso   1.00
C238   C     0.42885   0.56218   0.45859   0.00000  Uiso   1.00
C239   C     0.56210   0.56592   0.39817   0.00000  Uiso   1.00
C240   C     0.13199   0.59943   0.51895   0.00000  Uiso   1.00
C241   C     0.10296   0.54458   0.48030   0.00000  Uiso   1.00
C242   C     0.05145   0.56582   0.44296   0.00000  Uiso   1.00
C243   C     0.96625   0.57168   0.37351   0.00000  Uiso   1.00
C244   C     0.14915   0.72370   0.56592   0.00000  Uiso   1.00
C245   C     0.11337   0.73402   0.64982   0.00000  Uiso   1.00
C246   C     0.06442   0.80675   0.72150   0.00000  Uiso   1.00
C247   C     0.03784   0.80341   0.79193   0.00000  Uiso   1.00
C248   C     0.25104   0.67153   0.52606   0.00000  Uiso   1.00
C249   C     0.31785   0.69172   0.49367   0.00000  Uiso   1.00
C250   C     0.40717   0.63578   0.45989   0.00000  Uiso   1.00
C251   C     0.11035   0.67289   0.52025   0.00000  Uiso   1.00
C252   C     0.05887   0.69422   0.48295   0.00000  Uiso   1.00
C253   C     0.02977   0.63942   0.44426   0.00000  Uiso   1.00
H254   H     0.20585   0.53126   0.56252   0.00000  Uiso   1.00
H255   H     0.12528   0.60024   0.71782   0.00000  Uiso   1.00
H256   H     0.37866   0.48523   0.49001   0.00000  Uiso   1.00
H257   H     0.11973   0.48774   0.47931   0.00000  Uiso   1.00
H258   H     0.02643   0.70913   0.89059   0.00000  Uiso   1.00
H259   H     0.56070   0.46660   0.41021   0.00000  Uiso   1.00
H260   H     0.01469   0.47188   0.38763   0.00000  Uiso   1.00
H261   H     0.13230   0.78090   0.56693   0.00000  Uiso   1.00
H262   H     0.04768   0.86359   0.72249   0.00000  Uiso   1.00
H263   H     0.30107   0.74857   0.49468   0.00000  Uiso   1.00
H264   H     0.04213   0.75107   0.48397   0.00000  Uiso   1.00
H265   H     0.96345   0.92286   0.89438   0.00000  Uiso   1.00
H266   H     0.49773   0.68033   0.41400   0.00000  Uiso   1.00
H267   H     0.95172   0.68562   0.39141   0.00000  Uiso   1.00
O268   O     0.94063   0.86588   0.99473   0.00000  Uiso   1.00
O269   O     0.64158   0.54769   0.36449   0.00000  Uiso   1.00
O270   O     0.92522   0.55462   0.33486   0.00000  Uiso   1.00
N271   N     0.02320   0.74808   0.87013   0.00000  Uiso   1.00
N272   N     0.52272   0.52134   0.42102   0.00000  Uiso   1.00
N273   N     0.01226   0.52626   0.39989   0.00000  Uiso   1.00
N274   N     0.98931   0.86309   0.87217   0.00000  Uiso   1.00
N275   N     0.48883   0.63635   0.42306   0.00000  Uiso   1.00
N276   N     0.97838   0.64128   0.40192   0.00000  Uiso   1.00
