data_job_05949
_audit_creation_date              2018-12-19
_audit_creation_method            'Materials Studio'
_symmetry_space_group_name_H-M    'P1'
_symmetry_Int_Tables_number       1
_symmetry_cell_setting            triclinic
loop_
_symmetry_equiv_pos_as_xyz
  x,y,z
_cell_length_a                    7.3191
_cell_length_b                    25.5220
_cell_length_c                    25.5310
_cell_angle_alpha                 60.8640
_cell_angle_beta                  84.8022
_cell_angle_gamma                 95.1938
loop_
_atom_site_label
_atom_site_type_symbol
_atom_site_fract_x
_atom_site_fract_y
_atom_site_fract_z
_atom_site_U_iso_or_equiv
_atom_site_adp_type
_atom_site_occupancy
C1     C     0.25548   0.38057   0.89954   0.00000  Uiso   1.00
C2     C     0.34196   0.38553   0.84036   0.00000  Uiso   1.00
C3     C     0.25041   0.39505   0.79189   0.00000  Uiso   1.00
C4     C     0.35400   0.39822   0.74183   0.00000  Uiso   1.00
C5     C     0.45961   0.40684   0.65017   0.00000  Uiso   1.00
C6     C     0.28932   0.31955   0.95019   0.00000  Uiso   1.00
C7     C     0.15351   0.27359   0.99407   0.00000  Uiso   1.00
C8     C     0.21281   0.22122   0.03646   0.00000  Uiso   1.00
C9     C     0.23671   0.12740   0.11533   0.00000  Uiso   1.00
C10    C     0.37278   0.42887   0.90622   0.00000  Uiso   1.00
C11    C     0.30715   0.47482   0.91315   0.00000  Uiso   1.00
C12    C     0.43671   0.51447   0.91854   0.00000  Uiso   1.00
C13    C     0.59020   0.59040   0.92916   0.00000  Uiso   1.00
C14    C     0.60225   0.36927   0.89682   0.00000  Uiso   1.00
C15    C     0.53031   0.37940   0.83888   0.00000  Uiso   1.00
C16    C     0.63408   0.38255   0.78888   0.00000  Uiso   1.00
C17    C     0.54270   0.39208   0.74035   0.00000  Uiso   1.00
C18    C     0.47767   0.31341   0.94871   0.00000  Uiso   1.00
C19    C     0.53718   0.26109   0.99105   0.00000  Uiso   1.00
C20    C     0.40150   0.21507   0.03498   0.00000  Uiso   1.00
C21    C     0.56114   0.42273   0.90474   0.00000  Uiso   1.00
C22    C     0.69082   0.46232   0.91013   0.00000  Uiso   1.00
C23    C     0.62540   0.50833   0.91706   0.00000  Uiso   1.00
H24    H     0.10883   0.38534   0.90070   0.00000  Uiso   1.00
H25    H     0.10464   0.39980   0.79306   0.00000  Uiso   1.00
H26    H     0.00777   0.27836   0.99520   0.00000  Uiso   1.00
H27    H     0.16139   0.47955   0.91429   0.00000  Uiso   1.00
H28    H     0.18303   0.41310   0.67308   0.00000  Uiso   1.00
H29    H     0.97878   0.15704   0.09932   0.00000  Uiso   1.00
H30    H     0.30271   0.58130   0.92871   0.00000  Uiso   1.00
H31    H     0.74890   0.36449   0.89567   0.00000  Uiso   1.00
H32    H     0.77983   0.37780   0.78775   0.00000  Uiso   1.00
H33    H     0.68295   0.25636   0.98989   0.00000  Uiso   1.00
H34    H     0.83657   0.45756   0.90899   0.00000  Uiso   1.00
H35    H     0.73104   0.39524   0.66877   0.00000  Uiso   1.00
H36    H     0.52678   0.13918   0.09501   0.00000  Uiso   1.00
H37    H     0.85072   0.56345   0.92440   0.00000  Uiso   1.00
O38    O     0.46582   0.41328   0.60003   0.00000  Uiso   1.00
O39    O     0.19784   0.07735   0.15924   0.00000  Uiso   1.00
O40    O     0.62284   0.63398   0.93541   0.00000  Uiso   1.00
N41    N     0.30777   0.40708   0.68687   0.00000  Uiso   1.00
N42    N     0.11680   0.16768   0.08537   0.00000  Uiso   1.00
N43    N     0.41964   0.56432   0.92588   0.00000  Uiso   1.00
N44    N     0.60265   0.39747   0.68455   0.00000  Uiso   1.00
N45    N     0.41168   0.15807   0.08305   0.00000  Uiso   1.00
N46    N     0.71452   0.55471   0.92357   0.00000  Uiso   1.00
C47    C     0.87495   0.71999   0.38034   0.00000  Uiso   1.00
C48    C     0.95648   0.77411   0.38555   0.00000  Uiso   1.00
C49    C     0.85580   0.81321   0.39481   0.00000  Uiso   1.00
C50    C     0.95616   0.85998   0.39827   0.00000  Uiso   1.00
C51    C     0.05324   0.94291   0.40719   0.00000  Uiso   1.00
C52    C     0.96802   0.73022   0.31951   0.00000  Uiso   1.00
C53    C     0.87703   0.73240   0.27326   0.00000  Uiso   1.00
C54    C     0.98712   0.74221   0.22113   0.00000  Uiso   1.00
C55    C     0.10211   0.75695   0.12753   0.00000  Uiso   1.00
C56    C     0.94519   0.66493   0.42888   0.00000  Uiso   1.00
C57    C     0.83502   0.61220   0.47457   0.00000  Uiso   1.00
C58    C     0.92590   0.56704   0.51451   0.00000  Uiso   1.00
C59    C     0.00545   0.48040   0.59071   0.00000  Uiso   1.00
C60    C     0.23223   0.73352   0.37001   0.00000  Uiso   1.00
C61    C     0.15054   0.78145   0.37994   0.00000  Uiso   1.00
C62    C     0.25109   0.82817   0.38339   0.00000  Uiso   1.00
C63    C     0.15057   0.86734   0.39266   0.00000  Uiso   1.00
C64    C     0.16208   0.73756   0.31390   0.00000  Uiso   1.00
C65    C     0.27232   0.74736   0.26183   0.00000  Uiso   1.00
C66    C     0.18153   0.74957   0.21551   0.00000  Uiso   1.00
C67    C     0.13926   0.67227   0.42327   0.00000  Uiso   1.00
C68    C     0.23032   0.62717   0.46314   0.00000  Uiso   1.00
C69    C     0.12031   0.57440   0.50889   0.00000  Uiso   1.00
H70    H     0.72387   0.71427   0.38471   0.00000  Uiso   1.00
H71    H     0.70561   0.80751   0.39915   0.00000  Uiso   1.00
H72    H     0.72685   0.72671   0.27761   0.00000  Uiso   1.00
H73    H     0.68485   0.60654   0.47889   0.00000  Uiso   1.00
H74    H     0.77097   0.91414   0.41266   0.00000  Uiso   1.00
H75    H     0.81575   0.74374   0.15641   0.00000  Uiso   1.00
H76    H     0.72717   0.49033   0.58085   0.00000  Uiso   1.00
H77    H     0.38332   0.73924   0.36565   0.00000  Uiso   1.00
H78    H     0.40126   0.83385   0.37905   0.00000  Uiso   1.00
H79    H     0.42249   0.75304   0.25751   0.00000  Uiso   1.00
H80    H     0.38049   0.63287   0.45879   0.00000  Uiso   1.00
H81    H     0.33558   0.93552   0.39635   0.00000  Uiso   1.00
H82    H     0.38035   0.76511   0.14009   0.00000  Uiso   1.00
H83    H     0.29179   0.51170   0.56453   0.00000  Uiso   1.00
O84    O     0.05318   0.98663   0.41364   0.00000  Uiso   1.00
O85    O     0.11192   0.76305   0.07746   0.00000  Uiso   1.00
O86    O     0.99572   0.43059   0.63430   0.00000  Uiso   1.00
N87    N     0.90139   0.90618   0.40700   0.00000  Uiso   1.00
N88    N     0.94325   0.74687   0.16741   0.00000  Uiso   1.00
N89    N     0.86044   0.50995   0.56421   0.00000  Uiso   1.00
N90    N     0.20520   0.91768   0.39822   0.00000  Uiso   1.00
N91    N     0.24706   0.75838   0.15863   0.00000  Uiso   1.00
N92    N     0.16426   0.52145   0.55543   0.00000  Uiso   1.00
C93    C     0.15441   0.89974   0.71982   0.00000  Uiso   1.00
C94    C     0.18327   0.84038   0.77406   0.00000  Uiso   1.00
C95    C     0.04476   0.79222   0.81281   0.00000  Uiso   1.00
C96    C     0.09957   0.74193   0.85977   0.00000  Uiso   1.00
C97    C     0.11598   0.65007   0.94282   0.00000  Uiso   1.00
C98    C     0.23742   0.95025   0.73029   0.00000  Uiso   1.00
C99    C     0.14442   0.99446   0.73223   0.00000  Uiso   1.00
C100   C     0.24482   0.03666   0.74234   0.00000  Uiso   1.00
C101   C     0.34533   0.11540   0.75738   0.00000  Uiso   1.00
C102   C     0.27805   0.90608   0.66503   0.00000  Uiso   1.00
C103   C     0.21924   0.91317   0.61209   0.00000  Uiso   1.00
C104   C     0.35386   0.91819   0.56724   0.00000  Uiso   1.00
C105   C     0.51746   0.92836   0.48097   0.00000  Uiso   1.00
C106   C     0.49808   0.89607   0.73430   0.00000  Uiso   1.00
C107   C     0.36994   0.83839   0.78193   0.00000  Uiso   1.00
C108   C     0.42498   0.78816   0.82884   0.00000  Uiso   1.00
C109   C     0.28657   0.73993   0.86765   0.00000  Uiso   1.00
C110   C     0.42407   0.94826   0.73816   0.00000  Uiso   1.00
C111   C     0.52464   0.99040   0.74826   0.00000  Uiso   1.00
C112   C     0.43183   0.03466   0.75022   0.00000  Uiso   1.00
C113   C     0.46472   0.90408   0.67290   0.00000  Uiso   1.00
C114   C     0.59946   0.90910   0.62812   0.00000  Uiso   1.00
C115   C     0.54086   0.91620   0.57513   0.00000  Uiso   1.00
H116   H     0.00909   0.90130   0.71369   0.00000  Uiso   1.00
H117   H     0.90031   0.79378   0.80671   0.00000  Uiso   1.00
H118   H     0.99997   0.99600   0.72614   0.00000  Uiso   1.00
H119   H     0.07478   0.91471   0.60602   0.00000  Uiso   1.00
H120   H     0.86202   0.67371   0.91332   0.00000  Uiso   1.00
H121   H     0.07218   0.10010   0.74341   0.00000  Uiso   1.00
H122   H     0.22992   0.92870   0.49011   0.00000  Uiso   1.00
H123   H     0.64341   0.89452   0.74043   0.00000  Uiso   1.00
H124   H     0.56944   0.78663   0.83491   0.00000  Uiso   1.00
H125   H     0.66910   0.98884   0.75434   0.00000  Uiso   1.00
H126   H     0.74390   0.90756   0.63422   0.00000  Uiso   1.00
H127   H     0.40511   0.66791   0.93622   0.00000  Uiso   1.00
H128   H     0.61527   0.09430   0.76629   0.00000  Uiso   1.00
H129   H     0.77301   0.92290   0.51301   0.00000  Uiso   1.00
O130   O     0.07346   0.59997   0.98646   0.00000  Uiso   1.00
O131   O     0.34918   0.15938   0.76352   0.00000  Uiso   1.00
O132   O     0.55612   0.93450   0.43121   0.00000  Uiso   1.00
N133   N    -0.00000   0.68715   0.90574   0.00000  Uiso   1.00
N134   N     0.19647   0.08579   0.74688   0.00000  Uiso   1.00
N135   N     0.34395   0.92556   0.51007   0.00000  Uiso   1.00
N136   N     0.29223   0.68402   0.91805   0.00000  Uiso   1.00
N137   N     0.48870   0.08267   0.75920   0.00000  Uiso   1.00
N138   N     0.63618   0.92244   0.52239   0.00000  Uiso   1.00
C139   C     0.74452   0.61943   0.10046   0.00000  Uiso   1.00
C140   C     0.65804   0.61446   0.15964   0.00000  Uiso   1.00
C141   C     0.74959   0.60494   0.20811   0.00000  Uiso   1.00
C142   C     0.64600   0.60178   0.25817   0.00000  Uiso   1.00
C143   C     0.54039   0.59316   0.34983   0.00000  Uiso   1.00
C144   C     0.71068   0.68045   0.04981   0.00000  Uiso   1.00
C145   C     0.84649   0.72641   0.00593   0.00000  Uiso   1.00
C146   C     0.78719   0.77878   0.96354   0.00000  Uiso   1.00
C147   C     0.76329   0.87260   0.88467   0.00000  Uiso   1.00
C148   C     0.62721   0.57113   0.09378   0.00000  Uiso   1.00
C149   C     0.69285   0.52518   0.08685   0.00000  Uiso   1.00
C150   C     0.56329   0.48552   0.08146   0.00000  Uiso   1.00
C151   C     0.40980   0.40960   0.07084   0.00000  Uiso   1.00
C152   C     0.39775   0.63073   0.10318   0.00000  Uiso   1.00
C153   C     0.46969   0.62060   0.16112   0.00000  Uiso   1.00
C154   C     0.36592   0.61745   0.21112   0.00000  Uiso   1.00
C155   C     0.45730   0.60792   0.25965   0.00000  Uiso   1.00
C156   C     0.52233   0.68659   0.05129   0.00000  Uiso   1.00
C157   C     0.46282   0.73891   0.00895   0.00000  Uiso   1.00
C158   C     0.59850   0.78493   0.96502   0.00000  Uiso   1.00
C159   C     0.43886   0.57727   0.09526   0.00000  Uiso   1.00
C160   C     0.30918   0.53768   0.08987   0.00000  Uiso   1.00
C161   C     0.37460   0.49167   0.08294   0.00000  Uiso   1.00
H162   H     0.89117   0.61466   0.09930   0.00000  Uiso   1.00
H163   H     0.89536   0.60020   0.20694   0.00000  Uiso   1.00
H164   H     0.99223   0.72164   0.00480   0.00000  Uiso   1.00
H165   H     0.83861   0.52045   0.08571   0.00000  Uiso   1.00
H166   H     0.81696   0.58690   0.32692   0.00000  Uiso   1.00
H167   H     0.02122   0.84296   0.90069   0.00000  Uiso   1.00
H168   H     0.69729   0.41870   0.07129   0.00000  Uiso   1.00
H169   H     0.25110   0.63551   0.10433   0.00000  Uiso   1.00
H170   H     0.22017   0.62220   0.21225   0.00000  Uiso   1.00
H171   H     0.31705   0.74364   0.01011   0.00000  Uiso   1.00
H172   H     0.16343   0.54244   0.09102   0.00000  Uiso   1.00
H173   H     0.26896   0.60476   0.33124   0.00000  Uiso   1.00
H174   H     0.47322   0.86082   0.90499   0.00000  Uiso   1.00
H175   H     0.14928   0.43655   0.07560   0.00000  Uiso   1.00
O176   O     0.53418   0.58672   0.39998   0.00000  Uiso   1.00
O177   O     0.80216   0.92265   0.84076   0.00000  Uiso   1.00
O178   O     0.37716   0.36602   0.06459   0.00000  Uiso   1.00
N179   N     0.69223   0.59292   0.31313   0.00000  Uiso   1.00
N180   N     0.88320   0.83232   0.91463   0.00000  Uiso   1.00
N181   N     0.58036   0.43568   0.07412   0.00000  Uiso   1.00
N182   N     0.39735   0.60253   0.31545   0.00000  Uiso   1.00
N183   N     0.58832   0.84193   0.91695   0.00000  Uiso   1.00
N184   N     0.28548   0.44529   0.07644   0.00000  Uiso   1.00
C185   C     0.12505   0.28001   0.61966   0.00000  Uiso   1.00
C186   C     0.04352   0.22589   0.61445   0.00000  Uiso   1.00
C187   C     0.14420   0.18679   0.60519   0.00000  Uiso   1.00
C188   C     0.04384   0.14002   0.60173   0.00000  Uiso   1.00
C189   C     0.94676   0.05709   0.59281   0.00000  Uiso   1.00
C190   C     0.03198   0.26978   0.68049   0.00000  Uiso   1.00
C191   C     0.12297   0.26760   0.72674   0.00000  Uiso   1.00
C192   C     0.01288   0.25779   0.77887   0.00000  Uiso   1.00
C193   C     0.89789   0.24305   0.87247   0.00000  Uiso   1.00
C194   C     0.05481   0.33507   0.57112   0.00000  Uiso   1.00
C195   C     0.16498   0.38780   0.52543   0.00000  Uiso   1.00
C196   C     0.07410   0.43296   0.48549   0.00000  Uiso   1.00
C197   C     0.99455   0.51960   0.40929   0.00000  Uiso   1.00
C198   C     0.76777   0.26648   0.62999   0.00000  Uiso   1.00
C199   C     0.84946   0.21854   0.62006   0.00000  Uiso   1.00
C200   C     0.74891   0.17183   0.61661   0.00000  Uiso   1.00
C201   C     0.84943   0.13266   0.60734   0.00000  Uiso   1.00
C202   C     0.83792   0.26244   0.68610   0.00000  Uiso   1.00
C203   C     0.72768   0.25264   0.73817   0.00000  Uiso   1.00
C204   C     0.81847   0.25043   0.78449   0.00000  Uiso   1.00
C205   C     0.86074   0.32773   0.57673   0.00000  Uiso   1.00
C206   C     0.76968   0.37283   0.53686   0.00000  Uiso   1.00
C207   C     0.87969   0.42560   0.49111   0.00000  Uiso   1.00
H208   H     0.27613   0.28573   0.61530   0.00000  Uiso   1.00
H209   H     0.29439   0.19249   0.60085   0.00000  Uiso   1.00
H210   H     0.27314   0.27329   0.72239   0.00000  Uiso   1.00
H211   H     0.31515   0.39346   0.52111   0.00000  Uiso   1.00
H212   H     0.22903   0.08586   0.58734   0.00000  Uiso   1.00
H213   H     0.18425   0.25626   0.84359   0.00000  Uiso   1.00
H214   H     0.27283   0.50967   0.41915   0.00000  Uiso   1.00
H215   H     0.61668   0.26076   0.63435   0.00000  Uiso   1.00
H216   H     0.59874   0.16615   0.62095   0.00000  Uiso   1.00
H217   H     0.57750   0.24696   0.74249   0.00000  Uiso   1.00
H218   H     0.61951   0.36713   0.54121   0.00000  Uiso   1.00
H219   H     0.66442   0.06448   0.60365   0.00000  Uiso   1.00
H220   H     0.61965   0.23489   0.85991   0.00000  Uiso   1.00
H221   H     0.70821   0.48830   0.43547   0.00000  Uiso   1.00
O222   O     0.94682   0.01337   0.58636   0.00000  Uiso   1.00
O223   O     0.88808   0.23695   0.92254   0.00000  Uiso   1.00
O224   O     0.00428   0.56941   0.36570   0.00000  Uiso   1.00
N225   N     0.09861   0.09382   0.59300   0.00000  Uiso   1.00
N226   N     0.05675   0.25313   0.83259   0.00000  Uiso   1.00
N227   N     0.13956   0.49005   0.43579   0.00000  Uiso   1.00
N228   N     0.79480   0.08232   0.60178   0.00000  Uiso   1.00
N229   N     0.75294   0.24162   0.84137   0.00000  Uiso   1.00
N230   N     0.83574   0.47855   0.44457   0.00000  Uiso   1.00
C231   C     0.84559   0.10026   0.28018   0.00000  Uiso   1.00
C232   C     0.81673   0.15962   0.22594   0.00000  Uiso   1.00
C233   C     0.95524   0.20778   0.18719   0.00000  Uiso   1.00
C234   C     0.90043   0.25807   0.14023   0.00000  Uiso   1.00
C235   C     0.88402   0.34992   0.05718   0.00000  Uiso   1.00
C236   C     0.76258   0.04975   0.26971   0.00000  Uiso   1.00
C237   C     0.85558   0.00554   0.26777   0.00000  Uiso   1.00
C238   C     0.75518   0.96334   0.25767   0.00000  Uiso   1.00
C239   C     0.65467   0.88460   0.24262   0.00000  Uiso   1.00
C240   C     0.72195   0.09392   0.33497   0.00000  Uiso   1.00
C241   C     0.78076   0.08683   0.38791   0.00000  Uiso   1.00
C242   C     0.64614   0.08181   0.43276   0.00000  Uiso   1.00
C243   C     0.48254   0.07164   0.51903   0.00000  Uiso   1.00
C244   C     0.50192   0.10393   0.26570   0.00000  Uiso   1.00
C245   C     0.63006   0.16161   0.21807   0.00000  Uiso   1.00
C246   C     0.57502   0.21184   0.17116   0.00000  Uiso   1.00
C247   C     0.71343   0.26007   0.13235   0.00000  Uiso   1.00
C248   C     0.57593   0.05174   0.26184   0.00000  Uiso   1.00
C249   C     0.47536   0.00960   0.25174   0.00000  Uiso   1.00
C250   C     0.56817   0.96534   0.24978   0.00000  Uiso   1.00
C251   C     0.53528   0.09592   0.32710   0.00000  Uiso   1.00
C252   C     0.40054   0.09090   0.37188   0.00000  Uiso   1.00
C253   C     0.45913   0.08380   0.42487   0.00000  Uiso   1.00
H254   H     0.99091   0.09870   0.28631   0.00000  Uiso   1.00
H255   H     0.09969   0.20622   0.19329   0.00000  Uiso   1.00
H256   H     0.00003   0.00400   0.27387   0.00000  Uiso   1.00
H257   H     0.92522   0.08529   0.39398   0.00000  Uiso   1.00
H258   H     0.13798   0.32629   0.08668   0.00000  Uiso   1.00
H259   H     0.92782   0.89990   0.25660   0.00000  Uiso   1.00
H260   H     0.77008   0.07130   0.50989   0.00000  Uiso   1.00
H261   H     0.35659   0.10548   0.25957   0.00000  Uiso   1.00
H262   H     0.43056   0.21337   0.16509   0.00000  Uiso   1.00
H263   H     0.33090   0.01116   0.24566   0.00000  Uiso   1.00
H264   H     0.25610   0.09244   0.36578   0.00000  Uiso   1.00
H265   H     0.59488   0.33209   0.06378   0.00000  Uiso   1.00
H266   H     0.38473   0.90570   0.23371   0.00000  Uiso   1.00
H267   H     0.22699   0.07710   0.48699   0.00000  Uiso   1.00
O268   O     0.92654   0.40003   0.01354   0.00000  Uiso   1.00
O269   O     0.65082   0.84062   0.23648   0.00000  Uiso   1.00
O270   O     0.44387   0.06550   0.56879   0.00000  Uiso   1.00
N271   N     0.00000   0.31285   0.09426   0.00000  Uiso   1.00
N272   N     0.80353   0.91421   0.25312   0.00000  Uiso   1.00
N273   N     0.65605   0.07444   0.48993   0.00000  Uiso   1.00
N274   N     0.70777   0.31598   0.08195   0.00000  Uiso   1.00
N275   N     0.51130   0.91733   0.24080   0.00000  Uiso   1.00
N276   N     0.36382   0.07756   0.47761   0.00000  Uiso   1.00
