data_job_06306
_audit_creation_date              2018-12-19
_audit_creation_method            'Materials Studio'
_symmetry_space_group_name_H-M    'P1'
_symmetry_Int_Tables_number       1
_symmetry_cell_setting            triclinic
loop_
_symmetry_equiv_pos_as_xyz
  x,y,z
_cell_length_a                    18.0452
_cell_length_b                    18.2146
_cell_length_c                    21.8590
_cell_angle_alpha                 67.4203
_cell_angle_beta                  65.9435
_cell_angle_gamma                 60.6996
loop_
_atom_site_label
_atom_site_type_symbol
_atom_site_fract_x
_atom_site_fract_y
_atom_site_fract_z
_atom_site_U_iso_or_equiv
_atom_site_adp_type
_atom_site_occupancy
C1     C     0.60498   0.91958   0.19296   0.00000  Uiso   1.00
C2     C     0.70217   0.87194   0.15887   0.00000  Uiso   1.00
C3     C     0.74436   0.78394   0.16119   0.00000  Uiso   1.00
C4     C     0.83359   0.75282   0.12669   0.00000  Uiso   1.00
C5     C     0.97761   0.67049   0.07919   0.00000  Uiso   1.00
C6     C     0.60350   0.96490   0.23963   0.00000  Uiso   1.00
C7     C     0.56271   0.95508   0.30984   0.00000  Uiso   1.00
C8     C     0.56888   0.00223   0.34331   0.00000  Uiso   1.00
C9     C     0.55965   0.06427   0.42117   0.00000  Uiso   1.00
C10    C     0.56647   0.99124   0.13559   0.00000  Uiso   1.00
C11    C     0.49454   0.00358   0.11834   0.00000  Uiso   1.00
C12    C     0.46951   0.07292   0.06424   0.00000  Uiso   1.00
C13    C     0.40279   0.17586   0.98057   0.00000  Uiso   1.00
C14    C     0.68843   0.02079   0.12758   0.00000  Uiso   1.00
C15    C     0.74749   0.92692   0.12336   0.00000  Uiso   1.00
C16    C     0.83668   0.89592   0.08885   0.00000  Uiso   1.00
C17    C     0.87899   0.80790   0.09111   0.00000  Uiso   1.00
C18    C     0.64882   0.01988   0.20411   0.00000  Uiso   1.00
C19    C     0.65503   0.06706   0.23749   0.00000  Uiso   1.00
C20    C     0.61428   0.05730   0.30774   0.00000  Uiso   1.00
C21    C     0.61179   0.04622   0.10008   0.00000  Uiso   1.00
C22    C     0.58686   0.11556   0.04600   0.00000  Uiso   1.00
C23    C     0.51491   0.12800   0.02866   0.00000  Uiso   1.00
H24    H     0.56970   0.87678   0.22062   0.00000  Uiso   1.00
H25    H     0.70926   0.74142   0.18869   0.00000  Uiso   1.00
H26    H     0.52764   0.91254   0.33730   0.00000  Uiso   1.00
H27    H     0.45948   0.96103   0.14584   0.00000  Uiso   1.00
H28    H     0.88399   0.61559   0.13764   0.00000  Uiso   1.00
H29    H     0.50101   0.97642   0.45101   0.00000  Uiso   1.00
H30    H     0.35727   0.07868   0.04726   0.00000  Uiso   1.00
H31    H     0.72371   0.06359   0.09993   0.00000  Uiso   1.00
H32    H     0.87173   0.93848   0.06137   0.00000  Uiso   1.00
H33    H     0.69011   0.10960   0.20999   0.00000  Uiso   1.00
H34    H     0.62195   0.15809   0.01852   0.00000  Uiso   1.00
H35    H     0.01586   0.77553   0.03431   0.00000  Uiso   1.00
H36    H     0.63287   0.13636   0.34768   0.00000  Uiso   1.00
H37    H     0.48914   0.23862   0.94393   0.00000  Uiso   1.00
O38    O     0.04453   0.60988   0.06281   0.00000  Uiso   1.00
O39    O     0.54205   0.08329   0.47393   0.00000  Uiso   1.00
O40    O     0.35348   0.21744   0.94422   0.00000  Uiso   1.00
N41    N     0.89471   0.67040   0.11860   0.00000  Uiso   1.00
N42    N     0.53665   0.00775   0.41158   0.00000  Uiso   1.00
N43    N     0.40226   0.10336   0.03413   0.00000  Uiso   1.00
N44    N     0.96566   0.75647   0.06300   0.00000  Uiso   1.00
N45    N     0.60761   0.09381   0.35598   0.00000  Uiso   1.00
N46    N     0.47322   0.18943   0.97852   0.00000  Uiso   1.00
C47    C     0.28240   0.60643   0.19482   0.00000  Uiso   1.00
C48    C     0.26742   0.70148   0.16286   0.00000  Uiso   1.00
C49    C     0.31098   0.74358   0.16733   0.00000  Uiso   1.00
C50    C     0.28782   0.83070   0.13456   0.00000  Uiso   1.00
C51    C     0.27431   0.97170   0.09042   0.00000  Uiso   1.00
C52    C     0.19247   0.60542   0.24054   0.00000  Uiso   1.00
C53    C     0.17303   0.56676   0.31031   0.00000  Uiso   1.00
C54    C     0.08679   0.57300   0.34293   0.00000  Uiso   1.00
C55    C     0.95695   0.56481   0.41938   0.00000  Uiso   1.00
C56    C     0.30605   0.56710   0.13574   0.00000  Uiso   1.00
C57    C     0.38209   0.49619   0.11742   0.00000  Uiso   1.00
C58    C     0.39145   0.47015   0.06181   0.00000  Uiso   1.00
C59    C     0.43795   0.40246   0.97555   0.00000  Uiso   1.00
C60    C     0.16381   0.68626   0.12867   0.00000  Uiso   1.00
C61    C     0.20300   0.74484   0.12693   0.00000  Uiso   1.00
C62    C     0.17977   0.83191   0.09414   0.00000  Uiso   1.00
C63    C     0.22329   0.87413   0.09856   0.00000  Uiso   1.00
C64    C     0.12806   0.64878   0.20461   0.00000  Uiso   1.00
C65    C     0.04182   0.65508   0.23713   0.00000  Uiso   1.00
C66    C     0.02226   0.61643   0.30693   0.00000  Uiso   1.00
C67    C     0.24163   0.61046   0.09981   0.00000  Uiso   1.00
C68    C     0.25088   0.58452   0.04423   0.00000  Uiso   1.00
C69    C     0.32692   0.51359   0.02581   0.00000  Uiso   1.00
H70    H     0.33255   0.57267   0.22280   0.00000  Uiso   1.00
H71    H     0.36082   0.71001   0.19515   0.00000  Uiso   1.00
H72    H     0.22290   0.53320   0.33810   0.00000  Uiso   1.00
H73    H     0.43192   0.46265   0.14523   0.00000  Uiso   1.00
H74    H     0.36373   0.88140   0.14866   0.00000  Uiso   1.00
H75    H     0.07293   0.50856   0.45009   0.00000  Uiso   1.00
H76    H     0.51369   0.35980   0.04339   0.00000  Uiso   1.00
H77    H     0.11366   0.72002   0.10070   0.00000  Uiso   1.00
H78    H     0.12991   0.86544   0.06634   0.00000  Uiso   1.00
H79    H     0.99199   0.68863   0.20930   0.00000  Uiso   1.00
H80    H     0.20102   0.61809   0.01643   0.00000  Uiso   1.00
H81    H     0.17631   0.00756   0.04412   0.00000  Uiso   1.00
H82    H     0.88551   0.63472   0.34556   0.00000  Uiso   1.00
H83    H     0.32627   0.48595   0.93885   0.00000  Uiso   1.00
O84    O     0.28464   0.03749   0.07601   0.00000  Uiso   1.00
O85    O     0.90313   0.54833   0.47148   0.00000  Uiso   1.00
O86    O     0.48140   0.35316   0.93789   0.00000  Uiso   1.00
N87    N     0.31740   0.89113   0.12876   0.00000  Uiso   1.00
N88    N     0.04552   0.54256   0.41059   0.00000  Uiso   1.00
N89    N     0.45758   0.40346   0.03036   0.00000  Uiso   1.00
N90    N     0.21655   0.95901   0.07251   0.00000  Uiso   1.00
N91    N     0.94467   0.61045   0.35433   0.00000  Uiso   1.00
N92    N     0.35673   0.47135   0.97411   0.00000  Uiso   1.00
C93    C     0.91726   0.28169   0.19565   0.00000  Uiso   1.00
C94    C     0.86913   0.26567   0.16178   0.00000  Uiso   1.00
C95    C     0.77964   0.30811   0.16599   0.00000  Uiso   1.00
C96    C     0.74831   0.28413   0.13136   0.00000  Uiso   1.00
C97    C     0.66502   0.26898   0.08451   0.00000  Uiso   1.00
C98    C     0.96199   0.19435   0.24021   0.00000  Uiso   1.00
C99    C     0.95057   0.17683   0.31035   0.00000  Uiso   1.00
C100   C     0.99742   0.09281   0.34175   0.00000  Uiso   1.00
C101   C     0.05834   0.96695   0.41664   0.00000  Uiso   1.00
C102   C     0.99160   0.30415   0.13769   0.00000  Uiso   1.00
C103   C     0.00509   0.37894   0.12165   0.00000  Uiso   1.00
C104   C     0.07688   0.38736   0.06673   0.00000  Uiso   1.00
C105   C     0.18377   0.43197   0.98245   0.00000  Uiso   1.00
C106   C     0.02077   0.16364   0.12668   0.00000  Uiso   1.00
C107   C     0.92536   0.20155   0.12432   0.00000  Uiso   1.00
C108   C     0.89416   0.17750   0.08968   0.00000  Uiso   1.00
C109   C     0.80463   0.21990   0.09383   0.00000  Uiso   1.00
C110   C     0.01821   0.13023   0.20275   0.00000  Uiso   1.00
C111   C     0.06509   0.04622   0.23405   0.00000  Uiso   1.00
C112   C     0.05375   0.02858   0.30422   0.00000  Uiso   1.00
C113   C     0.04782   0.24003   0.10023   0.00000  Uiso   1.00
C114   C     0.11961   0.24833   0.04534   0.00000  Uiso   1.00
C115   C     0.13321   0.32312   0.02921   0.00000  Uiso   1.00
H116   H     0.87349   0.33161   0.22482   0.00000  Uiso   1.00
H117   H     0.73614   0.35772   0.19499   0.00000  Uiso   1.00
H118   H     0.90706   0.22646   0.33933   0.00000  Uiso   1.00
H119   H     0.96157   0.42854   0.15065   0.00000  Uiso   1.00
H120   H     0.60866   0.35838   0.14542   0.00000  Uiso   1.00
H121   H     0.96907   0.08162   0.44976   0.00000  Uiso   1.00
H122   H     0.08401   0.50774   0.05189   0.00000  Uiso   1.00
H123   H     0.06455   0.11372   0.09751   0.00000  Uiso   1.00
H124   H     0.93769   0.12788   0.06070   0.00000  Uiso   1.00
H125   H     0.10860   0.99662   0.20504   0.00000  Uiso   1.00
H126   H     0.16311   0.19870   0.01636   0.00000  Uiso   1.00
H127   H     0.77224   0.17183   0.03642   0.00000  Uiso   1.00
H128   H     0.13265   0.89507   0.34077   0.00000  Uiso   1.00
H129   H     0.24758   0.32119   0.94290   0.00000  Uiso   1.00
O130   O     0.60354   0.27832   0.06902   0.00000  Uiso   1.00
O131   O     0.07640   0.91524   0.46830   0.00000  Uiso   1.00
O132   O     0.22718   0.47430   0.94631   0.00000  Uiso   1.00
N133   N     0.66457   0.31254   0.12481   0.00000  Uiso   1.00
N134   N     0.00152   0.05378   0.40935   0.00000  Uiso   1.00
N135   N     0.10899   0.45216   0.03739   0.00000  Uiso   1.00
N136   N     0.75259   0.21216   0.06616   0.00000  Uiso   1.00
N137   N     0.08954   0.95340   0.35071   0.00000  Uiso   1.00
N138   N     0.19701   0.35178   0.97874   0.00000  Uiso   1.00
C139   C     0.39502   0.08042   0.80704   0.00000  Uiso   1.00
C140   C     0.29783   0.12806   0.84113   0.00000  Uiso   1.00
C141   C     0.25564   0.21606   0.83881   0.00000  Uiso   1.00
C142   C     0.16641   0.24718   0.87331   0.00000  Uiso   1.00
C143   C     0.02239   0.32951   0.92081   0.00000  Uiso   1.00
C144   C     0.39650   0.03510   0.76037   0.00000  Uiso   1.00
C145   C     0.43729   0.04492   0.69016   0.00000  Uiso   1.00
C146   C     0.43112   0.99777   0.65669   0.00000  Uiso   1.00
C147   C     0.44035   0.93573   0.57883   0.00000  Uiso   1.00
C148   C     0.43353   0.00876   0.86441   0.00000  Uiso   1.00
C149   C     0.50546   0.99642   0.88166   0.00000  Uiso   1.00
C150   C     0.53049   0.92708   0.93576   0.00000  Uiso   1.00
C151   C     0.59721   0.82414   0.01943   0.00000  Uiso   1.00
C152   C     0.31157   0.97921   0.87242   0.00000  Uiso   1.00
C153   C     0.25251   0.07308   0.87664   0.00000  Uiso   1.00
C154   C     0.16332   0.10408   0.91115   0.00000  Uiso   1.00
C155   C     0.12101   0.19210   0.90889   0.00000  Uiso   1.00
C156   C     0.35118   0.98012   0.79589   0.00000  Uiso   1.00
C157   C     0.34497   0.93294   0.76251   0.00000  Uiso   1.00
C158   C     0.38572   0.94270   0.69226   0.00000  Uiso   1.00
C159   C     0.38821   0.95378   0.89992   0.00000  Uiso   1.00
C160   C     0.41314   0.88444   0.95400   0.00000  Uiso   1.00
C161   C     0.48509   0.87200   0.97134   0.00000  Uiso   1.00
H162   H     0.43030   0.12322   0.77938   0.00000  Uiso   1.00
H163   H     0.29074   0.25858   0.81131   0.00000  Uiso   1.00
H164   H     0.47236   0.08746   0.66270   0.00000  Uiso   1.00
H165   H     0.54052   0.03897   0.85416   0.00000  Uiso   1.00
H166   H     0.11601   0.38441   0.86236   0.00000  Uiso   1.00
H167   H     0.49899   0.02358   0.54899   0.00000  Uiso   1.00
H168   H     0.64273   0.92132   0.95274   0.00000  Uiso   1.00
H169   H     0.27629   0.93641   0.90007   0.00000  Uiso   1.00
H170   H     0.12827   0.06152   0.93863   0.00000  Uiso   1.00
H171   H     0.30989   0.89040   0.79001   0.00000  Uiso   1.00
H172   H     0.37805   0.84191   0.98148   0.00000  Uiso   1.00
H173   H     0.98414   0.22447   0.96569   0.00000  Uiso   1.00
H174   H     0.36713   0.86364   0.65232   0.00000  Uiso   1.00
H175   H     0.51086   0.76138   0.05607   0.00000  Uiso   1.00
O176   O     0.95547   0.39012   0.93719   0.00000  Uiso   1.00
O177   O     0.45795   0.91671   0.52607   0.00000  Uiso   1.00
O178   O     0.64652   0.78256   0.05578   0.00000  Uiso   1.00
N179   N     0.10529   0.32960   0.88140   0.00000  Uiso   1.00
N180   N     0.46335   0.99225   0.58842   0.00000  Uiso   1.00
N181   N     0.59774   0.89664   0.96587   0.00000  Uiso   1.00
N182   N     0.03433   0.24353   0.93700   0.00000  Uiso   1.00
N183   N     0.39239   0.90619   0.64402   0.00000  Uiso   1.00
N184   N     0.52678   0.81057   0.02148   0.00000  Uiso   1.00
C185   C     0.71759   0.39357   0.80518   0.00000  Uiso   1.00
C186   C     0.73258   0.29852   0.83714   0.00000  Uiso   1.00
C187   C     0.68902   0.25642   0.83267   0.00000  Uiso   1.00
C188   C     0.71218   0.16930   0.86544   0.00000  Uiso   1.00
C189   C     0.72569   0.02830   0.90958   0.00000  Uiso   1.00
C190   C     0.80753   0.39458   0.75946   0.00000  Uiso   1.00
C191   C     0.82696   0.43325   0.68969   0.00000  Uiso   1.00
C192   C     0.91321   0.42700   0.65707   0.00000  Uiso   1.00
C193   C     0.04305   0.43519   0.58062   0.00000  Uiso   1.00
C194   C     0.69395   0.43290   0.86426   0.00000  Uiso   1.00
C195   C     0.61791   0.50381   0.88258   0.00000  Uiso   1.00
C196   C     0.60855   0.52985   0.93819   0.00000  Uiso   1.00
C197   C     0.56205   0.59754   0.02445   0.00000  Uiso   1.00
C198   C     0.83619   0.31374   0.87133   0.00000  Uiso   1.00
C199   C     0.79700   0.25516   0.87307   0.00000  Uiso   1.00
C200   C     0.82023   0.16809   0.90586   0.00000  Uiso   1.00
C201   C     0.77671   0.12587   0.90144   0.00000  Uiso   1.00
C202   C     0.87194   0.35122   0.79539   0.00000  Uiso   1.00
C203   C     0.95818   0.34492   0.76287   0.00000  Uiso   1.00
C204   C     0.97774   0.38357   0.69307   0.00000  Uiso   1.00
C205   C     0.75837   0.38954   0.90019   0.00000  Uiso   1.00
C206   C     0.74912   0.41548   0.95577   0.00000  Uiso   1.00
C207   C     0.67308   0.48641   0.97419   0.00000  Uiso   1.00
H208   H     0.66745   0.42733   0.77720   0.00000  Uiso   1.00
H209   H     0.63918   0.28999   0.80485   0.00000  Uiso   1.00
H210   H     0.77710   0.46680   0.66190   0.00000  Uiso   1.00
H211   H     0.56808   0.53735   0.85477   0.00000  Uiso   1.00
H212   H     0.63627   0.11860   0.85134   0.00000  Uiso   1.00
H213   H     0.92707   0.49144   0.54991   0.00000  Uiso   1.00
H214   H     0.48631   0.64020   0.95661   0.00000  Uiso   1.00
H215   H     0.88634   0.27998   0.89930   0.00000  Uiso   1.00
H216   H     0.87009   0.13456   0.93366   0.00000  Uiso   1.00
H217   H     0.00801   0.31137   0.79070   0.00000  Uiso   1.00
H218   H     0.79898   0.38192   0.98357   0.00000  Uiso   1.00
H219   H     0.82369   0.99244   0.95588   0.00000  Uiso   1.00
H220   H     0.11449   0.36528   0.65444   0.00000  Uiso   1.00
H221   H     0.67373   0.51405   0.06115   0.00000  Uiso   1.00
O222   O     0.71536   0.96251   0.92399   0.00000  Uiso   1.00
O223   O     0.09687   0.45167   0.52852   0.00000  Uiso   1.00
O224   O     0.51860   0.64684   0.06211   0.00000  Uiso   1.00
N225   N     0.68260   0.10887   0.87124   0.00000  Uiso   1.00
N226   N     0.95448   0.45744   0.58941   0.00000  Uiso   1.00
N227   N     0.54242   0.59654   0.96964   0.00000  Uiso   1.00
N228   N     0.78344   0.04099   0.92749   0.00000  Uiso   1.00
N229   N     0.05533   0.38955   0.64567   0.00000  Uiso   1.00
N230   N     0.64326   0.52865   0.02589   0.00000  Uiso   1.00
C231   C     0.08274   0.71831   0.80435   0.00000  Uiso   1.00
C232   C     0.13087   0.73433   0.83822   0.00000  Uiso   1.00
C233   C     0.22036   0.69189   0.83401   0.00000  Uiso   1.00
C234   C     0.25169   0.71587   0.86864   0.00000  Uiso   1.00
C235   C     0.33498   0.73102   0.91549   0.00000  Uiso   1.00
C236   C     0.03801   0.80565   0.75979   0.00000  Uiso   1.00
C237   C     0.04943   0.82317   0.68965   0.00000  Uiso   1.00
C238   C     0.00258   0.90719   0.65825   0.00000  Uiso   1.00
C239   C     0.94166   0.03305   0.58336   0.00000  Uiso   1.00
C240   C     0.00840   0.69585   0.86231   0.00000  Uiso   1.00
C241   C     0.99491   0.62106   0.87835   0.00000  Uiso   1.00
C242   C     0.92312   0.61264   0.93327   0.00000  Uiso   1.00
C243   C     0.81623   0.56803   0.01755   0.00000  Uiso   1.00
C244   C     0.97923   0.83636   0.87332   0.00000  Uiso   1.00
C245   C     0.07464   0.79845   0.87568   0.00000  Uiso   1.00
C246   C     0.10584   0.82250   0.91032   0.00000  Uiso   1.00
C247   C     0.19537   0.78010   0.90617   0.00000  Uiso   1.00
C248   C     0.98179   0.86977   0.79725   0.00000  Uiso   1.00
C249   C     0.93490   0.95378   0.76595   0.00000  Uiso   1.00
C250   C     0.94625   0.97142   0.69578   0.00000  Uiso   1.00
C251   C     0.95218   0.75997   0.89977   0.00000  Uiso   1.00
C252   C     0.88039   0.75167   0.95466   0.00000  Uiso   1.00
C253   C     0.86679   0.67688   0.97079   0.00000  Uiso   1.00
H254   H     0.12651   0.66839   0.77518   0.00000  Uiso   1.00
H255   H     0.26386   0.64228   0.80501   0.00000  Uiso   1.00
H256   H     0.09294   0.77354   0.66067   0.00000  Uiso   1.00
H257   H     0.03843   0.57146   0.84935   0.00000  Uiso   1.00
H258   H     0.39134   0.64163   0.85458   0.00000  Uiso   1.00
H259   H     0.03093   0.91838   0.55024   0.00000  Uiso   1.00
H260   H     0.91599   0.49226   0.94811   0.00000  Uiso   1.00
H261   H     0.93545   0.88628   0.90249   0.00000  Uiso   1.00
H262   H     0.06231   0.87212   0.93930   0.00000  Uiso   1.00
H263   H     0.89140   0.00338   0.79496   0.00000  Uiso   1.00
H264   H     0.83689   0.80130   0.98364   0.00000  Uiso   1.00
H265   H     0.22776   0.82817   0.96358   0.00000  Uiso   1.00
H266   H     0.86735   0.10493   0.65923   0.00000  Uiso   1.00
H267   H     0.75242   0.67881   0.05710   0.00000  Uiso   1.00
O268   O     0.39646   0.72168   0.93098   0.00000  Uiso   1.00
O269   O     0.92360   0.08476   0.53170   0.00000  Uiso   1.00
O270   O     0.77282   0.52570   0.05369   0.00000  Uiso   1.00
N271   N     0.33543   0.68746   0.87519   0.00000  Uiso   1.00
N272   N     0.99848   0.94622   0.59065   0.00000  Uiso   1.00
N273   N     0.89101   0.54784   0.96261   0.00000  Uiso   1.00
N274   N     0.24741   0.78784   0.93384   0.00000  Uiso   1.00
N275   N     0.91046   0.04660   0.64929   0.00000  Uiso   1.00
N276   N     0.80299   0.64822   0.02126   0.00000  Uiso   1.00
