data_job_01359
_audit_creation_date              2018-12-19
_audit_creation_method            'Materials Studio'
_symmetry_space_group_name_H-M    'P1'
_symmetry_Int_Tables_number       1
_symmetry_cell_setting            triclinic
loop_
_symmetry_equiv_pos_as_xyz
  x,y,z
_cell_length_a                    17.6961
_cell_length_b                    17.0244
_cell_length_c                    10.7877
_cell_angle_alpha                 90.0000
_cell_angle_beta                  53.9615
_cell_angle_gamma                 90.0000
loop_
_atom_site_label
_atom_site_type_symbol
_atom_site_fract_x
_atom_site_fract_y
_atom_site_fract_z
_atom_site_U_iso_or_equiv
_atom_site_adp_type
_atom_site_occupancy
C1     C     0.11034   0.20048   0.31318   0.00000  Uiso   1.00
C2     C     0.05216   0.13342   0.31615   0.00000  Uiso   1.00
C3     C     0.96349   0.11169   0.44095   0.00000  Uiso   1.00
C4     C     0.92197   0.04873   0.42054   0.00000  Uiso   1.00
C5     C     0.82472   0.95062   0.44651   0.00000  Uiso   1.00
C6     C     0.20263   0.16395   0.26499   0.00000  Uiso   1.00
C7     C     0.24047   0.16790   0.34676   0.00000  Uiso   1.00
C8     C     0.32562   0.13065   0.28326   0.00000  Uiso   1.00
C9     C     0.46201   0.07999   0.22974   0.00000  Uiso   1.00
C10    C     0.13376   0.25392   0.18147   0.00000  Uiso   1.00
C11    C     0.11371   0.33353   0.19300   0.00000  Uiso   1.00
C12    C     0.14091   0.37202   0.05918   0.00000  Uiso   1.00
C13    C     0.17036   0.46106   0.87599   0.00000  Uiso   1.00
C14    C     0.19429   0.12730   0.05500   0.00000  Uiso   1.00
C15    C     0.09777   0.09367   0.17592   0.00000  Uiso   1.00
C16    C     0.05637   0.03072   0.15531   0.00000  Uiso   1.00
C17    C     0.96765   0.00891   0.28005   0.00000  Uiso   1.00
C18    C     0.24823   0.12420   0.12476   0.00000  Uiso   1.00
C19    C     0.33335   0.08694   0.06111   0.00000  Uiso   1.00
C20    C     0.37131   0.09083   0.14277   0.00000  Uiso   1.00
C21    C     0.17936   0.21417   0.04123   0.00000  Uiso   1.00
C22    C     0.20660   0.25256   0.90736   0.00000  Uiso   1.00
C23    C     0.18659   0.33220   0.91869   0.00000  Uiso   1.00
H24    H     0.07484   0.23143   0.42235   0.00000  Uiso   1.00
H25    H     0.92822   0.14246   0.54946   0.00000  Uiso   1.00
H26    H     0.20517   0.19867   0.45527   0.00000  Uiso   1.00
H27    H     0.07843   0.36427   0.30154   0.00000  Uiso   1.00
H28    H     0.78580   0.02628   0.62856   0.00000  Uiso   1.00
H29    H     0.36976   0.14483   0.42993   0.00000  Uiso   1.00
H30    H     0.10251   0.49402   0.10576   0.00000  Uiso   1.00
H31    H     0.22980   0.09635   0.94581   0.00000  Uiso   1.00
H32    H     0.09168   0.99997   0.04677   0.00000  Uiso   1.00
H33    H     0.36862   0.05619   0.95259   0.00000  Uiso   1.00
H34    H     0.24188   0.22178   0.79886   0.00000  Uiso   1.00
H35    H     0.91847   0.91063   0.22056   0.00000  Uiso   1.00
H36    H     0.50243   0.02918   0.02193   0.00000  Uiso   1.00
H37    H     0.23518   0.37836   0.69776   0.00000  Uiso   1.00
O38    O     0.75849   0.90748   0.49959   0.00000  Uiso   1.00
O39    O     0.52463   0.06302   0.23898   0.00000  Uiso   1.00
O40    O     0.17400   0.52114   0.81369   0.00000  Uiso   1.00
N41    N     0.83597   0.01230   0.51867   0.00000  Uiso   1.00
N42    N     0.38193   0.12312   0.33298   0.00000  Uiso   1.00
N43    N     0.13209   0.44959   0.02990   0.00000  Uiso   1.00
N44    N     0.90736   0.95007   0.29913   0.00000  Uiso   1.00
N45    N     0.45332   0.06089   0.11344   0.00000  Uiso   1.00
N46    N     0.20348   0.38736   0.81036   0.00000  Uiso   1.00
C47    C     0.61034   0.70048   0.31318   0.00000  Uiso   1.00
C48    C     0.55216   0.63342   0.31615   0.00000  Uiso   1.00
C49    C     0.46349   0.61169   0.44095   0.00000  Uiso   1.00
C50    C     0.42197   0.54873   0.42054   0.00000  Uiso   1.00
C51    C     0.32472   0.45062   0.44651   0.00000  Uiso   1.00
C52    C     0.70263   0.66395   0.26499   0.00000  Uiso   1.00
C53    C     0.74047   0.66790   0.34676   0.00000  Uiso   1.00
C54    C     0.82562   0.63065   0.28326   0.00000  Uiso   1.00
C55    C     0.96201   0.57999   0.22974   0.00000  Uiso   1.00
C56    C     0.63376   0.75392   0.18147   0.00000  Uiso   1.00
C57    C     0.61371   0.83353   0.19300   0.00000  Uiso   1.00
C58    C     0.64091   0.87202   0.05918   0.00000  Uiso   1.00
C59    C     0.67036   0.96106   0.87599   0.00000  Uiso   1.00
C60    C     0.69429   0.62730   0.05500   0.00000  Uiso   1.00
C61    C     0.59777   0.59367   0.17592   0.00000  Uiso   1.00
C62    C     0.55637   0.53072   0.15531   0.00000  Uiso   1.00
C63    C     0.46765   0.50891   0.28005   0.00000  Uiso   1.00
C64    C     0.74823   0.62420   0.12476   0.00000  Uiso   1.00
C65    C     0.83335   0.58694   0.06111   0.00000  Uiso   1.00
C66    C     0.87131   0.59083   0.14277   0.00000  Uiso   1.00
C67    C     0.67936   0.71417   0.04123   0.00000  Uiso   1.00
C68    C     0.70660   0.75256   0.90736   0.00000  Uiso   1.00
C69    C     0.68659   0.83220   0.91869   0.00000  Uiso   1.00
H70    H     0.57484   0.73143   0.42235   0.00000  Uiso   1.00
H71    H     0.42822   0.64246   0.54946   0.00000  Uiso   1.00
H72    H     0.70517   0.69867   0.45527   0.00000  Uiso   1.00
H73    H     0.57843   0.86427   0.30154   0.00000  Uiso   1.00
H74    H     0.28580   0.52628   0.62856   0.00000  Uiso   1.00
H75    H     0.86976   0.64483   0.42993   0.00000  Uiso   1.00
H76    H     0.60251   0.99402   0.10576   0.00000  Uiso   1.00
H77    H     0.72980   0.59635   0.94581   0.00000  Uiso   1.00
H78    H     0.59168   0.49997   0.04677   0.00000  Uiso   1.00
H79    H     0.86862   0.55619   0.95259   0.00000  Uiso   1.00
H80    H     0.74188   0.72178   0.79886   0.00000  Uiso   1.00
H81    H     0.41847   0.41063   0.22056   0.00000  Uiso   1.00
H82    H     0.00243   0.52918   0.02193   0.00000  Uiso   1.00
H83    H     0.73518   0.87836   0.69776   0.00000  Uiso   1.00
O84    O     0.25849   0.40748   0.49959   0.00000  Uiso   1.00
O85    O     0.02463   0.56302   0.23898   0.00000  Uiso   1.00
O86    O     0.67400   0.02114   0.81369   0.00000  Uiso   1.00
N87    N     0.33597   0.51230   0.51867   0.00000  Uiso   1.00
N88    N     0.88193   0.62312   0.33298   0.00000  Uiso   1.00
N89    N     0.63209   0.94959   0.02990   0.00000  Uiso   1.00
N90    N     0.40736   0.45007   0.29913   0.00000  Uiso   1.00
N91    N     0.95332   0.56089   0.11344   0.00000  Uiso   1.00
N92    N     0.70348   0.88736   0.81036   0.00000  Uiso   1.00
C93    C     0.11034   0.79952   0.81318   0.00000  Uiso   1.00
C94    C     0.05216   0.86658   0.81615   0.00000  Uiso   1.00
C95    C     0.96349   0.88831   0.94095   0.00000  Uiso   1.00
C96    C     0.92197   0.95127   0.92054   0.00000  Uiso   1.00
C97    C     0.82472   0.04938   0.94651   0.00000  Uiso   1.00
C98    C     0.20263   0.83605   0.76499   0.00000  Uiso   1.00
C99    C     0.24047   0.83210   0.84676   0.00000  Uiso   1.00
C100   C     0.32562   0.86935   0.78326   0.00000  Uiso   1.00
C101   C     0.46201   0.92001   0.72974   0.00000  Uiso   1.00
C102   C     0.13376   0.74608   0.68147   0.00000  Uiso   1.00
C103   C     0.11371   0.66647   0.69300   0.00000  Uiso   1.00
C104   C     0.14091   0.62798   0.55918   0.00000  Uiso   1.00
C105   C     0.17036   0.53894   0.37599   0.00000  Uiso   1.00
C106   C     0.19429   0.87270   0.55500   0.00000  Uiso   1.00
C107   C     0.09777   0.90633   0.67592   0.00000  Uiso   1.00
C108   C     0.05637   0.96928   0.65531   0.00000  Uiso   1.00
C109   C     0.96765   0.99109   0.78005   0.00000  Uiso   1.00
C110   C     0.24823   0.87580   0.62476   0.00000  Uiso   1.00
C111   C     0.33335   0.91306   0.56111   0.00000  Uiso   1.00
C112   C     0.37131   0.90917   0.64277   0.00000  Uiso   1.00
C113   C     0.17936   0.78583   0.54123   0.00000  Uiso   1.00
C114   C     0.20660   0.74744   0.40736   0.00000  Uiso   1.00
C115   C     0.18659   0.66780   0.41869   0.00000  Uiso   1.00
H116   H     0.07484   0.76857   0.92235   0.00000  Uiso   1.00
H117   H     0.92822   0.85754   0.04946   0.00000  Uiso   1.00
H118   H     0.20517   0.80133   0.95527   0.00000  Uiso   1.00
H119   H     0.07843   0.63573   0.80154   0.00000  Uiso   1.00
H120   H     0.78580   0.97372   0.12856   0.00000  Uiso   1.00
H121   H     0.36976   0.85517   0.92993   0.00000  Uiso   1.00
H122   H     0.10251   0.50598   0.60576   0.00000  Uiso   1.00
H123   H     0.22980   0.90365   0.44581   0.00000  Uiso   1.00
H124   H     0.09168   0.00003   0.54677   0.00000  Uiso   1.00
H125   H     0.36862   0.94381   0.45259   0.00000  Uiso   1.00
H126   H     0.24188   0.77822   0.29886   0.00000  Uiso   1.00
H127   H     0.91847   0.08937   0.72056   0.00000  Uiso   1.00
H128   H     0.50243   0.97082   0.52193   0.00000  Uiso   1.00
H129   H     0.23518   0.62164   0.19776   0.00000  Uiso   1.00
O130   O     0.75849   0.09252   0.99959   0.00000  Uiso   1.00
O131   O     0.52463   0.93698   0.73898   0.00000  Uiso   1.00
O132   O     0.17400   0.47886   0.31369   0.00000  Uiso   1.00
N133   N     0.83597   0.98770   0.01867   0.00000  Uiso   1.00
N134   N     0.38193   0.87688   0.83298   0.00000  Uiso   1.00
N135   N     0.13209   0.55041   0.52990   0.00000  Uiso   1.00
N136   N     0.90736   0.04993   0.79913   0.00000  Uiso   1.00
N137   N     0.45332   0.93911   0.61344   0.00000  Uiso   1.00
N138   N     0.20348   0.61264   0.31036   0.00000  Uiso   1.00
C139   C     0.61034   0.29952   0.81318   0.00000  Uiso   1.00
C140   C     0.55216   0.36658   0.81615   0.00000  Uiso   1.00
C141   C     0.46349   0.38831   0.94095   0.00000  Uiso   1.00
C142   C     0.42197   0.45127   0.92054   0.00000  Uiso   1.00
C143   C     0.32472   0.54938   0.94651   0.00000  Uiso   1.00
C144   C     0.70263   0.33605   0.76499   0.00000  Uiso   1.00
C145   C     0.74047   0.33210   0.84676   0.00000  Uiso   1.00
C146   C     0.82562   0.36935   0.78326   0.00000  Uiso   1.00
C147   C     0.96201   0.42001   0.72974   0.00000  Uiso   1.00
C148   C     0.63376   0.24608   0.68147   0.00000  Uiso   1.00
C149   C     0.61371   0.16647   0.69300   0.00000  Uiso   1.00
C150   C     0.64091   0.12798   0.55918   0.00000  Uiso   1.00
C151   C     0.67036   0.03894   0.37599   0.00000  Uiso   1.00
C152   C     0.69429   0.37270   0.55500   0.00000  Uiso   1.00
C153   C     0.59777   0.40633   0.67592   0.00000  Uiso   1.00
C154   C     0.55637   0.46928   0.65531   0.00000  Uiso   1.00
C155   C     0.46765   0.49109   0.78005   0.00000  Uiso   1.00
C156   C     0.74823   0.37580   0.62476   0.00000  Uiso   1.00
C157   C     0.83335   0.41306   0.56111   0.00000  Uiso   1.00
C158   C     0.87131   0.40917   0.64277   0.00000  Uiso   1.00
C159   C     0.67936   0.28583   0.54123   0.00000  Uiso   1.00
C160   C     0.70660   0.24744   0.40736   0.00000  Uiso   1.00
C161   C     0.68659   0.16780   0.41869   0.00000  Uiso   1.00
H162   H     0.57484   0.26857   0.92235   0.00000  Uiso   1.00
H163   H     0.42822   0.35754   0.04946   0.00000  Uiso   1.00
H164   H     0.70517   0.30133   0.95527   0.00000  Uiso   1.00
H165   H     0.57843   0.13573   0.80154   0.00000  Uiso   1.00
H166   H     0.28580   0.47372   0.12856   0.00000  Uiso   1.00
H167   H     0.86976   0.35517   0.92993   0.00000  Uiso   1.00
H168   H     0.60251   0.00598   0.60576   0.00000  Uiso   1.00
H169   H     0.72980   0.40365   0.44581   0.00000  Uiso   1.00
H170   H     0.59168   0.50003   0.54677   0.00000  Uiso   1.00
H171   H     0.86862   0.44381   0.45259   0.00000  Uiso   1.00
H172   H     0.74188   0.27822   0.29886   0.00000  Uiso   1.00
H173   H     0.41847   0.58937   0.72056   0.00000  Uiso   1.00
H174   H     0.00243   0.47082   0.52193   0.00000  Uiso   1.00
H175   H     0.73518   0.12164   0.19776   0.00000  Uiso   1.00
O176   O     0.25849   0.59252   0.99959   0.00000  Uiso   1.00
O177   O     0.02463   0.43698   0.73898   0.00000  Uiso   1.00
O178   O     0.67400   0.97886   0.31369   0.00000  Uiso   1.00
N179   N     0.33597   0.48770   0.01867   0.00000  Uiso   1.00
N180   N     0.88193   0.37688   0.83298   0.00000  Uiso   1.00
N181   N     0.63209   0.05041   0.52990   0.00000  Uiso   1.00
N182   N     0.40736   0.54993   0.79913   0.00000  Uiso   1.00
N183   N     0.95332   0.43911   0.61344   0.00000  Uiso   1.00
N184   N     0.70348   0.11264   0.31036   0.00000  Uiso   1.00
