data_job_06700
_audit_creation_date              2018-12-19
_audit_creation_method            'Materials Studio'
_symmetry_space_group_name_H-M    'P1'
_symmetry_Int_Tables_number       1
_symmetry_cell_setting            triclinic
loop_
_symmetry_equiv_pos_as_xyz
  x,y,z
_cell_length_a                    19.6734
_cell_length_b                    21.3215
_cell_length_c                    21.7311
_cell_angle_alpha                 62.8355
_cell_angle_beta                  112.1974
_cell_angle_gamma                 111.5425
loop_
_atom_site_label
_atom_site_type_symbol
_atom_site_fract_x
_atom_site_fract_y
_atom_site_fract_z
_atom_site_U_iso_or_equiv
_atom_site_adp_type
_atom_site_occupancy
C1     C     0.78344   0.68154   0.00377   0.00000  Uiso   1.00
C2     C     0.81964   0.71333   0.06218   0.00000  Uiso   1.00
C3     C     0.81425   0.67724   0.13247   0.00000  Uiso   1.00
C4     C     0.85143   0.71578   0.17767   0.00000  Uiso   1.00
C5     C     0.90137   0.75419   0.27204   0.00000  Uiso   1.00
C6     C     0.73475   0.73206   0.94297   0.00000  Uiso   1.00
C7     C     0.65800   0.71172   0.91303   0.00000  Uiso   1.00
C8     C     0.62372   0.76603   0.85787   0.00000  Uiso   1.00
C9     C     0.54187   0.83351   0.76714   0.00000  Uiso   1.00
C10    C     0.84774   0.69013   0.97551   0.00000  Uiso   1.00
C11    C     0.86597   0.63452   0.97291   0.00000  Uiso   1.00
C12    C     0.92681   0.65353   0.94513   0.00000  Uiso   1.00
C13    C     0.02039   0.65590   0.90492   0.00000  Uiso   1.00
C14    C     0.85906   0.81417   0.95904   0.00000  Uiso   1.00
C15    C     0.86071   0.78537   0.03788   0.00000  Uiso   1.00
C16    C     0.89791   0.82397   0.08298   0.00000  Uiso   1.00
C17    C     0.89258   0.78794   0.15333   0.00000  Uiso   1.00
C18    C     0.77582   0.80410   0.91867   0.00000  Uiso   1.00
C19    C     0.74165   0.85845   0.86354   0.00000  Uiso   1.00
C20    C     0.66486   0.83820   0.83353   0.00000  Uiso   1.00
C21    C     0.88881   0.76216   0.95121   0.00000  Uiso   1.00
C22    C     0.94963   0.78126   0.92342   0.00000  Uiso   1.00
C23    C     0.96796   0.72570   0.92078   0.00000  Uiso   1.00
H24    H     0.75146   0.62546   0.02268   0.00000  Uiso   1.00
H25    H     0.78246   0.62149   0.15125   0.00000  Uiso   1.00
H26    H     0.62623   0.65597   0.93184   0.00000  Uiso   1.00
H27    H     0.83417   0.57879   0.99171   0.00000  Uiso   1.00
H28    H     0.83491   0.64887   0.28307   0.00000  Uiso   1.00
H29    H     0.50550   0.72156   0.82042   0.00000  Uiso   1.00
H30    H     0.94399   0.55880   0.94667   0.00000  Uiso   1.00
H31    H     0.89103   0.87025   0.94012   0.00000  Uiso   1.00
H32    H     0.92969   0.87972   0.06416   0.00000  Uiso   1.00
H33    H     0.77346   0.91419   0.84475   0.00000  Uiso   1.00
H34    H     0.98140   0.83701   0.90462   0.00000  Uiso   1.00
H35    H     0.95441   0.85845   0.21238   0.00000  Uiso   1.00
H36    H     0.62499   0.93114   0.74973   0.00000  Uiso   1.00
H37    H     0.06349   0.76839   0.87598   0.00000  Uiso   1.00
O38    O     0.91755   0.75548   0.33081   0.00000  Uiso   1.00
O39    O     0.48538   0.85084   0.72382   0.00000  Uiso   1.00
O40    O     0.06067   0.63731   0.88946   0.00000  Uiso   1.00
N41    N     0.85774   0.69689   0.24942   0.00000  Uiso   1.00
N42    N     0.54976   0.76485   0.81687   0.00000  Uiso   1.00
N43    N     0.95970   0.61269   0.93489   0.00000  Uiso   1.00
N44    N     0.92204   0.80967   0.21138   0.00000  Uiso   1.00
N45    N     0.61406   0.87763   0.77883   0.00000  Uiso   1.00
N46    N     0.02400   0.72547   0.89685   0.00000  Uiso   1.00
C47    C     0.79360   0.11973   0.01240   0.00000  Uiso   1.00
C48    C     0.83684   0.16183   0.95457   0.00000  Uiso   1.00
C49    C     0.83452   0.23154   0.90478   0.00000  Uiso   1.00
C50    C     0.87816   0.26055   0.85631   0.00000  Uiso   1.00
C51    C     0.93853   0.33191   0.76630   0.00000  Uiso   1.00
C52    C     0.74707   0.04902   0.00110   0.00000  Uiso   1.00
C53    C     0.66928   0.02388   0.99043   0.00000  Uiso   1.00
C54    C     0.63736   0.95793   0.98114   0.00000  Uiso   1.00
C55    C     0.55837   0.85412   0.96341   0.00000  Uiso   1.00
C56    C     0.85281   0.09868   0.08321   0.00000  Uiso   1.00
C57    C     0.86392   0.11527   0.14159   0.00000  Uiso   1.00
C58    C     0.92102   0.09110   0.20143   0.00000  Uiso   1.00
C59    C     0.00621   0.06439   0.31119   0.00000  Uiso   1.00
C60    C     0.87522   0.04729   0.01486   0.00000  Uiso   1.00
C61    C     0.88117   0.12249   0.95591   0.00000  Uiso   1.00
C62    C     0.92483   0.15141   0.90751   0.00000  Uiso   1.00
C63    C     0.92258   0.22114   0.85766   0.00000  Uiso   1.00
C64    C     0.79140   0.00968   0.00244   0.00000  Uiso   1.00
C65    C     0.75959   0.94375   0.99316   0.00000  Uiso   1.00
C66    C     0.68178   0.91851   0.98248   0.00000  Uiso   1.00
C67    C     0.89715   0.05934   0.08455   0.00000  Uiso   1.00
C68    C     0.95424   0.03514   0.14431   0.00000  Uiso   1.00
C69    C     0.96544   0.05169   0.20277   0.00000  Uiso   1.00
H70    H     0.75907   0.15035   0.01136   0.00000  Uiso   1.00
H71    H     0.80020   0.26197   0.90376   0.00000  Uiso   1.00
H72    H     0.63499   0.05433   0.98941   0.00000  Uiso   1.00
H73    H     0.82960   0.14571   0.14054   0.00000  Uiso   1.00
H74    H     0.86532   0.36835   0.78505   0.00000  Uiso   1.00
H75    H     0.51697   0.93054   0.96566   0.00000  Uiso   1.00
H76    H     0.92735   0.12323   0.28434   0.00000  Uiso   1.00
H77    H     0.90974   0.01666   0.01590   0.00000  Uiso   1.00
H78    H     0.95914   0.12095   0.90856   0.00000  Uiso   1.00
H79    H     0.79392   0.91332   0.99420   0.00000  Uiso   1.00
H80    H     0.98854   0.00469   0.14533   0.00000  Uiso   1.00
H81    H     0.99432   0.25390   0.78894   0.00000  Uiso   1.00
H82    H     0.64596   0.81608   0.96955   0.00000  Uiso   1.00
H83    H     0.05635   0.00877   0.28823   0.00000  Uiso   1.00
O84    O     0.95957   0.38213   0.71628   0.00000  Uiso   1.00
O85    O     0.50255   0.80773   0.95325   0.00000  Uiso   1.00
O86    O     0.04096   0.06053   0.37135   0.00000  Uiso   1.00
N87    N     0.88891   0.32711   0.80070   0.00000  Uiso   1.00
N88    N     0.56322   0.91779   0.96955   0.00000  Uiso   1.00
N89    N     0.94688   0.09792   0.26750   0.00000  Uiso   1.00
N90    N     0.95833   0.26552   0.80280   0.00000  Uiso   1.00
N91    N     0.63263   0.85620   0.97164   0.00000  Uiso   1.00
N92    N     0.01629   0.03633   0.26960   0.00000  Uiso   1.00
C93    C     0.83817   0.12851   0.56022   0.00000  Uiso   1.00
C94    C     0.89175   0.09124   0.62927   0.00000  Uiso   1.00
C95    C     0.92894   0.04227   0.63843   0.00000  Uiso   1.00
C96    C     0.97551   0.01418   0.70573   0.00000  Uiso   1.00
C97    C     0.05730   0.95320   0.80442   0.00000  Uiso   1.00
C98    C     0.76399   0.11001   0.57881   0.00000  Uiso   1.00
C99    C     0.69376   0.07684   0.54554   0.00000  Uiso   1.00
C100   C     0.63279   0.06456   0.57035   0.00000  Uiso   1.00
C101   C     0.51623   0.03277   0.59067   0.00000  Uiso   1.00
C102   C     0.87011   0.20977   0.54333   0.00000  Uiso   1.00
C103   C     0.88910   0.26048   0.48022   0.00000  Uiso   1.00
C104   C     0.91745   0.33220   0.47515   0.00000  Uiso   1.00
C105   C     0.96566   0.45531   0.44038   0.00000  Uiso   1.00
C106   C     0.85473   0.16570   0.66344   0.00000  Uiso   1.00
C107   C     0.90074   0.11143   0.68533   0.00000  Uiso   1.00
C108   C     0.94727   0.08341   0.75263   0.00000  Uiso   1.00
C109   C     0.98453   0.03442   0.76189   0.00000  Uiso   1.00
C110   C     0.77298   0.13020   0.63487   0.00000  Uiso   1.00
C111   C     0.71210   0.11798   0.65974   0.00000  Uiso   1.00
C112   C     0.64180   0.08479   0.62652   0.00000  Uiso   1.00
C113   C     0.87911   0.22997   0.59939   0.00000  Uiso   1.00
C114   C     0.90743   0.30162   0.59442   0.00000  Uiso   1.00
C115   C     0.92646   0.35244   0.53132   0.00000  Uiso   1.00
H116   H     0.83115   0.11279   0.51657   0.00000  Uiso   1.00
H117   H     0.92195   0.02665   0.59503   0.00000  Uiso   1.00
H118   H     0.68682   0.06122   0.50215   0.00000  Uiso   1.00
H119   H     0.88212   0.24483   0.43684   0.00000  Uiso   1.00
H120   H     0.02657   0.94004   0.70675   0.00000  Uiso   1.00
H121   H     0.53077   0.01295   0.51088   0.00000  Uiso   1.00
H122   H     0.94261   0.40014   0.37317   0.00000  Uiso   1.00
H123   H     0.86174   0.18142   0.70709   0.00000  Uiso   1.00
H124   H     0.95422   0.09905   0.79601   0.00000  Uiso   1.00
H125   H     0.71908   0.13362   0.70312   0.00000  Uiso   1.00
H126   H     0.91439   0.31723   0.63782   0.00000  Uiso   1.00
H127   H     0.05275   0.99880   0.86987   0.00000  Uiso   1.00
H128   H     0.55695   0.07171   0.67400   0.00000  Uiso   1.00
H129   H     0.96879   0.45890   0.53629   0.00000  Uiso   1.00
O130   O     0.09993   0.91398   0.84337   0.00000  Uiso   1.00
O131   O     0.44945   0.00965   0.58639   0.00000  Uiso   1.00
O132   O     0.98978   0.51763   0.40572   0.00000  Uiso   1.00
N133   N     0.02005   0.96519   0.73293   0.00000  Uiso   1.00
N134   N     0.55651   0.03334   0.54982   0.00000  Uiso   1.00
N135   N     0.94152   0.39533   0.42106   0.00000  Uiso   1.00
N136   N     0.03414   0.99681   0.82071   0.00000  Uiso   1.00
N137   N     0.57060   0.06496   0.63759   0.00000  Uiso   1.00
N138   N     0.95562   0.42695   0.50883   0.00000  Uiso   1.00
C139   C     0.29679   0.61512   0.51568   0.00000  Uiso   1.00
C140   C     0.34217   0.55726   0.56132   0.00000  Uiso   1.00
C141   C     0.33908   0.50825   0.63011   0.00000  Uiso   1.00
C142   C     0.38502   0.45960   0.66283   0.00000  Uiso   1.00
C143   C     0.44827   0.36968   0.73900   0.00000  Uiso   1.00
C144   C     0.25336   0.60138   0.44647   0.00000  Uiso   1.00
C145   C     0.17560   0.58948   0.41868   0.00000  Uiso   1.00
C146   C     0.14678   0.57798   0.35471   0.00000  Uiso   1.00
C147   C     0.07216   0.55661   0.25253   0.00000  Uiso   1.00
C148   C     0.35448   0.68722   0.49524   0.00000  Uiso   1.00
C149   C     0.36174   0.74751   0.50845   0.00000  Uiso   1.00
C150   C     0.41804   0.80829   0.48552   0.00000  Uiso   1.00
C151   C     0.50042   0.92020   0.45908   0.00000  Uiso   1.00
C152   C     0.38386   0.61587   0.45147   0.00000  Uiso   1.00
C153   C     0.38947   0.55767   0.52644   0.00000  Uiso   1.00
C154   C     0.43542   0.50909   0.55907   0.00000  Uiso   1.00
C155   C     0.43240   0.46001   0.62789   0.00000  Uiso   1.00
C156   C     0.30066   0.60179   0.41159   0.00000  Uiso   1.00
C157   C     0.27194   0.59031   0.34764   0.00000  Uiso   1.00
C158   C     0.19416   0.57839   0.31977   0.00000  Uiso   1.00
C159   C     0.40178   0.68764   0.46036   0.00000  Uiso   1.00
C160   C     0.45808   0.74834   0.43741   0.00000  Uiso   1.00
C161   C     0.46542   0.80870   0.45058   0.00000  Uiso   1.00
H162   H     0.25996   0.61480   0.54283   0.00000  Uiso   1.00
H163   H     0.30247   0.50795   0.65708   0.00000  Uiso   1.00
H164   H     0.13902   0.58917   0.44568   0.00000  Uiso   1.00
H165   H     0.32513   0.74717   0.53544   0.00000  Uiso   1.00
H166   H     0.37043   0.38965   0.76836   0.00000  Uiso   1.00
H167   H     0.02579   0.56094   0.32260   0.00000  Uiso   1.00
H168   H     0.41823   0.89411   0.51187   0.00000  Uiso   1.00
H169   H     0.42068   0.61619   0.42431   0.00000  Uiso   1.00
H170   H     0.47202   0.50942   0.53206   0.00000  Uiso   1.00
H171   H     0.30856   0.59064   0.32066   0.00000  Uiso   1.00
H172   H     0.49467   0.74864   0.41042   0.00000  Uiso   1.00
H173   H     0.50804   0.39084   0.66689   0.00000  Uiso   1.00
H174   H     0.16340   0.56213   0.22113   0.00000  Uiso   1.00
H175   H     0.55584   0.89530   0.41040   0.00000  Uiso   1.00
O176   O     0.47009   0.31996   0.79064   0.00000  Uiso   1.00
O177   O     0.01793   0.54470   0.20581   0.00000  Uiso   1.00
O178   O     0.53281   0.98181   0.45413   0.00000  Uiso   1.00
N179   N     0.39579   0.40459   0.72970   0.00000  Uiso   1.00
N180   N     0.07357   0.56472   0.31294   0.00000  Uiso   1.00
N181   N     0.44045   0.87622   0.48988   0.00000  Uiso   1.00
N182   N     0.46983   0.40523   0.67510   0.00000  Uiso   1.00
N183   N     0.14761   0.56536   0.25834   0.00000  Uiso   1.00
N184   N     0.51450   0.87686   0.43528   0.00000  Uiso   1.00
C185   C     0.34174   0.17405   0.52515   0.00000  Uiso   1.00
C186   C     0.39410   0.24452   0.48935   0.00000  Uiso   1.00
C187   C     0.43401   0.25390   0.44384   0.00000  Uiso   1.00
C188   C     0.47885   0.32258   0.41658   0.00000  Uiso   1.00
C189   C     0.55941   0.42331   0.35828   0.00000  Uiso   1.00
C190   C     0.26546   0.19153   0.50315   0.00000  Uiso   1.00
C191   C     0.19721   0.15634   0.46924   0.00000  Uiso   1.00
C192   C     0.13376   0.18041   0.45360   0.00000  Uiso   1.00
C193   C     0.01459   0.19883   0.41677   0.00000  Uiso   1.00
C194   C     0.37159   0.15827   0.60524   0.00000  Uiso   1.00
C195   C     0.39256   0.09511   0.65717   0.00000  Uiso   1.00
C196   C     0.41845   0.09117   0.72750   0.00000  Uiso   1.00
C197   C     0.46407   0.05795   0.84917   0.00000  Uiso   1.00
C198   C     0.35040   0.27936   0.55768   0.00000  Uiso   1.00
C199   C     0.39880   0.30172   0.50702   0.00000  Uiso   1.00
C200   C     0.44360   0.37041   0.47983   0.00000  Uiso   1.00
C201   C     0.48357   0.37988   0.43428   0.00000  Uiso   1.00
C202   C     0.27016   0.24873   0.52082   0.00000  Uiso   1.00
C203   C     0.20680   0.27285   0.50523   0.00000  Uiso   1.00
C204   C     0.13847   0.23771   0.47131   0.00000  Uiso   1.00
C205   C     0.37630   0.21547   0.62291   0.00000  Uiso   1.00
C206   C     0.40215   0.21162   0.69317   0.00000  Uiso   1.00
C207   C     0.42316   0.14847   0.74520   0.00000  Uiso   1.00
H208   H     0.33807   0.12952   0.51139   0.00000  Uiso   1.00
H209   H     0.43035   0.20962   0.43017   0.00000  Uiso   1.00
H210   H     0.19359   0.11207   0.45558   0.00000  Uiso   1.00
H211   H     0.38891   0.05086   0.64348   0.00000  Uiso   1.00
H212   H     0.53471   0.32366   0.34789   0.00000  Uiso   1.00
H213   H     0.03548   0.11796   0.40149   0.00000  Uiso   1.00
H214   H     0.44736   0.98887   0.79772   0.00000  Uiso   1.00
H215   H     0.35407   0.32389   0.57144   0.00000  Uiso   1.00
H216   H     0.44723   0.41466   0.49352   0.00000  Uiso   1.00
H217   H     0.21046   0.31711   0.51892   0.00000  Uiso   1.00
H218   H     0.40579   0.25590   0.70682   0.00000  Uiso   1.00
H219   H     0.54840   0.49007   0.39930   0.00000  Uiso   1.00
H220   H     0.04917   0.28437   0.45290   0.00000  Uiso   1.00
H221   H     0.46105   0.15529   0.84913   0.00000  Uiso   1.00
O222   O     0.60253   0.46307   0.32123   0.00000  Uiso   1.00
O223   O     0.94756   0.19320   0.39156   0.00000  Uiso   1.00
O224   O     0.48794   0.02384   0.91140   0.00000  Uiso   1.00
N225   N     0.52516   0.35036   0.37070   0.00000  Uiso   1.00
N226   N     0.05841   0.15805   0.42079   0.00000  Uiso   1.00
N227   N     0.44346   0.03736   0.79124   0.00000  Uiso   1.00
N228   N     0.53253   0.43991   0.39836   0.00000  Uiso   1.00
N229   N     0.06578   0.24760   0.44846   0.00000  Uiso   1.00
N230   N     0.45083   0.12691   0.81890   0.00000  Uiso   1.00
C231   C     0.29909   0.61375   0.07924   0.00000  Uiso   1.00
C232   C     0.33507   0.67366   0.10972   0.00000  Uiso   1.00
C233   C     0.32419   0.74364   0.07511   0.00000  Uiso   1.00
C234   C     0.36218   0.79039   0.11207   0.00000  Uiso   1.00
C235   C     0.41085   0.88682   0.14890   0.00000  Uiso   1.00
C236   C     0.25738   0.55021   0.13271   0.00000  Uiso   1.00
C237   C     0.18118   0.51639   0.11743   0.00000  Uiso   1.00
C238   C     0.15379   0.45922   0.17374   0.00000  Uiso   1.00
C239   C     0.08186   0.36395   0.24626   0.00000  Uiso   1.00
C240   C     0.36430   0.58901   0.08245   0.00000  Uiso   1.00
C241   C     0.37800   0.58780   0.02491   0.00000  Uiso   1.00
C242   C     0.44061   0.56328   0.03890   0.00000  Uiso   1.00
C243   C     0.53469   0.52826   0.03337   0.00000  Uiso   1.00
C244   C     0.38591   0.57235   0.20642   0.00000  Uiso   1.00
C245   C     0.38223   0.65117   0.17880   0.00000  Uiso   1.00
C246   C     0.42025   0.69783   0.21582   0.00000  Uiso   1.00
C247   C     0.40943   0.76786   0.18127   0.00000  Uiso   1.00
C248   C     0.30454   0.52772   0.20179   0.00000  Uiso   1.00
C249   C     0.27725   0.47058   0.25813   0.00000  Uiso   1.00
C250   C     0.20103   0.43669   0.24294   0.00000  Uiso   1.00
C251   C     0.41147   0.56653   0.15152   0.00000  Uiso   1.00
C252   C     0.47406   0.54199   0.16561   0.00000  Uiso   1.00
C253   C     0.48785   0.54074   0.10810   0.00000  Uiso   1.00
H254   H     0.26236   0.63126   0.02547   0.00000  Uiso   1.00
H255   H     0.28768   0.76102   0.02166   0.00000  Uiso   1.00
H256   H     0.14470   0.53380   0.06397   0.00000  Uiso   1.00
H257   H     0.34149   0.60520   0.97146   0.00000  Uiso   1.00
H258   H     0.33652   0.89496   0.04791   0.00000  Uiso   1.00
H259   H     0.03506   0.41584   0.13712   0.00000  Uiso   1.00
H260   H     0.45001   0.56640   0.94205   0.00000  Uiso   1.00
H261   H     0.42263   0.55484   0.26020   0.00000  Uiso   1.00
H262   H     0.45675   0.68041   0.26927   0.00000  Uiso   1.00
H263   H     0.31377   0.45319   0.31158   0.00000  Uiso   1.00
H264   H     0.51055   0.52459   0.21907   0.00000  Uiso   1.00
H265   H     0.47374   0.82953   0.24888   0.00000  Uiso   1.00
H266   H     0.17227   0.35041   0.33809   0.00000  Uiso   1.00
H267   H     0.58723   0.50098   0.14302   0.00000  Uiso   1.00
O268   O     0.42466   0.94622   0.15014   0.00000  Uiso   1.00
O269   O     0.02915   0.31763   0.26717   0.00000  Uiso   1.00
O270   O     0.57356   0.51517   0.01124   0.00000  Uiso   1.00
N271   N     0.36414   0.86233   0.09396   0.00000  Uiso   1.00
N272   N     0.08229   0.41439   0.17737   0.00000  Uiso   1.00
N273   N     0.47022   0.55514   0.99499   0.00000  Uiso   1.00
N274   N     0.43798   0.82712   0.20210   0.00000  Uiso   1.00
N275   N     0.15613   0.37919   0.28551   0.00000  Uiso   1.00
N276   N     0.54406   0.51993   0.10313   0.00000  Uiso   1.00
C277   C     0.22516   0.42659   0.85629   0.00000  Uiso   1.00
C278   C     0.18955   0.38875   0.80268   0.00000  Uiso   1.00
C279   C     0.19164   0.42035   0.73147   0.00000  Uiso   1.00
C280   C     0.15567   0.37660   0.69124   0.00000  Uiso   1.00
C281   C     0.10599   0.32890   0.60345   0.00000  Uiso   1.00
C282   C     0.27821   0.38156   0.91860   0.00000  Uiso   1.00
C283   C     0.35484   0.40713   0.94486   0.00000  Uiso   1.00
C284   C     0.39350   0.35732   0.00222   0.00000  Uiso   1.00
C285   C     0.48145   0.29847   0.09443   0.00000  Uiso   1.00
C286   C     0.16141   0.41771   0.88540   0.00000  Uiso   1.00
C287   C     0.13984   0.47366   0.88377   0.00000  Uiso   1.00
C288   C     0.08016   0.45428   0.91319   0.00000  Uiso   1.00
C289   C     0.98675   0.45155   0.95386   0.00000  Uiso   1.00
C290   C     0.15755   0.29270   0.91146   0.00000  Uiso   1.00
C291   C     0.15283   0.31603   0.83265   0.00000  Uiso   1.00
C292   C     0.11684   0.27222   0.79252   0.00000  Uiso   1.00
C293   C     0.11888   0.30375   0.72126   0.00000  Uiso   1.00
C294   C     0.24149   0.30884   0.94857   0.00000  Uiso   1.00
C295   C     0.28004   0.25899   0.00591   0.00000  Uiso   1.00
C296   C     0.35671   0.28447   0.03225   0.00000  Uiso   1.00
C297   C     0.12468   0.34498   0.91537   0.00000  Uiso   1.00
C298   C     0.06503   0.32552   0.94481   0.00000  Uiso   1.00
C299   C     0.04337   0.38143   0.94322   0.00000  Uiso   1.00
H300   H     0.25376   0.48321   0.83296   0.00000  Uiso   1.00
H301   H     0.22008   0.47663   0.70830   0.00000  Uiso   1.00
H302   H     0.38325   0.46341   0.92166   0.00000  Uiso   1.00
H303   H     0.16827   0.52993   0.86057   0.00000  Uiso   1.00
H304   H     0.16656   0.43726   0.58331   0.00000  Uiso   1.00
H305   H     0.51061   0.40938   0.03322   0.00000  Uiso   1.00
H306   H     0.05729   0.54965   0.90440   0.00000  Uiso   1.00
H307   H     0.12896   0.23608   0.93480   0.00000  Uiso   1.00
H308   H     0.08842   0.21594   0.81572   0.00000  Uiso   1.00
H309   H     0.25160   0.20272   0.02909   0.00000  Uiso   1.00
H310   H     0.03662   0.26924   0.96800   0.00000  Uiso   1.00
H311   H     0.05971   0.22568   0.67050   0.00000  Uiso   1.00
H312   H     0.40376   0.19780   0.12041   0.00000  Uiso   1.00
H313   H     0.95044   0.33806   0.99159   0.00000  Uiso   1.00
O314   O     0.08874   0.32268   0.54675   0.00000  Uiso   1.00
O315   O     0.54011   0.28610   0.13701   0.00000  Uiso   1.00
O316   O     0.94537   0.47013   0.96800   0.00000  Uiso   1.00
N317   N     0.14696   0.39023   0.62017   0.00000  Uiso   1.00
N318   N     0.46863   0.36416   0.04080   0.00000  Uiso   1.00
N319   N     0.04483   0.49530   0.92038   0.00000  Uiso   1.00
N320   N     0.08947   0.27638   0.66709   0.00000  Uiso   1.00
N321   N     0.41113   0.25031   0.08771   0.00000  Uiso   1.00
N322   N     0.98733   0.38145   0.96730   0.00000  Uiso   1.00
C323   C     0.31401   0.04093   0.94658   0.00000  Uiso   1.00
C324   C     0.25247   0.03167   0.97861   0.00000  Uiso   1.00
C325   C     0.23085   0.97284   0.03697   0.00000  Uiso   1.00
C326   C     0.17340   0.97461   0.05806   0.00000  Uiso   1.00
C327   C     0.08311   0.95134   0.11330   0.00000  Uiso   1.00
C328   C     0.36964   0.11273   0.94772   0.00000  Uiso   1.00
C329   C     0.44654   0.12205   0.98010   0.00000  Uiso   1.00
C330   C     0.48772   0.19206   0.97518   0.00000  Uiso   1.00
C331   C     0.57936   0.29464   0.98242   0.00000  Uiso   1.00
C332   C     0.27636   0.05226   0.86794   0.00000  Uiso   1.00
C333   C     0.27484   0.01075   0.83324   0.00000  Uiso   1.00
C334   C     0.23750   0.02987   0.76113   0.00000  Uiso   1.00
C335   C     0.18430   0.03856   0.64451   0.00000  Uiso   1.00
C336   C     0.25041   0.14870   0.88024   0.00000  Uiso   1.00
C337   C     0.21792   0.09021   0.94258   0.00000  Uiso   1.00
C338   C     0.16048   0.09207   0.96358   0.00000  Uiso   1.00
C339   C     0.13879   0.03325   0.02196   0.00000  Uiso   1.00
C340   C     0.33510   0.17126   0.91169   0.00000  Uiso   1.00
C341   C     0.37618   0.24128   0.90671   0.00000  Uiso   1.00
C342   C     0.45312   0.25070   0.93908   0.00000  Uiso   1.00
C343   C     0.24181   0.11079   0.83191   0.00000  Uiso   1.00
C344   C     0.20447   0.12998   0.75984   0.00000  Uiso   1.00
C345   C     0.20290   0.08851   0.72504   0.00000  Uiso   1.00
H346   H     0.34091   0.99536   0.97463   0.00000  Uiso   1.00
H347   H     0.25760   0.92755   0.06484   0.00000  Uiso   1.00
H348   H     0.47326   0.07674   0.00798   0.00000  Uiso   1.00
H349   H     0.30158   0.96546   0.86114   0.00000  Uiso   1.00
H350   H     0.15003   0.87820   0.14899   0.00000  Uiso   1.00
H351   H     0.60475   0.19277   0.02907   0.00000  Uiso   1.00
H352   H     0.24274   0.95811   0.71942   0.00000  Uiso   1.00
H353   H     0.22352   0.19428   0.85218   0.00000  Uiso   1.00
H354   H     0.13376   0.13738   0.93568   0.00000  Uiso   1.00
H355   H     0.34942   0.28657   0.87882   0.00000  Uiso   1.00
H356   H     0.17774   0.17529   0.73198   0.00000  Uiso   1.00
H357   H     0.04951   0.04850   0.04416   0.00000  Uiso   1.00
H358   H     0.50425   0.36307   0.92424   0.00000  Uiso   1.00
H359   H     0.14223   0.12842   0.61459   0.00000  Uiso   1.00
O360   O     0.04286   0.92234   0.15373   0.00000  Uiso   1.00
O361   O     0.63945   0.33505   0.99638   0.00000  Uiso   1.00
O362   O     0.16449   0.02718   0.59013   0.00000  Uiso   1.00
N363   N     0.13868   0.92608   0.11285   0.00000  Uiso   1.00
N364   N     0.56382   0.22018   0.00074   0.00000  Uiso   1.00
N365   N     0.22538   0.00081   0.71124   0.00000  Uiso   1.00
N366   N     0.08459   0.01772   0.05644   0.00000  Uiso   1.00
N367   N     0.50973   0.31182   0.94433   0.00000  Uiso   1.00
N368   N     0.17130   0.09245   0.65483   0.00000  Uiso   1.00
C369   C     0.30652   0.06274   0.34985   0.00000  Uiso   1.00
C370   C     0.24839   0.10366   0.29039   0.00000  Uiso   1.00
C371   C     0.22190   0.15409   0.29316   0.00000  Uiso   1.00
C372   C     0.16878   0.18554   0.23321   0.00000  Uiso   1.00
C373   C     0.08245   0.25190   0.15007   0.00000  Uiso   1.00
C374   C     0.36997   0.07904   0.31681   0.00000  Uiso   1.00
C375   C     0.44570   0.10877   0.34180   0.00000  Uiso   1.00
C376   C     0.49492   0.11948   0.30409   0.00000  Uiso   1.00
C377   C     0.59736   0.14757   0.26200   0.00000  Uiso   1.00
C378   C     0.26882   0.98234   0.36601   0.00000  Uiso   1.00
C379   C     0.25953   0.93076   0.43237   0.00000  Uiso   1.00
C380   C     0.22361   0.86006   0.43608   0.00000  Uiso   1.00
C381   C     0.16901   0.73802   0.47038   0.00000  Uiso   1.00
C382   C     0.25927   0.02891   0.23844   0.00000  Uiso   1.00
C383   C     0.22273   0.08528   0.22988   0.00000  Uiso   1.00
C384   C     0.16962   0.11666   0.16990   0.00000  Uiso   1.00
C385   C     0.14306   0.16713   0.17258   0.00000  Uiso   1.00
C386   C     0.34430   0.06066   0.25630   0.00000  Uiso   1.00
C387   C     0.39343   0.07133   0.21854   0.00000  Uiso   1.00
C388   C     0.46922   0.10107   0.24346   0.00000  Uiso   1.00
C389   C     0.24316   0.96396   0.30549   0.00000  Uiso   1.00
C390   C     0.20725   0.89333   0.30911   0.00000  Uiso   1.00
C391   C     0.19790   0.84165   0.37546   0.00000  Uiso   1.00
H392   H     0.32650   0.07705   0.39696   0.00000  Uiso   1.00
H393   H     0.24178   0.16830   0.34000   0.00000  Uiso   1.00
H394   H     0.46555   0.12297   0.38864   0.00000  Uiso   1.00
H395   H     0.27940   0.94500   0.47919   0.00000  Uiso   1.00
H396   H     0.13656   0.26140   0.25015   0.00000  Uiso   1.00
H397   H     0.60838   0.16579   0.35271   0.00000  Uiso   1.00
H398   H     0.21586   0.79050   0.54366   0.00000  Uiso   1.00
H399   H     0.23929   0.01460   0.19133   0.00000  Uiso   1.00
H400   H     0.14977   0.10243   0.12308   0.00000  Uiso   1.00
H401   H     0.37354   0.05710   0.17172   0.00000  Uiso   1.00
H402   H     0.18740   0.87913   0.26227   0.00000  Uiso   1.00
H403   H     0.06188   0.20793   0.07409   0.00000  Uiso   1.00
H404   H     0.53371   0.11233   0.17665   0.00000  Uiso   1.00
H405   H     0.14119   0.73704   0.36760   0.00000  Uiso   1.00
O406   O     0.04193   0.29359   0.12092   0.00000  Uiso   1.00
O407   O     0.66095   0.16815   0.25549   0.00000  Uiso   1.00
O408   O     0.14597   0.67578   0.50601   0.00000  Uiso   1.00
N409   N     0.13126   0.23675   0.21808   0.00000  Uiso   1.00
N410   N     0.57238   0.14738   0.31397   0.00000  Uiso   1.00
N411   N     0.20543   0.79651   0.49250   0.00000  Uiso   1.00
N412   N     0.09107   0.20798   0.12335   0.00000  Uiso   1.00
N413   N     0.53220   0.11861   0.21923   0.00000  Uiso   1.00
N414   N     0.16524   0.76774   0.39776   0.00000  Uiso   1.00
C415   C     0.81803   0.55717   0.43206   0.00000  Uiso   1.00
C416   C     0.75806   0.59141   0.42439   0.00000  Uiso   1.00
C417   C     0.73594   0.65158   0.36717   0.00000  Uiso   1.00
C418   C     0.68016   0.67453   0.37024   0.00000  Uiso   1.00
C419   C     0.59201   0.73319   0.34949   0.00000  Uiso   1.00
C420   C     0.87582   0.55685   0.50267   0.00000  Uiso   1.00
C421   C     0.95272   0.58796   0.51127   0.00000  Uiso   1.00
C422   C     0.99607   0.58181   0.58024   0.00000  Uiso   1.00
C423   C     0.09075   0.58678   0.68103   0.00000  Uiso   1.00
C424   C     0.77927   0.47786   0.44258   0.00000  Uiso   1.00
C425   C     0.77500   0.44253   0.40066   0.00000  Uiso   1.00
C426   C     0.73708   0.36987   0.41904   0.00000  Uiso   1.00
C427   C     0.68185   0.25218   0.42653   0.00000  Uiso   1.00
C428   C     0.75829   0.49092   0.53925   0.00000  Uiso   1.00
C429   C     0.72562   0.55543   0.48261   0.00000  Uiso   1.00
C430   C     0.66985   0.57829   0.48577   0.00000  Uiso   1.00
C431   C     0.64765   0.63848   0.42857   0.00000  Uiso   1.00
C432   C     0.84338   0.52087   0.56089   0.00000  Uiso   1.00
C433   C     0.88663   0.51467   0.62987   0.00000  Uiso   1.00
C434   C     0.96357   0.54577   0.63857   0.00000  Uiso   1.00
C435   C     0.74682   0.44187   0.50080   0.00000  Uiso   1.00
C436   C     0.70891   0.36924   0.51926   0.00000  Uiso   1.00
C437   C     0.70458   0.33382   0.47737   0.00000  Uiso   1.00
H438   H     0.84329   0.58518   0.38673   0.00000  Uiso   1.00
H439   H     0.76107   0.67941   0.32213   0.00000  Uiso   1.00
H440   H     0.97781   0.61580   0.46620   0.00000  Uiso   1.00
H441   H     0.80012   0.47039   0.35561   0.00000  Uiso   1.00
H442   H     0.65562   0.76803   0.27619   0.00000  Uiso   1.00
H443   H     0.11264   0.63388   0.57999   0.00000  Uiso   1.00
H444   H     0.73794   0.32726   0.34677   0.00000  Uiso   1.00
H445   H     0.73303   0.46291   0.58458   0.00000  Uiso   1.00
H446   H     0.64475   0.55043   0.53083   0.00000  Uiso   1.00
H447   H     0.86150   0.48682   0.67491   0.00000  Uiso   1.00
H448   H     0.68380   0.34142   0.56432   0.00000  Uiso   1.00
H449   H     0.56122   0.66335   0.44558   0.00000  Uiso   1.00
H450   H     0.01824   0.52919   0.74938   0.00000  Uiso   1.00
H451   H     0.64353   0.22258   0.51617   0.00000  Uiso   1.00
O452   O     0.55236   0.77549   0.32197   0.00000  Uiso   1.00
O453   O     0.15194   0.59947   0.72054   0.00000  Uiso   1.00
O454   O     0.66034   0.19720   0.41457   0.00000  Uiso   1.00
N455   N     0.64551   0.73138   0.32342   0.00000  Uiso   1.00
N456   N     0.07279   0.60596   0.60746   0.00000  Uiso   1.00
N457   N     0.72249   0.31930   0.38943   0.00000  Uiso   1.00
N458   N     0.59471   0.67505   0.41457   0.00000  Uiso   1.00
N459   N     0.02199   0.54963   0.69861   0.00000  Uiso   1.00
N460   N     0.67169   0.26297   0.48058   0.00000  Uiso   1.00
C461   C     0.82252   0.97108   0.45478   0.00000  Uiso   1.00
C462   C     0.76572   0.91309   0.49646   0.00000  Uiso   1.00
C463   C     0.74237   0.91878   0.54613   0.00000  Uiso   1.00
C464   C     0.68999   0.85974   0.57849   0.00000  Uiso   1.00
C465   C     0.60609   0.77918   0.64579   0.00000  Uiso   1.00
C466   C     0.88449   0.93495   0.47080   0.00000  Uiso   1.00
C467   C     0.96100   0.95903   0.49888   0.00000  Uiso   1.00
C468   C     0.00860   0.91840   0.50963   0.00000  Uiso   1.00
C469   C     0.10910   0.87180   0.53704   0.00000  Uiso   1.00
C470   C     0.78206   0.98643   0.37593   0.00000  Uiso   1.00
C471   C     0.77245   0.05379   0.32425   0.00000  Uiso   1.00
C472   C     0.73382   0.05650   0.25512   0.00000  Uiso   1.00
C473   C     0.67526   0.08983   0.13524   0.00000  Uiso   1.00
C474   C     0.77102   0.85612   0.42392   0.00000  Uiso   1.00
C475   C     0.73775   0.85065   0.47970   0.00000  Uiso   1.00
C476   C     0.68539   0.79159   0.51200   0.00000  Uiso   1.00
C477   C     0.66197   0.79719   0.56170   0.00000  Uiso   1.00
C478   C     0.85652   0.87251   0.45404   0.00000  Uiso   1.00
C479   C     0.90402   0.83184   0.46475   0.00000  Uiso   1.00
C480   C     0.98058   0.85584   0.49284   0.00000  Uiso   1.00
C481   C     0.75408   0.92398   0.35917   0.00000  Uiso   1.00
C482   C     0.71547   0.92659   0.29011   0.00000  Uiso   1.00
C483   C     0.70580   0.99394   0.23833   0.00000  Uiso   1.00
H484   H     0.84430   0.01970   0.46783   0.00000  Uiso   1.00
H485   H     0.76404   0.96711   0.55909   0.00000  Uiso   1.00
H486   H     0.98264   0.00735   0.51184   0.00000  Uiso   1.00
H487   H     0.79411   0.10209   0.33724   0.00000  Uiso   1.00
H488   H     0.66274   0.88126   0.65290   0.00000  Uiso   1.00
H489   H     0.12366   0.96613   0.55325   0.00000  Uiso   1.00
H490   H     0.72612   0.16592   0.18506   0.00000  Uiso   1.00
H491   H     0.74924   0.80751   0.41088   0.00000  Uiso   1.00
H492   H     0.66375   0.74327   0.49902   0.00000  Uiso   1.00
H493   H     0.88235   0.78352   0.45177   0.00000  Uiso   1.00
H494   H     0.69383   0.87826   0.27716   0.00000  Uiso   1.00
H495   H     0.58135   0.69958   0.60415   0.00000  Uiso   1.00
H496   H     0.04227   0.78446   0.50449   0.00000  Uiso   1.00
H497   H     0.64472   0.98424   0.13630   0.00000  Uiso   1.00
O498   O     0.56754   0.75198   0.68755   0.00000  Uiso   1.00
O499   O     0.17226   0.86335   0.55680   0.00000  Uiso   1.00
O500   O     0.65068   0.12546   0.07374   0.00000  Uiso   1.00
N501   N     0.65530   0.84732   0.62932   0.00000  Uiso   1.00
N502   N     0.08624   0.92667   0.53617   0.00000  Uiso   1.00
N503   N     0.71458   0.11345   0.19193   0.00000  Uiso   1.00
N504   N     0.61150   0.74956   0.60309   0.00000  Uiso   1.00
N505   N     0.04244   0.82891   0.50993   0.00000  Uiso   1.00
N506   N     0.67079   0.01570   0.16569   0.00000  Uiso   1.00
C507   C     0.72855   0.47272   0.80688   0.00000  Uiso   1.00
C508   C     0.69196   0.41830   0.76959   0.00000  Uiso   1.00
C509   C     0.69413   0.34570   0.80079   0.00000  Uiso   1.00
C510   C     0.65716   0.30492   0.75767   0.00000  Uiso   1.00
C511   C     0.60611   0.21575   0.71067   0.00000  Uiso   1.00
C512   C     0.78079   0.53507   0.76259   0.00000  Uiso   1.00
C513   C     0.85765   0.56065   0.78790   0.00000  Uiso   1.00
C514   C     0.89545   0.61817   0.73889   0.00000  Uiso   1.00
C515   C     0.98231   0.71032   0.68103   0.00000  Uiso   1.00
C516   C     0.66528   0.50364   0.79796   0.00000  Uiso   1.00
C517   C     0.64502   0.50281   0.85301   0.00000  Uiso   1.00
C518   C     0.58558   0.53389   0.83376   0.00000  Uiso   1.00
C519   C     0.49309   0.57723   0.83082   0.00000  Uiso   1.00
C520   C     0.65904   0.52940   0.67482   0.00000  Uiso   1.00
C521   C     0.65420   0.44909   0.69786   0.00000  Uiso   1.00
C522   C     0.61721   0.40841   0.65469   0.00000  Uiso   1.00
C523   C     0.61933   0.33576   0.68582   0.00000  Uiso   1.00
C524   C     0.74304   0.56585   0.69086   0.00000  Uiso   1.00
C525   C     0.78073   0.62335   0.64180   0.00000  Uiso   1.00
C526   C     0.85763   0.64901   0.66703   0.00000  Uiso   1.00
C527   C     0.62752   0.53442   0.72623   0.00000  Uiso   1.00
C528   C     0.56811   0.56551   0.70690   0.00000  Uiso   1.00
C529   C     0.54776   0.56473   0.76191   0.00000  Uiso   1.00
H530   H     0.75796   0.44876   0.86272   0.00000  Uiso   1.00
H531   H     0.72336   0.32190   0.85630   0.00000  Uiso   1.00
H532   H     0.88685   0.53682   0.84341   0.00000  Uiso   1.00
H533   H     0.67426   0.47899   0.90850   0.00000  Uiso   1.00
H534   H     0.66838   0.19484   0.81754   0.00000  Uiso   1.00
H535   H     0.01310   0.64802   0.79038   0.00000  Uiso   1.00
H536   H     0.56480   0.52607   0.92764   0.00000  Uiso   1.00
H537   H     0.62964   0.55337   0.61898   0.00000  Uiso   1.00
H538   H     0.58800   0.43225   0.59918   0.00000  Uiso   1.00
H539   H     0.75149   0.64717   0.58630   0.00000  Uiso   1.00
H540   H     0.53890   0.58933   0.65139   0.00000  Uiso   1.00
H541   H     0.55852   0.28440   0.60885   0.00000  Uiso   1.00
H542   H     0.90324   0.73759   0.58170   0.00000  Uiso   1.00
H543   H     0.45494   0.61563   0.71895   0.00000  Uiso   1.00
O544   O     0.58839   0.15806   0.70456   0.00000  Uiso   1.00
O545   O     0.04065   0.75263   0.66894   0.00000  Uiso   1.00
O546   O     0.45250   0.59262   0.84901   0.00000  Uiso   1.00
N547   N     0.64822   0.23254   0.77115   0.00000  Uiso   1.00
N548   N     0.97052   0.65623   0.74575   0.00000  Uiso   1.00
N549   N     0.55142   0.54223   0.87407   0.00000  Uiso   1.00
N550   N     0.58911   0.28073   0.65885   0.00000  Uiso   1.00
N551   N     0.91141   0.70442   0.63346   0.00000  Uiso   1.00
N552   N     0.49230   0.59042   0.76178   0.00000  Uiso   1.00
