data_job_05338
_audit_creation_date              2018-12-19
_audit_creation_method            'Materials Studio'
_symmetry_space_group_name_H-M    'P1'
_symmetry_Int_Tables_number       1
_symmetry_cell_setting            triclinic
loop_
_symmetry_equiv_pos_as_xyz
  x,y,z
_cell_length_a                    16.8225
_cell_length_b                    22.7702
_cell_length_c                    15.0731
_cell_angle_alpha                 90.0000
_cell_angle_beta                  90.0000
_cell_angle_gamma                 90.0000
loop_
_atom_site_label
_atom_site_type_symbol
_atom_site_fract_x
_atom_site_fract_y
_atom_site_fract_z
_atom_site_U_iso_or_equiv
_atom_site_adp_type
_atom_site_occupancy
C1     C     0.99188   0.74381   0.06728   0.00000  Uiso   1.00
C2     C     0.93799   0.73252   0.98774   0.00000  Uiso   1.00
C3     C     0.85677   0.72211   0.99126   0.00000  Uiso   1.00
C4     C     0.81814   0.71277   0.91110   0.00000  Uiso   1.00
C5     C     0.72820   0.69507   0.79988   0.00000  Uiso   1.00
C6     C     0.05736   0.69760   0.06252   0.00000  Uiso   1.00
C7     C     0.07650   0.65782   0.12893   0.00000  Uiso   1.00
C8     C     0.13836   0.61909   0.11173   0.00000  Uiso   1.00
C9     C     0.23377   0.54718   0.11663   0.00000  Uiso   1.00
C10    C     0.03226   0.80263   0.04973   0.00000  Uiso   1.00
C11    C     0.03032   0.85116   0.10539   0.00000  Uiso   1.00
C12    C     0.07106   0.90085   0.07742   0.00000  Uiso   1.00
C13    C     0.12751   0.99202   0.06246   0.00000  Uiso   1.00
C14    C     0.06770   0.74576   0.91865   0.00000  Uiso   1.00
C15    C     0.97917   0.73358   0.90701   0.00000  Uiso   1.00
C16    C     0.94065   0.72427   0.82682   0.00000  Uiso   1.00
C17    C     0.85939   0.71384   0.83023   0.00000  Uiso   1.00
C18    C     0.09853   0.69865   0.98180   0.00000  Uiso   1.00
C19    C     0.16038   0.65998   0.96449   0.00000  Uiso   1.00
C20    C     0.17961   0.62015   0.03085   0.00000  Uiso   1.00
C21    C     0.07344   0.80369   0.96900   0.00000  Uiso   1.00
C22    C     0.11419   0.85332   0.94094   0.00000  Uiso   1.00
C23    C     0.11231   0.90191   0.99654   0.00000  Uiso   1.00
H24    H     0.95983   0.74298   0.13014   0.00000  Uiso   1.00
H25    H     0.82493   0.72128   0.05376   0.00000  Uiso   1.00
H26    H     0.04463   0.65701   0.19140   0.00000  Uiso   1.00
H27    H     0.99845   0.85032   0.16786   0.00000  Uiso   1.00
H28    H     0.69353   0.69768   0.93347   0.00000  Uiso   1.00
H29    H     0.15680   0.56217   0.22372   0.00000  Uiso   1.00
H30    H     0.05943   0.96980   0.17408   0.00000  Uiso   1.00
H31    H     0.09976   0.74658   0.85580   0.00000  Uiso   1.00
H32    H     0.97253   0.72509   0.76436   0.00000  Uiso   1.00
H33    H     0.19223   0.66081   0.90201   0.00000  Uiso   1.00
H34    H     0.14605   0.85412   0.87846   0.00000  Uiso   1.00
H35    H     0.81333   0.70077   0.69859   0.00000  Uiso   1.00
H36    H     0.27661   0.56525   0.98884   0.00000  Uiso   1.00
H37    H     0.17922   0.97288   0.93919   0.00000  Uiso   1.00
O38    O     0.66722   0.68500   0.76083   0.00000  Uiso   1.00
O39    O     0.27502   0.50722   0.14164   0.00000  Uiso   1.00
O40    O     0.14726   0.04202   0.07650   0.00000  Uiso   1.00
N41    N     0.73918   0.70137   0.89074   0.00000  Uiso   1.00
N42    N     0.17231   0.57466   0.16210   0.00000  Uiso   1.00
N43    N     0.08128   0.95576   0.11570   0.00000  Uiso   1.00
N44    N     0.80365   0.70303   0.76435   0.00000  Uiso   1.00
N45    N     0.23677   0.57632   0.03571   0.00000  Uiso   1.00
N46    N     0.14575   0.95742   0.98931   0.00000  Uiso   1.00
C47    C     0.50816   0.25622   0.43209   0.00000  Uiso   1.00
C48    C     0.56203   0.26748   0.51166   0.00000  Uiso   1.00
C49    C     0.64326   0.27788   0.50817   0.00000  Uiso   1.00
C50    C     0.68187   0.28718   0.58836   0.00000  Uiso   1.00
C51    C     0.77179   0.30480   0.69963   0.00000  Uiso   1.00
C52    C     0.46778   0.19739   0.44962   0.00000  Uiso   1.00
C53    C     0.46976   0.14886   0.39396   0.00000  Uiso   1.00
C54    C     0.42902   0.09916   0.42192   0.00000  Uiso   1.00
C55    C     0.37257   0.00799   0.43684   0.00000  Uiso   1.00
C56    C     0.44269   0.30243   0.43682   0.00000  Uiso   1.00
C57    C     0.42355   0.34220   0.37040   0.00000  Uiso   1.00
C58    C     0.36168   0.38092   0.38758   0.00000  Uiso   1.00
C59    C     0.26627   0.45282   0.38264   0.00000  Uiso   1.00
C60    C     0.43230   0.25426   0.58069   0.00000  Uiso   1.00
C61    C     0.52082   0.26641   0.59237   0.00000  Uiso   1.00
C62    C     0.55932   0.27570   0.67258   0.00000  Uiso   1.00
C63    C     0.64059   0.28611   0.66922   0.00000  Uiso   1.00
C64    C     0.42658   0.19633   0.53033   0.00000  Uiso   1.00
C65    C     0.38582   0.14669   0.55837   0.00000  Uiso   1.00
C66    C     0.38774   0.09809   0.50277   0.00000  Uiso   1.00
C67    C     0.40149   0.30136   0.51754   0.00000  Uiso   1.00
C68    C     0.33963   0.34003   0.53482   0.00000  Uiso   1.00
C69    C     0.32040   0.37985   0.46844   0.00000  Uiso   1.00
H70    H     0.54024   0.25704   0.36925   0.00000  Uiso   1.00
H71    H     0.67513   0.27869   0.44570   0.00000  Uiso   1.00
H72    H     0.50164   0.14970   0.33150   0.00000  Uiso   1.00
H73    H     0.45545   0.34301   0.30795   0.00000  Uiso   1.00
H74    H     0.80650   0.30220   0.56605   0.00000  Uiso   1.00
H75    H     0.44069   0.03022   0.32525   0.00000  Uiso   1.00
H76    H     0.34328   0.43785   0.27559   0.00000  Uiso   1.00
H77    H     0.40022   0.25342   0.64353   0.00000  Uiso   1.00
H78    H     0.52742   0.27488   0.73503   0.00000  Uiso   1.00
H79    H     0.35394   0.14588   0.62083   0.00000  Uiso   1.00
H80    H     0.30775   0.33919   0.59728   0.00000  Uiso   1.00
H81    H     0.68662   0.29910   0.80089   0.00000  Uiso   1.00
H82    H     0.32080   0.02712   0.56007   0.00000  Uiso   1.00
H83    H     0.22340   0.43475   0.51042   0.00000  Uiso   1.00
O84    O     0.83277   0.31481   0.73872   0.00000  Uiso   1.00
O85    O     0.35282   0.95799   0.42278   0.00000  Uiso   1.00
O86    O     0.22503   0.49278   0.35763   0.00000  Uiso   1.00
N87    N     0.76083   0.29854   0.60876   0.00000  Uiso   1.00
N88    N     0.41882   0.04425   0.38363   0.00000  Uiso   1.00
N89    N     0.32774   0.42534   0.33719   0.00000  Uiso   1.00
N90    N     0.69632   0.29687   0.73512   0.00000  Uiso   1.00
N91    N     0.35432   0.04258   0.50999   0.00000  Uiso   1.00
N92    N     0.26324   0.42367   0.46355   0.00000  Uiso   1.00
C93    C     0.00812   0.25619   0.06728   0.00000  Uiso   1.00
C94    C     0.06201   0.26748   0.98774   0.00000  Uiso   1.00
C95    C     0.14323   0.27789   0.99126   0.00000  Uiso   1.00
C96    C     0.18186   0.28723   0.91110   0.00000  Uiso   1.00
C97    C     0.27180   0.30493   0.79988   0.00000  Uiso   1.00
C98    C     0.94264   0.30240   0.06252   0.00000  Uiso   1.00
C99    C     0.92350   0.34218   0.12893   0.00000  Uiso   1.00
C100   C     0.86164   0.38091   0.11173   0.00000  Uiso   1.00
C101   C     0.76623   0.45282   0.11663   0.00000  Uiso   1.00
C102   C     0.96774   0.19737   0.04973   0.00000  Uiso   1.00
C103   C     0.96968   0.14884   0.10539   0.00000  Uiso   1.00
C104   C     0.92894   0.09915   0.07742   0.00000  Uiso   1.00
C105   C     0.87249   0.00798   0.06246   0.00000  Uiso   1.00
C106   C     0.93230   0.25424   0.91865   0.00000  Uiso   1.00
C107   C     0.02083   0.26642   0.90701   0.00000  Uiso   1.00
C108   C     0.05935   0.27573   0.82682   0.00000  Uiso   1.00
C109   C     0.14061   0.28616   0.83023   0.00000  Uiso   1.00
C110   C     0.90147   0.30135   0.98180   0.00000  Uiso   1.00
C111   C     0.83962   0.34002   0.96449   0.00000  Uiso   1.00
C112   C     0.82039   0.37985   0.03085   0.00000  Uiso   1.00
C113   C     0.92656   0.19631   0.96900   0.00000  Uiso   1.00
C114   C     0.88581   0.14668   0.94094   0.00000  Uiso   1.00
C115   C     0.88769   0.09809   0.99654   0.00000  Uiso   1.00
H116   H     0.04017   0.25702   0.13014   0.00000  Uiso   1.00
H117   H     0.17507   0.27872   0.05376   0.00000  Uiso   1.00
H118   H     0.95537   0.34299   0.19140   0.00000  Uiso   1.00
H119   H     0.00155   0.14968   0.16786   0.00000  Uiso   1.00
H120   H     0.30647   0.30232   0.93347   0.00000  Uiso   1.00
H121   H     0.84320   0.43783   0.22372   0.00000  Uiso   1.00
H122   H     0.94057   0.03020   0.17408   0.00000  Uiso   1.00
H123   H     0.90024   0.25342   0.85580   0.00000  Uiso   1.00
H124   H     0.02747   0.27491   0.76436   0.00000  Uiso   1.00
H125   H     0.80777   0.33919   0.90201   0.00000  Uiso   1.00
H126   H     0.85395   0.14588   0.87846   0.00000  Uiso   1.00
H127   H     0.18667   0.29923   0.69859   0.00000  Uiso   1.00
H128   H     0.72339   0.43475   0.98884   0.00000  Uiso   1.00
H129   H     0.82078   0.02712   0.93919   0.00000  Uiso   1.00
O130   O     0.33278   0.31500   0.76083   0.00000  Uiso   1.00
O131   O     0.72498   0.49278   0.14164   0.00000  Uiso   1.00
O132   O     0.85274   0.95798   0.07650   0.00000  Uiso   1.00
N133   N     0.26082   0.29863   0.89074   0.00000  Uiso   1.00
N134   N     0.82769   0.42534   0.16210   0.00000  Uiso   1.00
N135   N     0.91872   0.04424   0.11570   0.00000  Uiso   1.00
N136   N     0.19635   0.29697   0.76435   0.00000  Uiso   1.00
N137   N     0.76323   0.42368   0.03571   0.00000  Uiso   1.00
N138   N     0.85425   0.04258   0.98931   0.00000  Uiso   1.00
C139   C     0.49184   0.74378   0.43209   0.00000  Uiso   1.00
C140   C     0.43797   0.73252   0.51166   0.00000  Uiso   1.00
C141   C     0.35674   0.72212   0.50817   0.00000  Uiso   1.00
C142   C     0.31813   0.71282   0.58836   0.00000  Uiso   1.00
C143   C     0.22821   0.69520   0.69963   0.00000  Uiso   1.00
C144   C     0.53222   0.80261   0.44962   0.00000  Uiso   1.00
C145   C     0.53024   0.85114   0.39396   0.00000  Uiso   1.00
C146   C     0.57098   0.90084   0.42192   0.00000  Uiso   1.00
C147   C     0.62743   0.99201   0.43684   0.00000  Uiso   1.00
C148   C     0.55731   0.69757   0.43682   0.00000  Uiso   1.00
C149   C     0.57645   0.65780   0.37040   0.00000  Uiso   1.00
C150   C     0.63832   0.61908   0.38758   0.00000  Uiso   1.00
C151   C     0.73373   0.54718   0.38264   0.00000  Uiso   1.00
C152   C     0.56770   0.74574   0.58069   0.00000  Uiso   1.00
C153   C     0.47918   0.73359   0.59237   0.00000  Uiso   1.00
C154   C     0.44068   0.72430   0.67258   0.00000  Uiso   1.00
C155   C     0.35941   0.71389   0.66922   0.00000  Uiso   1.00
C156   C     0.57342   0.80367   0.53033   0.00000  Uiso   1.00
C157   C     0.61418   0.85331   0.55837   0.00000  Uiso   1.00
C158   C     0.61226   0.90191   0.50277   0.00000  Uiso   1.00
C159   C     0.59851   0.69864   0.51754   0.00000  Uiso   1.00
C160   C     0.66037   0.65997   0.53482   0.00000  Uiso   1.00
C161   C     0.67960   0.62015   0.46844   0.00000  Uiso   1.00
H162   H     0.45976   0.74296   0.36925   0.00000  Uiso   1.00
H163   H     0.32487   0.72131   0.44570   0.00000  Uiso   1.00
H164   H     0.49836   0.85030   0.33150   0.00000  Uiso   1.00
H165   H     0.54455   0.65699   0.30795   0.00000  Uiso   1.00
H166   H     0.19350   0.69780   0.56605   0.00000  Uiso   1.00
H167   H     0.55931   0.96978   0.32525   0.00000  Uiso   1.00
H168   H     0.65672   0.56215   0.27559   0.00000  Uiso   1.00
H169   H     0.59978   0.74658   0.64353   0.00000  Uiso   1.00
H170   H     0.47258   0.72512   0.73503   0.00000  Uiso   1.00
H171   H     0.64606   0.85412   0.62083   0.00000  Uiso   1.00
H172   H     0.69225   0.66081   0.59728   0.00000  Uiso   1.00
H173   H     0.31338   0.70090   0.80089   0.00000  Uiso   1.00
H174   H     0.67920   0.97288   0.56007   0.00000  Uiso   1.00
H175   H     0.77660   0.56525   0.51042   0.00000  Uiso   1.00
O176   O     0.16723   0.68519   0.73872   0.00000  Uiso   1.00
O177   O     0.64718   0.04201   0.42278   0.00000  Uiso   1.00
O178   O     0.77497   0.50722   0.35763   0.00000  Uiso   1.00
N179   N     0.23917   0.70146   0.60876   0.00000  Uiso   1.00
N180   N     0.58118   0.95575   0.38363   0.00000  Uiso   1.00
N181   N     0.67226   0.57466   0.33719   0.00000  Uiso   1.00
N182   N     0.30368   0.70313   0.73512   0.00000  Uiso   1.00
N183   N     0.64568   0.95742   0.50999   0.00000  Uiso   1.00
N184   N     0.73676   0.57633   0.46355   0.00000  Uiso   1.00
C185   C     0.99188   0.75619   0.56728   0.00000  Uiso   1.00
C186   C     0.93799   0.76748   0.48774   0.00000  Uiso   1.00
C187   C     0.85677   0.77789   0.49126   0.00000  Uiso   1.00
C188   C     0.81814   0.78723   0.41110   0.00000  Uiso   1.00
C189   C     0.72820   0.80493   0.29988   0.00000  Uiso   1.00
C190   C     0.05736   0.80240   0.56252   0.00000  Uiso   1.00
C191   C     0.07650   0.84218   0.62893   0.00000  Uiso   1.00
C192   C     0.13836   0.88091   0.61173   0.00000  Uiso   1.00
C193   C     0.23377   0.95282   0.61663   0.00000  Uiso   1.00
C194   C     0.03226   0.69737   0.54973   0.00000  Uiso   1.00
C195   C     0.03032   0.64884   0.60539   0.00000  Uiso   1.00
C196   C     0.07106   0.59915   0.57742   0.00000  Uiso   1.00
C197   C     0.12751   0.50798   0.56246   0.00000  Uiso   1.00
C198   C     0.06770   0.75424   0.41865   0.00000  Uiso   1.00
C199   C     0.97917   0.76642   0.40701   0.00000  Uiso   1.00
C200   C     0.94065   0.77573   0.32682   0.00000  Uiso   1.00
C201   C     0.85939   0.78616   0.33023   0.00000  Uiso   1.00
C202   C     0.09853   0.80135   0.48180   0.00000  Uiso   1.00
C203   C     0.16038   0.84002   0.46449   0.00000  Uiso   1.00
C204   C     0.17961   0.87985   0.53085   0.00000  Uiso   1.00
C205   C     0.07344   0.69631   0.46900   0.00000  Uiso   1.00
C206   C     0.11419   0.64668   0.44094   0.00000  Uiso   1.00
C207   C     0.11231   0.59809   0.49654   0.00000  Uiso   1.00
H208   H     0.95983   0.75702   0.63014   0.00000  Uiso   1.00
H209   H     0.82493   0.77872   0.55376   0.00000  Uiso   1.00
H210   H     0.04463   0.84299   0.69140   0.00000  Uiso   1.00
H211   H     0.99845   0.64968   0.66786   0.00000  Uiso   1.00
H212   H     0.69353   0.80232   0.43347   0.00000  Uiso   1.00
H213   H     0.15680   0.93783   0.72372   0.00000  Uiso   1.00
H214   H     0.05943   0.53020   0.67408   0.00000  Uiso   1.00
H215   H     0.09976   0.75342   0.35580   0.00000  Uiso   1.00
H216   H     0.97253   0.77491   0.26436   0.00000  Uiso   1.00
H217   H     0.19223   0.83919   0.40201   0.00000  Uiso   1.00
H218   H     0.14605   0.64588   0.37846   0.00000  Uiso   1.00
H219   H     0.81333   0.79923   0.19859   0.00000  Uiso   1.00
H220   H     0.27661   0.93475   0.48884   0.00000  Uiso   1.00
H221   H     0.17922   0.52712   0.43919   0.00000  Uiso   1.00
O222   O     0.66722   0.81500   0.26083   0.00000  Uiso   1.00
O223   O     0.27502   0.99278   0.64164   0.00000  Uiso   1.00
O224   O     0.14726   0.45798   0.57650   0.00000  Uiso   1.00
N225   N     0.73918   0.79863   0.39074   0.00000  Uiso   1.00
N226   N     0.17231   0.92534   0.66210   0.00000  Uiso   1.00
N227   N     0.08128   0.54424   0.61570   0.00000  Uiso   1.00
N228   N     0.80365   0.79697   0.26435   0.00000  Uiso   1.00
N229   N     0.23677   0.92368   0.53571   0.00000  Uiso   1.00
N230   N     0.14575   0.54258   0.48931   0.00000  Uiso   1.00
C231   C     0.50816   0.24378   0.93209   0.00000  Uiso   1.00
C232   C     0.56203   0.23252   0.01166   0.00000  Uiso   1.00
C233   C     0.64326   0.22212   0.00817   0.00000  Uiso   1.00
C234   C     0.68187   0.21282   0.08836   0.00000  Uiso   1.00
C235   C     0.77179   0.19520   0.19963   0.00000  Uiso   1.00
C236   C     0.46778   0.30261   0.94962   0.00000  Uiso   1.00
C237   C     0.46976   0.35114   0.89396   0.00000  Uiso   1.00
C238   C     0.42902   0.40084   0.92192   0.00000  Uiso   1.00
C239   C     0.37257   0.49201   0.93684   0.00000  Uiso   1.00
C240   C     0.44269   0.19757   0.93682   0.00000  Uiso   1.00
C241   C     0.42355   0.15780   0.87040   0.00000  Uiso   1.00
C242   C     0.36168   0.11908   0.88758   0.00000  Uiso   1.00
C243   C     0.26627   0.04718   0.88264   0.00000  Uiso   1.00
C244   C     0.43230   0.24574   0.08069   0.00000  Uiso   1.00
C245   C     0.52082   0.23359   0.09237   0.00000  Uiso   1.00
C246   C     0.55932   0.22430   0.17258   0.00000  Uiso   1.00
C247   C     0.64059   0.21389   0.16922   0.00000  Uiso   1.00
C248   C     0.42658   0.30367   0.03033   0.00000  Uiso   1.00
C249   C     0.38582   0.35331   0.05837   0.00000  Uiso   1.00
C250   C     0.38774   0.40191   0.00277   0.00000  Uiso   1.00
C251   C     0.40149   0.19864   0.01754   0.00000  Uiso   1.00
C252   C     0.33963   0.15997   0.03482   0.00000  Uiso   1.00
C253   C     0.32040   0.12015   0.96844   0.00000  Uiso   1.00
H254   H     0.54024   0.24296   0.86925   0.00000  Uiso   1.00
H255   H     0.67513   0.22131   0.94570   0.00000  Uiso   1.00
H256   H     0.50164   0.35030   0.83150   0.00000  Uiso   1.00
H257   H     0.45545   0.15699   0.80795   0.00000  Uiso   1.00
H258   H     0.80650   0.19780   0.06605   0.00000  Uiso   1.00
H259   H     0.44069   0.46978   0.82525   0.00000  Uiso   1.00
H260   H     0.34328   0.06215   0.77559   0.00000  Uiso   1.00
H261   H     0.40022   0.24658   0.14353   0.00000  Uiso   1.00
H262   H     0.52742   0.22512   0.23503   0.00000  Uiso   1.00
H263   H     0.35394   0.35412   0.12083   0.00000  Uiso   1.00
H264   H     0.30775   0.16081   0.09728   0.00000  Uiso   1.00
H265   H     0.68662   0.20090   0.30089   0.00000  Uiso   1.00
H266   H     0.32080   0.47288   0.06007   0.00000  Uiso   1.00
H267   H     0.22340   0.06525   0.01042   0.00000  Uiso   1.00
O268   O     0.83277   0.18519   0.23872   0.00000  Uiso   1.00
O269   O     0.35282   0.54201   0.92278   0.00000  Uiso   1.00
O270   O     0.22503   0.00722   0.85763   0.00000  Uiso   1.00
N271   N     0.76083   0.20146   0.10876   0.00000  Uiso   1.00
N272   N     0.41882   0.45575   0.88363   0.00000  Uiso   1.00
N273   N     0.32774   0.07466   0.83719   0.00000  Uiso   1.00
N274   N     0.69632   0.20313   0.23512   0.00000  Uiso   1.00
N275   N     0.35432   0.45742   0.00999   0.00000  Uiso   1.00
N276   N     0.26324   0.07633   0.96355   0.00000  Uiso   1.00
C277   C     0.00812   0.24381   0.56728   0.00000  Uiso   1.00
C278   C     0.06201   0.23252   0.48774   0.00000  Uiso   1.00
C279   C     0.14323   0.22211   0.49126   0.00000  Uiso   1.00
C280   C     0.18186   0.21277   0.41110   0.00000  Uiso   1.00
C281   C     0.27180   0.19507   0.29988   0.00000  Uiso   1.00
C282   C     0.94264   0.19760   0.56252   0.00000  Uiso   1.00
C283   C     0.92350   0.15782   0.62893   0.00000  Uiso   1.00
C284   C     0.86164   0.11909   0.61173   0.00000  Uiso   1.00
C285   C     0.76623   0.04718   0.61663   0.00000  Uiso   1.00
C286   C     0.96774   0.30263   0.54973   0.00000  Uiso   1.00
C287   C     0.96968   0.35116   0.60539   0.00000  Uiso   1.00
C288   C     0.92894   0.40085   0.57742   0.00000  Uiso   1.00
C289   C     0.87249   0.49202   0.56246   0.00000  Uiso   1.00
C290   C     0.93230   0.24576   0.41865   0.00000  Uiso   1.00
C291   C     0.02083   0.23358   0.40701   0.00000  Uiso   1.00
C292   C     0.05935   0.22427   0.32682   0.00000  Uiso   1.00
C293   C     0.14061   0.21384   0.33023   0.00000  Uiso   1.00
C294   C     0.90147   0.19865   0.48180   0.00000  Uiso   1.00
C295   C     0.83962   0.15998   0.46449   0.00000  Uiso   1.00
C296   C     0.82039   0.12015   0.53085   0.00000  Uiso   1.00
C297   C     0.92656   0.30369   0.46900   0.00000  Uiso   1.00
C298   C     0.88581   0.35332   0.44094   0.00000  Uiso   1.00
C299   C     0.88769   0.40191   0.49654   0.00000  Uiso   1.00
H300   H     0.04017   0.24298   0.63014   0.00000  Uiso   1.00
H301   H     0.17507   0.22128   0.55376   0.00000  Uiso   1.00
H302   H     0.95537   0.15701   0.69140   0.00000  Uiso   1.00
H303   H     0.00155   0.35032   0.66786   0.00000  Uiso   1.00
H304   H     0.30647   0.19768   0.43347   0.00000  Uiso   1.00
H305   H     0.84320   0.06217   0.72372   0.00000  Uiso   1.00
H306   H     0.94057   0.46980   0.67408   0.00000  Uiso   1.00
H307   H     0.90024   0.24658   0.35580   0.00000  Uiso   1.00
H308   H     0.02747   0.22509   0.26436   0.00000  Uiso   1.00
H309   H     0.80777   0.16081   0.40201   0.00000  Uiso   1.00
H310   H     0.85395   0.35412   0.37846   0.00000  Uiso   1.00
H311   H     0.18667   0.20077   0.19859   0.00000  Uiso   1.00
H312   H     0.72339   0.06525   0.48884   0.00000  Uiso   1.00
H313   H     0.82078   0.47288   0.43919   0.00000  Uiso   1.00
O314   O     0.33278   0.18500   0.26083   0.00000  Uiso   1.00
O315   O     0.72498   0.00722   0.64164   0.00000  Uiso   1.00
O316   O     0.85274   0.54202   0.57650   0.00000  Uiso   1.00
N317   N     0.26082   0.20137   0.39074   0.00000  Uiso   1.00
N318   N     0.82769   0.07466   0.66210   0.00000  Uiso   1.00
N319   N     0.91872   0.45576   0.61570   0.00000  Uiso   1.00
N320   N     0.19635   0.20303   0.26435   0.00000  Uiso   1.00
N321   N     0.76323   0.07632   0.53571   0.00000  Uiso   1.00
N322   N     0.85425   0.45742   0.48931   0.00000  Uiso   1.00
C323   C     0.49184   0.75622   0.93209   0.00000  Uiso   1.00
C324   C     0.43797   0.76748   0.01166   0.00000  Uiso   1.00
C325   C     0.35674   0.77788   0.00817   0.00000  Uiso   1.00
C326   C     0.31813   0.78718   0.08836   0.00000  Uiso   1.00
C327   C     0.22821   0.80480   0.19963   0.00000  Uiso   1.00
C328   C     0.53222   0.69739   0.94962   0.00000  Uiso   1.00
C329   C     0.53024   0.64886   0.89396   0.00000  Uiso   1.00
C330   C     0.57098   0.59916   0.92192   0.00000  Uiso   1.00
C331   C     0.62743   0.50799   0.93684   0.00000  Uiso   1.00
C332   C     0.55731   0.80243   0.93682   0.00000  Uiso   1.00
C333   C     0.57645   0.84220   0.87040   0.00000  Uiso   1.00
C334   C     0.63832   0.88092   0.88758   0.00000  Uiso   1.00
C335   C     0.73373   0.95282   0.88264   0.00000  Uiso   1.00
C336   C     0.56770   0.75426   0.08069   0.00000  Uiso   1.00
C337   C     0.47918   0.76641   0.09237   0.00000  Uiso   1.00
C338   C     0.44068   0.77570   0.17258   0.00000  Uiso   1.00
C339   C     0.35941   0.78611   0.16922   0.00000  Uiso   1.00
C340   C     0.57342   0.69633   0.03033   0.00000  Uiso   1.00
C341   C     0.61418   0.64669   0.05837   0.00000  Uiso   1.00
C342   C     0.61226   0.59809   0.00277   0.00000  Uiso   1.00
C343   C     0.59851   0.80136   0.01754   0.00000  Uiso   1.00
C344   C     0.66037   0.84003   0.03482   0.00000  Uiso   1.00
C345   C     0.67960   0.87985   0.96844   0.00000  Uiso   1.00
H346   H     0.45976   0.75704   0.86925   0.00000  Uiso   1.00
H347   H     0.32487   0.77869   0.94570   0.00000  Uiso   1.00
H348   H     0.49836   0.64970   0.83150   0.00000  Uiso   1.00
H349   H     0.54455   0.84301   0.80795   0.00000  Uiso   1.00
H350   H     0.19350   0.80220   0.06605   0.00000  Uiso   1.00
H351   H     0.55931   0.53022   0.82525   0.00000  Uiso   1.00
H352   H     0.65672   0.93785   0.77559   0.00000  Uiso   1.00
H353   H     0.59978   0.75342   0.14353   0.00000  Uiso   1.00
H354   H     0.47258   0.77488   0.23503   0.00000  Uiso   1.00
H355   H     0.64606   0.64588   0.12083   0.00000  Uiso   1.00
H356   H     0.69225   0.83919   0.09728   0.00000  Uiso   1.00
H357   H     0.31338   0.79910   0.30089   0.00000  Uiso   1.00
H358   H     0.67920   0.52712   0.06007   0.00000  Uiso   1.00
H359   H     0.77660   0.93475   0.01042   0.00000  Uiso   1.00
O360   O     0.16723   0.81481   0.23872   0.00000  Uiso   1.00
O361   O     0.64718   0.45799   0.92278   0.00000  Uiso   1.00
O362   O     0.77497   0.99278   0.85763   0.00000  Uiso   1.00
N363   N     0.23917   0.79854   0.10876   0.00000  Uiso   1.00
N364   N     0.58118   0.54425   0.88363   0.00000  Uiso   1.00
N365   N     0.67226   0.92534   0.83719   0.00000  Uiso   1.00
N366   N     0.30368   0.79687   0.23512   0.00000  Uiso   1.00
N367   N     0.64568   0.54258   0.00999   0.00000  Uiso   1.00
N368   N     0.73676   0.92367   0.96355   0.00000  Uiso   1.00
