data_job_02244
_audit_creation_date              2018-12-19
_audit_creation_method            'Materials Studio'
_symmetry_space_group_name_H-M    'P1'
_symmetry_Int_Tables_number       1
_symmetry_cell_setting            triclinic
loop_
_symmetry_equiv_pos_as_xyz
  x,y,z
_cell_length_a                    18.8010
_cell_length_b                    13.8479
_cell_length_c                    23.1029
_cell_angle_alpha                 90.0000
_cell_angle_beta                  90.0000
_cell_angle_gamma                 90.0000
loop_
_atom_site_label
_atom_site_type_symbol
_atom_site_fract_x
_atom_site_fract_y
_atom_site_fract_z
_atom_site_U_iso_or_equiv
_atom_site_adp_type
_atom_site_occupancy
C1     C     0.68866   0.22544   0.19010   0.00000  Uiso   1.00
C2     C     0.72335   0.30394   0.15342   0.00000  Uiso   1.00
C3     C     0.78233   0.29195   0.11802   0.00000  Uiso   1.00
C4     C     0.80596   0.37267   0.08799   0.00000  Uiso   1.00
C5     C     0.86504   0.48096   0.03026   0.00000  Uiso   1.00
C6     C     0.68860   0.26341   0.25206   0.00000  Uiso   1.00
C7     C     0.71836   0.21734   0.29960   0.00000  Uiso   1.00
C8     C     0.71272   0.26393   0.35262   0.00000  Uiso   1.00
C9     C     0.71782   0.30927   0.44803   0.00000  Uiso   1.00
C10    C     0.61091   0.22181   0.17143   0.00000  Uiso   1.00
C11    C     0.57533   0.14075   0.15120   0.00000  Uiso   1.00
C12    C     0.50428   0.15231   0.13635   0.00000  Uiso   1.00
C13    C     0.38874   0.13306   0.10658   0.00000  Uiso   1.00
C14    C     0.62574   0.39010   0.19973   0.00000  Uiso   1.00
C15    C     0.68918   0.39337   0.15865   0.00000  Uiso   1.00
C16    C     0.71272   0.47412   0.12867   0.00000  Uiso   1.00
C17    C     0.77172   0.46226   0.09323   0.00000  Uiso   1.00
C18    C     0.65443   0.35284   0.25729   0.00000  Uiso   1.00
C19    C     0.64875   0.39951   0.31025   0.00000  Uiso   1.00
C20    C     0.67849   0.35353   0.35786   0.00000  Uiso   1.00
C21    C     0.57673   0.31124   0.17666   0.00000  Uiso   1.00
C22    C     0.50572   0.32293   0.16185   0.00000  Uiso   1.00
C23    C     0.47004   0.24191   0.14159   0.00000  Uiso   1.00
H24    H     0.71527   0.15581   0.18603   0.00000  Uiso   1.00
H25    H     0.80877   0.22273   0.11398   0.00000  Uiso   1.00
H26    H     0.74479   0.14813   0.29554   0.00000  Uiso   1.00
H27    H     0.60179   0.07156   0.14715   0.00000  Uiso   1.00
H28    H     0.89737   0.33637   0.03643   0.00000  Uiso   1.00
H29    H     0.76246   0.17905   0.41924   0.00000  Uiso   1.00
H30    H     0.46092   0.01758   0.10635   0.00000  Uiso   1.00
H31    H     0.59913   0.45973   0.20381   0.00000  Uiso   1.00
H32    H     0.68626   0.54332   0.13273   0.00000  Uiso   1.00
H33    H     0.62229   0.46872   0.31428   0.00000  Uiso   1.00
H34    H     0.47929   0.39215   0.16590   0.00000  Uiso   1.00
H35    H     0.79795   0.59658   0.05164   0.00000  Uiso   1.00
H36    H     0.66304   0.43925   0.43446   0.00000  Uiso   1.00
H37    H     0.36149   0.27778   0.12157   0.00000  Uiso   1.00
O38    O     0.90708   0.51599   0.99697   0.00000  Uiso   1.00
O39    O     0.73008   0.30958   0.49922   0.00000  Uiso   1.00
O40    O     0.33446   0.09774   0.08871   0.00000  Uiso   1.00
N41    N     0.86200   0.38614   0.04975   0.00000  Uiso   1.00
N42    N     0.73589   0.23905   0.40766   0.00000  Uiso   1.00
N43    N     0.45396   0.08809   0.11515   0.00000  Uiso   1.00
N44    N     0.80850   0.52615   0.05794   0.00000  Uiso   1.00
N45    N     0.68239   0.37906   0.41585   0.00000  Uiso   1.00
N46    N     0.40046   0.22810   0.12334   0.00000  Uiso   1.00
C47    C     0.81134   0.77456   0.69010   0.00000  Uiso   1.00
C48    C     0.77665   0.69606   0.65342   0.00000  Uiso   1.00
C49    C     0.71767   0.70805   0.61802   0.00000  Uiso   1.00
C50    C     0.69404   0.62733   0.58799   0.00000  Uiso   1.00
C51    C     0.63496   0.51904   0.53026   0.00000  Uiso   1.00
C52    C     0.81140   0.73659   0.75206   0.00000  Uiso   1.00
C53    C     0.78164   0.78266   0.79960   0.00000  Uiso   1.00
C54    C     0.78728   0.73607   0.85262   0.00000  Uiso   1.00
C55    C     0.78218   0.69073   0.94803   0.00000  Uiso   1.00
C56    C     0.88909   0.77819   0.67143   0.00000  Uiso   1.00
C57    C     0.92467   0.85925   0.65120   0.00000  Uiso   1.00
C58    C     0.99572   0.84769   0.63635   0.00000  Uiso   1.00
C59    C     0.11126   0.86694   0.60658   0.00000  Uiso   1.00
C60    C     0.87426   0.60990   0.69973   0.00000  Uiso   1.00
C61    C     0.81082   0.60663   0.65865   0.00000  Uiso   1.00
C62    C     0.78728   0.52588   0.62867   0.00000  Uiso   1.00
C63    C     0.72828   0.53774   0.59323   0.00000  Uiso   1.00
C64    C     0.84557   0.64716   0.75729   0.00000  Uiso   1.00
C65    C     0.85125   0.60049   0.81025   0.00000  Uiso   1.00
C66    C     0.82151   0.64647   0.85786   0.00000  Uiso   1.00
C67    C     0.92327   0.68876   0.67666   0.00000  Uiso   1.00
C68    C     0.99428   0.67707   0.66185   0.00000  Uiso   1.00
C69    C     0.02996   0.75809   0.64159   0.00000  Uiso   1.00
H70    H     0.78473   0.84419   0.68603   0.00000  Uiso   1.00
H71    H     0.69123   0.77727   0.61398   0.00000  Uiso   1.00
H72    H     0.75521   0.85187   0.79554   0.00000  Uiso   1.00
H73    H     0.89821   0.92844   0.64715   0.00000  Uiso   1.00
H74    H     0.60263   0.66363   0.53643   0.00000  Uiso   1.00
H75    H     0.73754   0.82095   0.91924   0.00000  Uiso   1.00
H76    H     0.03908   0.98242   0.60635   0.00000  Uiso   1.00
H77    H     0.90087   0.54027   0.70381   0.00000  Uiso   1.00
H78    H     0.81374   0.45668   0.63273   0.00000  Uiso   1.00
H79    H     0.87771   0.53128   0.81428   0.00000  Uiso   1.00
H80    H     0.02071   0.60785   0.66590   0.00000  Uiso   1.00
H81    H     0.70205   0.40342   0.55164   0.00000  Uiso   1.00
H82    H     0.83696   0.56075   0.93446   0.00000  Uiso   1.00
H83    H     0.13851   0.72222   0.62157   0.00000  Uiso   1.00
O84    O     0.59292   0.48401   0.49697   0.00000  Uiso   1.00
O85    O     0.76992   0.69042   0.99922   0.00000  Uiso   1.00
O86    O     0.16554   0.90226   0.58871   0.00000  Uiso   1.00
N87    N     0.63800   0.61386   0.54975   0.00000  Uiso   1.00
N88    N     0.76411   0.76095   0.90766   0.00000  Uiso   1.00
N89    N     0.04604   0.91191   0.61515   0.00000  Uiso   1.00
N90    N     0.69150   0.47385   0.55794   0.00000  Uiso   1.00
N91    N     0.81761   0.62094   0.91585   0.00000  Uiso   1.00
N92    N     0.09954   0.77190   0.62334   0.00000  Uiso   1.00
C93    C     0.31134   0.72544   0.30990   0.00000  Uiso   1.00
C94    C     0.27665   0.80394   0.34658   0.00000  Uiso   1.00
C95    C     0.21767   0.79195   0.38198   0.00000  Uiso   1.00
C96    C     0.19404   0.87267   0.41201   0.00000  Uiso   1.00
C97    C     0.13496   0.98096   0.46974   0.00000  Uiso   1.00
C98    C     0.31140   0.76341   0.24794   0.00000  Uiso   1.00
C99    C     0.28164   0.71734   0.20040   0.00000  Uiso   1.00
C100   C     0.28728   0.76393   0.14738   0.00000  Uiso   1.00
C101   C     0.28218   0.80927   0.05197   0.00000  Uiso   1.00
C102   C     0.38909   0.72181   0.32857   0.00000  Uiso   1.00
C103   C     0.42467   0.64075   0.34880   0.00000  Uiso   1.00
C104   C     0.49572   0.65231   0.36365   0.00000  Uiso   1.00
C105   C     0.61126   0.63306   0.39342   0.00000  Uiso   1.00
C106   C     0.37426   0.89010   0.30027   0.00000  Uiso   1.00
C107   C     0.31082   0.89337   0.34135   0.00000  Uiso   1.00
C108   C     0.28728   0.97412   0.37133   0.00000  Uiso   1.00
C109   C     0.22828   0.96226   0.40677   0.00000  Uiso   1.00
C110   C     0.34557   0.85284   0.24271   0.00000  Uiso   1.00
C111   C     0.35125   0.89951   0.18975   0.00000  Uiso   1.00
C112   C     0.32151   0.85353   0.14214   0.00000  Uiso   1.00
C113   C     0.42327   0.81124   0.32334   0.00000  Uiso   1.00
C114   C     0.49428   0.82293   0.33815   0.00000  Uiso   1.00
C115   C     0.52996   0.74191   0.35841   0.00000  Uiso   1.00
H116   H     0.28473   0.65581   0.31397   0.00000  Uiso   1.00
H117   H     0.19123   0.72273   0.38602   0.00000  Uiso   1.00
H118   H     0.25521   0.64813   0.20446   0.00000  Uiso   1.00
H119   H     0.39821   0.57156   0.35285   0.00000  Uiso   1.00
H120   H     0.10263   0.83637   0.46357   0.00000  Uiso   1.00
H121   H     0.23754   0.67905   0.08076   0.00000  Uiso   1.00
H122   H     0.53908   0.51758   0.39365   0.00000  Uiso   1.00
H123   H     0.40087   0.95973   0.29619   0.00000  Uiso   1.00
H124   H     0.31374   0.04332   0.36727   0.00000  Uiso   1.00
H125   H     0.37771   0.96872   0.18572   0.00000  Uiso   1.00
H126   H     0.52071   0.89215   0.33410   0.00000  Uiso   1.00
H127   H     0.20205   0.09658   0.44836   0.00000  Uiso   1.00
H128   H     0.33696   0.93925   0.06554   0.00000  Uiso   1.00
H129   H     0.63851   0.77778   0.37843   0.00000  Uiso   1.00
O130   O     0.09292   0.01599   0.50303   0.00000  Uiso   1.00
O131   O     0.26992   0.80958   0.00078   0.00000  Uiso   1.00
O132   O     0.66554   0.59774   0.41129   0.00000  Uiso   1.00
N133   N     0.13800   0.88614   0.45025   0.00000  Uiso   1.00
N134   N     0.26411   0.73905   0.09234   0.00000  Uiso   1.00
N135   N     0.54604   0.58809   0.38485   0.00000  Uiso   1.00
N136   N     0.19150   0.02615   0.44206   0.00000  Uiso   1.00
N137   N     0.31761   0.87906   0.08415   0.00000  Uiso   1.00
N138   N     0.59954   0.72810   0.37666   0.00000  Uiso   1.00
C139   C     0.18866   0.27456   0.80990   0.00000  Uiso   1.00
C140   C     0.22335   0.19606   0.84658   0.00000  Uiso   1.00
C141   C     0.28233   0.20805   0.88198   0.00000  Uiso   1.00
C142   C     0.30596   0.12733   0.91201   0.00000  Uiso   1.00
C143   C     0.36504   0.01904   0.96974   0.00000  Uiso   1.00
C144   C     0.18860   0.23659   0.74794   0.00000  Uiso   1.00
C145   C     0.21836   0.28266   0.70040   0.00000  Uiso   1.00
C146   C     0.21272   0.23607   0.64738   0.00000  Uiso   1.00
C147   C     0.21782   0.19073   0.55197   0.00000  Uiso   1.00
C148   C     0.11091   0.27819   0.82857   0.00000  Uiso   1.00
C149   C     0.07533   0.35925   0.84880   0.00000  Uiso   1.00
C150   C     0.00428   0.34769   0.86365   0.00000  Uiso   1.00
C151   C     0.88874   0.36694   0.89342   0.00000  Uiso   1.00
C152   C     0.12574   0.10990   0.80027   0.00000  Uiso   1.00
C153   C     0.18918   0.10663   0.84135   0.00000  Uiso   1.00
C154   C     0.21272   0.02588   0.87133   0.00000  Uiso   1.00
C155   C     0.27172   0.03774   0.90677   0.00000  Uiso   1.00
C156   C     0.15443   0.14716   0.74271   0.00000  Uiso   1.00
C157   C     0.14875   0.10049   0.68975   0.00000  Uiso   1.00
C158   C     0.17849   0.14647   0.64214   0.00000  Uiso   1.00
C159   C     0.07673   0.18876   0.82334   0.00000  Uiso   1.00
C160   C     0.00572   0.17707   0.83815   0.00000  Uiso   1.00
C161   C     0.97004   0.25809   0.85841   0.00000  Uiso   1.00
H162   H     0.21527   0.34419   0.81397   0.00000  Uiso   1.00
H163   H     0.30877   0.27727   0.88602   0.00000  Uiso   1.00
H164   H     0.24479   0.35187   0.70446   0.00000  Uiso   1.00
H165   H     0.10179   0.42844   0.85285   0.00000  Uiso   1.00
H166   H     0.39737   0.16363   0.96357   0.00000  Uiso   1.00
H167   H     0.26246   0.32095   0.58076   0.00000  Uiso   1.00
H168   H     0.96092   0.48242   0.89365   0.00000  Uiso   1.00
H169   H     0.09913   0.04027   0.79619   0.00000  Uiso   1.00
H170   H     0.18626   0.95668   0.86727   0.00000  Uiso   1.00
H171   H     0.12229   0.03128   0.68572   0.00000  Uiso   1.00
H172   H     0.97929   0.10785   0.83410   0.00000  Uiso   1.00
H173   H     0.29795   0.90342   0.94836   0.00000  Uiso   1.00
H174   H     0.16304   0.06075   0.56554   0.00000  Uiso   1.00
H175   H     0.86149   0.22222   0.87843   0.00000  Uiso   1.00
O176   O     0.40708   0.98401   0.00303   0.00000  Uiso   1.00
O177   O     0.23008   0.19042   0.50078   0.00000  Uiso   1.00
O178   O     0.83446   0.40226   0.91129   0.00000  Uiso   1.00
N179   N     0.36200   0.11386   0.95025   0.00000  Uiso   1.00
N180   N     0.23589   0.26095   0.59234   0.00000  Uiso   1.00
N181   N     0.95396   0.41191   0.88485   0.00000  Uiso   1.00
N182   N     0.30850   0.97385   0.94206   0.00000  Uiso   1.00
N183   N     0.18239   0.12094   0.58415   0.00000  Uiso   1.00
N184   N     0.90046   0.27190   0.87666   0.00000  Uiso   1.00
C185   C     0.31134   0.77456   0.80990   0.00000  Uiso   1.00
C186   C     0.27665   0.69606   0.84658   0.00000  Uiso   1.00
C187   C     0.21767   0.70805   0.88198   0.00000  Uiso   1.00
C188   C     0.19404   0.62733   0.91201   0.00000  Uiso   1.00
C189   C     0.13496   0.51904   0.96974   0.00000  Uiso   1.00
C190   C     0.31140   0.73659   0.74794   0.00000  Uiso   1.00
C191   C     0.28164   0.78266   0.70040   0.00000  Uiso   1.00
C192   C     0.28728   0.73607   0.64738   0.00000  Uiso   1.00
C193   C     0.28218   0.69073   0.55197   0.00000  Uiso   1.00
C194   C     0.38909   0.77819   0.82857   0.00000  Uiso   1.00
C195   C     0.42467   0.85925   0.84880   0.00000  Uiso   1.00
C196   C     0.49572   0.84769   0.86365   0.00000  Uiso   1.00
C197   C     0.61126   0.86694   0.89342   0.00000  Uiso   1.00
C198   C     0.37426   0.60990   0.80027   0.00000  Uiso   1.00
C199   C     0.31082   0.60663   0.84135   0.00000  Uiso   1.00
C200   C     0.28728   0.52588   0.87133   0.00000  Uiso   1.00
C201   C     0.22828   0.53774   0.90677   0.00000  Uiso   1.00
C202   C     0.34557   0.64716   0.74271   0.00000  Uiso   1.00
C203   C     0.35125   0.60049   0.68975   0.00000  Uiso   1.00
C204   C     0.32151   0.64647   0.64214   0.00000  Uiso   1.00
C205   C     0.42327   0.68876   0.82334   0.00000  Uiso   1.00
C206   C     0.49428   0.67707   0.83815   0.00000  Uiso   1.00
C207   C     0.52996   0.75809   0.85841   0.00000  Uiso   1.00
H208   H     0.28473   0.84419   0.81397   0.00000  Uiso   1.00
H209   H     0.19123   0.77727   0.88602   0.00000  Uiso   1.00
H210   H     0.25521   0.85187   0.70446   0.00000  Uiso   1.00
H211   H     0.39821   0.92844   0.85285   0.00000  Uiso   1.00
H212   H     0.10263   0.66363   0.96357   0.00000  Uiso   1.00
H213   H     0.23754   0.82095   0.58076   0.00000  Uiso   1.00
H214   H     0.53908   0.98242   0.89365   0.00000  Uiso   1.00
H215   H     0.40087   0.54027   0.79619   0.00000  Uiso   1.00
H216   H     0.31374   0.45668   0.86727   0.00000  Uiso   1.00
H217   H     0.37771   0.53128   0.68572   0.00000  Uiso   1.00
H218   H     0.52071   0.60785   0.83410   0.00000  Uiso   1.00
H219   H     0.20205   0.40342   0.94836   0.00000  Uiso   1.00
H220   H     0.33696   0.56075   0.56554   0.00000  Uiso   1.00
H221   H     0.63851   0.72222   0.87843   0.00000  Uiso   1.00
O222   O     0.09292   0.48401   0.00303   0.00000  Uiso   1.00
O223   O     0.26992   0.69042   0.50078   0.00000  Uiso   1.00
O224   O     0.66554   0.90226   0.91129   0.00000  Uiso   1.00
N225   N     0.13800   0.61386   0.95025   0.00000  Uiso   1.00
N226   N     0.26411   0.76095   0.59234   0.00000  Uiso   1.00
N227   N     0.54604   0.91191   0.88485   0.00000  Uiso   1.00
N228   N     0.19150   0.47385   0.94206   0.00000  Uiso   1.00
N229   N     0.31761   0.62094   0.58415   0.00000  Uiso   1.00
N230   N     0.59954   0.77190   0.87666   0.00000  Uiso   1.00
C231   C     0.18866   0.22544   0.30990   0.00000  Uiso   1.00
C232   C     0.22335   0.30394   0.34658   0.00000  Uiso   1.00
C233   C     0.28233   0.29195   0.38198   0.00000  Uiso   1.00
C234   C     0.30596   0.37267   0.41201   0.00000  Uiso   1.00
C235   C     0.36504   0.48096   0.46974   0.00000  Uiso   1.00
C236   C     0.18860   0.26341   0.24794   0.00000  Uiso   1.00
C237   C     0.21836   0.21734   0.20040   0.00000  Uiso   1.00
C238   C     0.21272   0.26393   0.14738   0.00000  Uiso   1.00
C239   C     0.21782   0.30927   0.05197   0.00000  Uiso   1.00
C240   C     0.11091   0.22181   0.32857   0.00000  Uiso   1.00
C241   C     0.07533   0.14075   0.34880   0.00000  Uiso   1.00
C242   C     0.00428   0.15231   0.36365   0.00000  Uiso   1.00
C243   C     0.88874   0.13306   0.39342   0.00000  Uiso   1.00
C244   C     0.12574   0.39010   0.30027   0.00000  Uiso   1.00
C245   C     0.18918   0.39337   0.34135   0.00000  Uiso   1.00
C246   C     0.21272   0.47412   0.37133   0.00000  Uiso   1.00
C247   C     0.27172   0.46226   0.40677   0.00000  Uiso   1.00
C248   C     0.15443   0.35284   0.24271   0.00000  Uiso   1.00
C249   C     0.14875   0.39951   0.18975   0.00000  Uiso   1.00
C250   C     0.17849   0.35353   0.14214   0.00000  Uiso   1.00
C251   C     0.07673   0.31124   0.32334   0.00000  Uiso   1.00
C252   C     0.00572   0.32293   0.33815   0.00000  Uiso   1.00
C253   C     0.97004   0.24191   0.35841   0.00000  Uiso   1.00
H254   H     0.21527   0.15581   0.31397   0.00000  Uiso   1.00
H255   H     0.30877   0.22273   0.38602   0.00000  Uiso   1.00
H256   H     0.24479   0.14813   0.20446   0.00000  Uiso   1.00
H257   H     0.10179   0.07156   0.35285   0.00000  Uiso   1.00
H258   H     0.39737   0.33637   0.46357   0.00000  Uiso   1.00
H259   H     0.26246   0.17905   0.08076   0.00000  Uiso   1.00
H260   H     0.96092   0.01758   0.39365   0.00000  Uiso   1.00
H261   H     0.09913   0.45973   0.29619   0.00000  Uiso   1.00
H262   H     0.18626   0.54332   0.36727   0.00000  Uiso   1.00
H263   H     0.12229   0.46872   0.18572   0.00000  Uiso   1.00
H264   H     0.97929   0.39215   0.33410   0.00000  Uiso   1.00
H265   H     0.29795   0.59658   0.44836   0.00000  Uiso   1.00
H266   H     0.16304   0.43925   0.06554   0.00000  Uiso   1.00
H267   H     0.86149   0.27778   0.37843   0.00000  Uiso   1.00
O268   O     0.40708   0.51599   0.50303   0.00000  Uiso   1.00
O269   O     0.23008   0.30958   0.00078   0.00000  Uiso   1.00
O270   O     0.83446   0.09774   0.41129   0.00000  Uiso   1.00
N271   N     0.36200   0.38614   0.45025   0.00000  Uiso   1.00
N272   N     0.23589   0.23905   0.09234   0.00000  Uiso   1.00
N273   N     0.95396   0.08809   0.38485   0.00000  Uiso   1.00
N274   N     0.30850   0.52615   0.44206   0.00000  Uiso   1.00
N275   N     0.18239   0.37906   0.08415   0.00000  Uiso   1.00
N276   N     0.90046   0.22810   0.37666   0.00000  Uiso   1.00
C277   C     0.68866   0.27456   0.69010   0.00000  Uiso   1.00
C278   C     0.72335   0.19606   0.65342   0.00000  Uiso   1.00
C279   C     0.78233   0.20805   0.61802   0.00000  Uiso   1.00
C280   C     0.80596   0.12733   0.58799   0.00000  Uiso   1.00
C281   C     0.86504   0.01904   0.53026   0.00000  Uiso   1.00
C282   C     0.68860   0.23659   0.75206   0.00000  Uiso   1.00
C283   C     0.71836   0.28266   0.79960   0.00000  Uiso   1.00
C284   C     0.71272   0.23607   0.85262   0.00000  Uiso   1.00
C285   C     0.71782   0.19073   0.94803   0.00000  Uiso   1.00
C286   C     0.61091   0.27819   0.67143   0.00000  Uiso   1.00
C287   C     0.57533   0.35925   0.65120   0.00000  Uiso   1.00
C288   C     0.50428   0.34769   0.63635   0.00000  Uiso   1.00
C289   C     0.38874   0.36694   0.60658   0.00000  Uiso   1.00
C290   C     0.62574   0.10990   0.69973   0.00000  Uiso   1.00
C291   C     0.68918   0.10663   0.65865   0.00000  Uiso   1.00
C292   C     0.71272   0.02588   0.62867   0.00000  Uiso   1.00
C293   C     0.77172   0.03774   0.59323   0.00000  Uiso   1.00
C294   C     0.65443   0.14716   0.75729   0.00000  Uiso   1.00
C295   C     0.64875   0.10049   0.81025   0.00000  Uiso   1.00
C296   C     0.67849   0.14647   0.85786   0.00000  Uiso   1.00
C297   C     0.57673   0.18876   0.67666   0.00000  Uiso   1.00
C298   C     0.50572   0.17707   0.66185   0.00000  Uiso   1.00
C299   C     0.47004   0.25809   0.64159   0.00000  Uiso   1.00
H300   H     0.71527   0.34419   0.68603   0.00000  Uiso   1.00
H301   H     0.80877   0.27727   0.61398   0.00000  Uiso   1.00
H302   H     0.74479   0.35187   0.79554   0.00000  Uiso   1.00
H303   H     0.60179   0.42844   0.64715   0.00000  Uiso   1.00
H304   H     0.89737   0.16363   0.53643   0.00000  Uiso   1.00
H305   H     0.76246   0.32095   0.91924   0.00000  Uiso   1.00
H306   H     0.46092   0.48242   0.60635   0.00000  Uiso   1.00
H307   H     0.59913   0.04027   0.70381   0.00000  Uiso   1.00
H308   H     0.68626   0.95668   0.63273   0.00000  Uiso   1.00
H309   H     0.62229   0.03128   0.81428   0.00000  Uiso   1.00
H310   H     0.47929   0.10785   0.66590   0.00000  Uiso   1.00
H311   H     0.79795   0.90342   0.55164   0.00000  Uiso   1.00
H312   H     0.66304   0.06075   0.93446   0.00000  Uiso   1.00
H313   H     0.36149   0.22222   0.62157   0.00000  Uiso   1.00
O314   O     0.90708   0.98401   0.49697   0.00000  Uiso   1.00
O315   O     0.73008   0.19042   0.99922   0.00000  Uiso   1.00
O316   O     0.33446   0.40226   0.58871   0.00000  Uiso   1.00
N317   N     0.86200   0.11386   0.54975   0.00000  Uiso   1.00
N318   N     0.73589   0.26095   0.90766   0.00000  Uiso   1.00
N319   N     0.45396   0.41191   0.61515   0.00000  Uiso   1.00
N320   N     0.80850   0.97385   0.55794   0.00000  Uiso   1.00
N321   N     0.68239   0.12094   0.91585   0.00000  Uiso   1.00
N322   N     0.40046   0.27190   0.62334   0.00000  Uiso   1.00
C323   C     0.81134   0.72544   0.19010   0.00000  Uiso   1.00
C324   C     0.77665   0.80394   0.15342   0.00000  Uiso   1.00
C325   C     0.71767   0.79195   0.11802   0.00000  Uiso   1.00
C326   C     0.69404   0.87267   0.08799   0.00000  Uiso   1.00
C327   C     0.63496   0.98096   0.03026   0.00000  Uiso   1.00
C328   C     0.81140   0.76341   0.25206   0.00000  Uiso   1.00
C329   C     0.78164   0.71734   0.29960   0.00000  Uiso   1.00
C330   C     0.78728   0.76393   0.35262   0.00000  Uiso   1.00
C331   C     0.78218   0.80927   0.44803   0.00000  Uiso   1.00
C332   C     0.88909   0.72181   0.17143   0.00000  Uiso   1.00
C333   C     0.92467   0.64075   0.15120   0.00000  Uiso   1.00
C334   C     0.99572   0.65231   0.13635   0.00000  Uiso   1.00
C335   C     0.11126   0.63306   0.10658   0.00000  Uiso   1.00
C336   C     0.87426   0.89010   0.19973   0.00000  Uiso   1.00
C337   C     0.81082   0.89337   0.15865   0.00000  Uiso   1.00
C338   C     0.78728   0.97412   0.12867   0.00000  Uiso   1.00
C339   C     0.72828   0.96226   0.09323   0.00000  Uiso   1.00
C340   C     0.84557   0.85284   0.25729   0.00000  Uiso   1.00
C341   C     0.85125   0.89951   0.31025   0.00000  Uiso   1.00
C342   C     0.82151   0.85353   0.35786   0.00000  Uiso   1.00
C343   C     0.92327   0.81124   0.17666   0.00000  Uiso   1.00
C344   C     0.99428   0.82293   0.16185   0.00000  Uiso   1.00
C345   C     0.02996   0.74191   0.14159   0.00000  Uiso   1.00
H346   H     0.78473   0.65581   0.18603   0.00000  Uiso   1.00
H347   H     0.69123   0.72273   0.11398   0.00000  Uiso   1.00
H348   H     0.75521   0.64813   0.29554   0.00000  Uiso   1.00
H349   H     0.89821   0.57156   0.14715   0.00000  Uiso   1.00
H350   H     0.60263   0.83637   0.03643   0.00000  Uiso   1.00
H351   H     0.73754   0.67905   0.41924   0.00000  Uiso   1.00
H352   H     0.03908   0.51758   0.10635   0.00000  Uiso   1.00
H353   H     0.90087   0.95973   0.20381   0.00000  Uiso   1.00
H354   H     0.81374   0.04332   0.13273   0.00000  Uiso   1.00
H355   H     0.87771   0.96872   0.31428   0.00000  Uiso   1.00
H356   H     0.02071   0.89215   0.16590   0.00000  Uiso   1.00
H357   H     0.70205   0.09658   0.05164   0.00000  Uiso   1.00
H358   H     0.83696   0.93925   0.43446   0.00000  Uiso   1.00
H359   H     0.13851   0.77778   0.12157   0.00000  Uiso   1.00
O360   O     0.59292   0.01599   0.99697   0.00000  Uiso   1.00
O361   O     0.76992   0.80958   0.49922   0.00000  Uiso   1.00
O362   O     0.16554   0.59774   0.08871   0.00000  Uiso   1.00
N363   N     0.63800   0.88614   0.04975   0.00000  Uiso   1.00
N364   N     0.76411   0.73905   0.40766   0.00000  Uiso   1.00
N365   N     0.04604   0.58809   0.11515   0.00000  Uiso   1.00
N366   N     0.69150   0.02615   0.05794   0.00000  Uiso   1.00
N367   N     0.81761   0.87906   0.41585   0.00000  Uiso   1.00
N368   N     0.09954   0.72810   0.12334   0.00000  Uiso   1.00
