data_job_05167
_audit_creation_date              2018-12-19
_audit_creation_method            'Materials Studio'
_symmetry_space_group_name_H-M    'P1'
_symmetry_Int_Tables_number       1
_symmetry_cell_setting            triclinic
loop_
_symmetry_equiv_pos_as_xyz
  x,y,z
_cell_length_a                    10.8526
_cell_length_b                    31.4295
_cell_length_c                    8.8573
_cell_angle_alpha                 90.4577
_cell_angle_beta                  101.9790
_cell_angle_gamma                 89.7310
loop_
_atom_site_label
_atom_site_type_symbol
_atom_site_fract_x
_atom_site_fract_y
_atom_site_fract_z
_atom_site_U_iso_or_equiv
_atom_site_adp_type
_atom_site_occupancy
C1     C     0.23407   0.86886   0.05871   0.00000  Uiso   1.00
C2     C     0.15393   0.88917   0.91535   0.00000  Uiso   1.00
C3     C     0.05675   0.91812   0.91394   0.00000  Uiso   1.00
C4     C     0.99486   0.93298   0.77091   0.00000  Uiso   1.00
C5     C     0.86519   0.96657   0.56908   0.00000  Uiso   1.00
C6     C     0.22095   0.82090   0.03363   0.00000  Uiso   1.00
C7     C     0.18013   0.79245   0.13168   0.00000  Uiso   1.00
C8     C     0.17466   0.74984   0.08823   0.00000  Uiso   1.00
C9     C     0.14913   0.67744   0.07009   0.00000  Uiso   1.00
C10    C     0.37042   0.87933   0.05479   0.00000  Uiso   1.00
C11    C     0.45529   0.89999   0.17066   0.00000  Uiso   1.00
C12    C     0.57569   0.90657   0.14505   0.00000  Uiso   1.00
C13    C     0.78223   0.92489   0.15977   0.00000  Uiso   1.00
C14    C     0.29697   0.84379   0.80720   0.00000  Uiso   1.00
C15    C     0.18810   0.87555   0.77874   0.00000  Uiso   1.00
C16    C     0.12634   0.89038   0.63567   0.00000  Uiso   1.00
C17    C     0.02909   0.91934   0.63405   0.00000  Uiso   1.00
C18    C     0.25511   0.80728   0.89702   0.00000  Uiso   1.00
C19    C     0.24972   0.76471   0.85342   0.00000  Uiso   1.00
C20    C     0.20889   0.73620   0.95138   0.00000  Uiso   1.00
C21    C     0.40459   0.86571   0.91818   0.00000  Uiso   1.00
C22    C     0.52488   0.87226   0.89239   0.00000  Uiso   1.00
C23    C     0.60992   0.89293   0.00819   0.00000  Uiso   1.00
H24    H     0.20747   0.87946   0.16506   0.00000  Uiso   1.00
H25    H     0.03033   0.92864   0.01968   0.00000  Uiso   1.00
H26    H     0.15370   0.80300   0.23740   0.00000  Uiso   1.00
H27    H     0.42882   0.91053   0.27636   0.00000  Uiso   1.00
H28    H     0.84898   0.97716   0.79825   0.00000  Uiso   1.00
H29    H     0.10916   0.71222   0.25734   0.00000  Uiso   1.00
H30    H     0.68930   0.93897   0.33951   0.00000  Uiso   1.00
H31    H     0.32357   0.83319   0.70084   0.00000  Uiso   1.00
H32    H     0.15280   0.87983   0.52998   0.00000  Uiso   1.00
H33    H     0.27617   0.75418   0.74770   0.00000  Uiso   1.00
H34    H     0.55129   0.86171   0.78666   0.00000  Uiso   1.00
H35    H     0.94837   0.93754   0.40079   0.00000  Uiso   1.00
H36    H     0.20856   0.67259   0.85989   0.00000  Uiso   1.00
H37    H     0.78870   0.89935   0.94205   0.00000  Uiso   1.00
O38    O     0.78422   0.98886   0.49549   0.00000  Uiso   1.00
O39    O     0.12559   0.64126   0.09782   0.00000  Uiso   1.00
O40    O     0.88671   0.93876   0.20562   0.00000  Uiso   1.00
N41    N     0.89582   0.96144   0.72816   0.00000  Uiso   1.00
N42    N     0.13905   0.71373   0.15737   0.00000  Uiso   1.00
N43    N     0.68145   0.92572   0.23421   0.00000  Uiso   1.00
N44    N     0.94931   0.94012   0.51428   0.00000  Uiso   1.00
N45    N     0.19254   0.69241   0.94350   0.00000  Uiso   1.00
N46    N     0.73494   0.90440   0.02034   0.00000  Uiso   1.00
C47    C     0.55303   0.37456   0.86545   0.00000  Uiso   1.00
C48    C     0.47567   0.39340   0.71742   0.00000  Uiso   1.00
C49    C     0.38187   0.42398   0.70894   0.00000  Uiso   1.00
C50    C     0.32211   0.43707   0.56257   0.00000  Uiso   1.00
C51    C     0.19693   0.46888   0.35293   0.00000  Uiso   1.00
C52    C     0.53437   0.32653   0.85091   0.00000  Uiso   1.00
C53    C     0.48994   0.30089   0.95469   0.00000  Uiso   1.00
C54    C     0.47962   0.25769   0.92069   0.00000  Uiso   1.00
C55    C     0.44566   0.18568   0.91837   0.00000  Uiso   1.00
C56    C     0.69062   0.38242   0.86023   0.00000  Uiso   1.00
C57    C     0.77759   0.40375   0.97185   0.00000  Uiso   1.00
C58    C     0.89884   0.40759   0.94572   0.00000  Uiso   1.00
C59    C     0.10749   0.42235   0.95786   0.00000  Uiso   1.00
C60    C     0.61370   0.34343   0.62059   0.00000  Uiso   1.00
C61    C     0.50862   0.37649   0.58442   0.00000  Uiso   1.00
C62    C     0.44900   0.38954   0.43802   0.00000  Uiso   1.00
C63    C     0.35513   0.42013   0.42932   0.00000  Uiso   1.00
C64    C     0.56732   0.30962   0.71792   0.00000  Uiso   1.00
C65    C     0.55707   0.26645   0.68377   0.00000  Uiso   1.00
C66    C     0.51263   0.24075   0.78746   0.00000  Uiso   1.00
C67    C     0.72358   0.36551   0.72723   0.00000  Uiso   1.00
C68    C     0.84472   0.36931   0.70093   0.00000  Uiso   1.00
C69    C     0.93185   0.39065   0.81248   0.00000  Uiso   1.00
H70    H     0.52737   0.38772   0.96900   0.00000  Uiso   1.00
H71    H     0.35638   0.43706   0.81189   0.00000  Uiso   1.00
H72    H     0.46445   0.31398   0.05760   0.00000  Uiso   1.00
H73    H     0.75205   0.41684   0.07476   0.00000  Uiso   1.00
H74    H     0.18132   0.48429   0.57905   0.00000  Uiso   1.00
H75    H     0.40923   0.22478   0.09718   0.00000  Uiso   1.00
H76    H     0.01570   0.44165   0.13335   0.00000  Uiso   1.00
H77    H     0.63936   0.33026   0.51704   0.00000  Uiso   1.00
H78    H     0.47452   0.37645   0.33512   0.00000  Uiso   1.00
H79    H     0.58259   0.25337   0.58084   0.00000  Uiso   1.00
H80    H     0.87019   0.35622   0.59799   0.00000  Uiso   1.00
H81    H     0.27720   0.43509   0.19208   0.00000  Uiso   1.00
H82    H     0.50511   0.17558   0.71022   0.00000  Uiso   1.00
H83    H     0.11158   0.39246   0.74639   0.00000  Uiso   1.00
O84    O     0.11877   0.49109   0.27405   0.00000  Uiso   1.00
O85    O     0.41781   0.15063   0.95383   0.00000  Uiso   1.00
O86    O     0.21347   0.43517   0.00129   0.00000  Uiso   1.00
N87    N     0.22652   0.46638   0.51294   0.00000  Uiso   1.00
N88    N     0.43959   0.22375   0.99735   0.00000  Uiso   1.00
N89    N     0.00659   0.42650   0.03119   0.00000  Uiso   1.00
N90    N     0.27812   0.43990   0.30472   0.00000  Uiso   1.00
N91    N     0.49118   0.19728   0.78913   0.00000  Uiso   1.00
N92    N     0.05819   0.40003   0.82297   0.00000  Uiso   1.00
C93    C     0.24924   0.12854   0.54108   0.00000  Uiso   1.00
C94    C     0.17045   0.10800   0.39648   0.00000  Uiso   1.00
C95    C     0.07504   0.07855   0.39329   0.00000  Uiso   1.00
C96    C     0.01417   0.06355   0.24937   0.00000  Uiso   1.00
C97    C     0.88671   0.02955   0.04550   0.00000  Uiso   1.00
C98    C     0.23319   0.17645   0.51872   0.00000  Uiso   1.00
C99    C     0.19055   0.20456   0.61833   0.00000  Uiso   1.00
C100   C     0.18251   0.24719   0.57731   0.00000  Uiso   1.00
C101   C     0.15254   0.31947   0.56327   0.00000  Uiso   1.00
C102   C     0.38624   0.11879   0.53675   0.00000  Uiso   1.00
C103   C     0.47230   0.09843   0.65153   0.00000  Uiso   1.00
C104   C     0.59312   0.09251   0.62570   0.00000  Uiso   1.00
C105   C     0.80078   0.07526   0.63965   0.00000  Uiso   1.00
C106   C     0.31079   0.15426   0.29114   0.00000  Uiso   1.00
C107   C     0.20389   0.12197   0.26073   0.00000  Uiso   1.00
C108   C     0.14315   0.10700   0.11677   0.00000  Uiso   1.00
C109   C     0.04766   0.07754   0.11337   0.00000  Uiso   1.00
C110   C     0.26662   0.19042   0.38297   0.00000  Uiso   1.00
C111   C     0.25865   0.23302   0.34180   0.00000  Uiso   1.00
C112   C     0.21600   0.26118   0.44131   0.00000  Uiso   1.00
C113   C     0.41968   0.13276   0.40099   0.00000  Uiso   1.00
C114   C     0.54040   0.12688   0.37499   0.00000  Uiso   1.00
C115   C     0.62662   0.10651   0.48970   0.00000  Uiso   1.00
H116   H     0.22321   0.11767   0.64677   0.00000  Uiso   1.00
H117   H     0.04919   0.06775   0.49838   0.00000  Uiso   1.00
H118   H     0.16469   0.19375   0.72338   0.00000  Uiso   1.00
H119   H     0.44639   0.08762   0.75656   0.00000  Uiso   1.00
H120   H     0.87097   0.01859   0.27399   0.00000  Uiso   1.00
H121   H     0.11456   0.28425   0.74844   0.00000  Uiso   1.00
H122   H     0.70858   0.06047   0.81842   0.00000  Uiso   1.00
H123   H     0.33682   0.16513   0.18545   0.00000  Uiso   1.00
H124   H     0.16904   0.11782   0.01174   0.00000  Uiso   1.00
H125   H     0.28454   0.24381   0.23674   0.00000  Uiso   1.00
H126   H     0.56624   0.13769   0.26993   0.00000  Uiso   1.00
H127   H     0.96824   0.05923   0.87901   0.00000  Uiso   1.00
H128   H     0.21184   0.32489   0.35347   0.00000  Uiso   1.00
H129   H     0.80585   0.10111   0.42345   0.00000  Uiso   1.00
O130   O     0.80715   0.00694   0.97055   0.00000  Uiso   1.00
O131   O     0.12676   0.35548   0.59303   0.00000  Uiso   1.00
O132   O     0.90609   0.06188   0.68484   0.00000  Uiso   1.00
N133   N     0.91691   0.03464   0.20487   0.00000  Uiso   1.00
N134   N     0.14463   0.28302   0.64845   0.00000  Uiso   1.00
N135   N     0.69999   0.07381   0.71389   0.00000  Uiso   1.00
N136   N     0.96925   0.05650   0.99234   0.00000  Uiso   1.00
N137   N     0.19697   0.30488   0.43591   0.00000  Uiso   1.00
N138   N     0.75234   0.09568   0.50136   0.00000  Uiso   1.00
C139   C     0.55130   0.62309   0.37230   0.00000  Uiso   1.00
C140   C     0.47451   0.60418   0.22326   0.00000  Uiso   1.00
C141   C     0.38167   0.57346   0.21316   0.00000  Uiso   1.00
C142   C     0.32231   0.56033   0.06610   0.00000  Uiso   1.00
C143   C     0.19811   0.52840   0.85478   0.00000  Uiso   1.00
C144   C     0.53114   0.67109   0.36032   0.00000  Uiso   1.00
C145   C     0.48593   0.69663   0.46546   0.00000  Uiso   1.00
C146   C     0.47425   0.73982   0.43377   0.00000  Uiso   1.00
C147   C     0.43805   0.81178   0.43529   0.00000  Uiso   1.00
C148   C     0.68913   0.61545   0.36663   0.00000  Uiso   1.00
C149   C     0.77678   0.59421   0.47711   0.00000  Uiso   1.00
C150   C     0.89813   0.59056   0.45076   0.00000  Uiso   1.00
C151   C     0.10723   0.57613   0.46209   0.00000  Uiso   1.00
C152   C     0.61097   0.65440   0.12908   0.00000  Uiso   1.00
C153   C     0.50693   0.62119   0.09116   0.00000  Uiso   1.00
C154   C     0.44769   0.60810   0.94407   0.00000  Uiso   1.00
C155   C     0.35478   0.57736   0.93375   0.00000  Uiso   1.00
C156   C     0.56355   0.68810   0.22822   0.00000  Uiso   1.00
C157   C     0.55195   0.73127   0.19637   0.00000  Uiso   1.00
C158   C     0.50672   0.75686   0.30143   0.00000  Uiso   1.00
C159   C     0.72155   0.63246   0.23453   0.00000  Uiso   1.00
C160   C     0.84279   0.62885   0.20801   0.00000  Uiso   1.00
C161   C     0.93060   0.60760   0.31842   0.00000  Uiso   1.00
H162   H     0.52606   0.60985   0.47515   0.00000  Uiso   1.00
H163   H     0.35661   0.56031   0.31542   0.00000  Uiso   1.00
H164   H     0.46086   0.68346   0.56769   0.00000  Uiso   1.00
H165   H     0.75166   0.58105   0.57933   0.00000  Uiso   1.00
H166   H     0.18300   0.51289   0.08008   0.00000  Uiso   1.00
H167   H     0.40286   0.77256   0.61202   0.00000  Uiso   1.00
H168   H     0.01607   0.55662   0.63657   0.00000  Uiso   1.00
H169   H     0.63621   0.66764   0.02623   0.00000  Uiso   1.00
H170   H     0.47280   0.62127   0.84186   0.00000  Uiso   1.00
H171   H     0.57705   0.74442   0.09413   0.00000  Uiso   1.00
H172   H     0.86784   0.64202   0.10577   0.00000  Uiso   1.00
H173   H     0.27729   0.56238   0.69572   0.00000  Uiso   1.00
H174   H     0.49717   0.82205   0.22767   0.00000  Uiso   1.00
H175   H     0.11036   0.60610   0.25221   0.00000  Uiso   1.00
O176   O     0.12063   0.50610   0.77472   0.00000  Uiso   1.00
O177   O     0.40911   0.84677   0.47262   0.00000  Uiso   1.00
O178   O     0.21361   0.56346   0.50482   0.00000  Uiso   1.00
N179   N     0.22763   0.53090   0.01492   0.00000  Uiso   1.00
N180   N     0.43318   0.77367   0.51225   0.00000  Uiso   1.00
N181   N     0.00648   0.57179   0.53522   0.00000  Uiso   1.00
N182   N     0.27838   0.55752   0.80810   0.00000  Uiso   1.00
N183   N     0.48392   0.80030   0.30542   0.00000  Uiso   1.00
N184   N     0.05722   0.59842   0.32840   0.00000  Uiso   1.00
