data_job_01003
_audit_creation_date              2018-12-19
_audit_creation_method            'Materials Studio'
_symmetry_space_group_name_H-M    'P1'
_symmetry_Int_Tables_number       1
_symmetry_cell_setting            triclinic
loop_
_symmetry_equiv_pos_as_xyz
  x,y,z
_cell_length_a                    16.5819
_cell_length_b                    7.3958
_cell_length_c                    22.9822
_cell_angle_alpha                 90.0000
_cell_angle_beta                  58.2414
_cell_angle_gamma                 90.0000
loop_
_atom_site_label
_atom_site_type_symbol
_atom_site_fract_x
_atom_site_fract_y
_atom_site_fract_z
_atom_site_U_iso_or_equiv
_atom_site_adp_type
_atom_site_occupancy
C1     C     0.27255   0.08237   0.22284   0.00000  Uiso   1.00
C2     C     0.36724   0.16181   0.16753   0.00000  Uiso   1.00
C3     C     0.45475   0.07687   0.13842   0.00000  Uiso   1.00
C4     C     0.53299   0.17220   0.08859   0.00000  Uiso   1.00
C5     C     0.68141   0.26912   0.00576   0.00000  Uiso   1.00
C6     C     0.23077   0.21716   0.28189   0.00000  Uiso   1.00
C7     C     0.20352   0.17873   0.34893   0.00000  Uiso   1.00
C8     C     0.16686   0.32066   0.39538   0.00000  Uiso   1.00
C9     C     0.10333   0.50346   0.49010   0.00000  Uiso   1.00
C10    C     0.20823   0.08770   0.19396   0.00000  Uiso   1.00
C11    C     0.16201   0.94044   0.18708   0.00000  Uiso   1.00
C12    C     0.10636   0.97338   0.15952   0.00000  Uiso   1.00
C13    C     0.00783   0.95519   0.11772   0.00000  Uiso   1.00
C14    C     0.25589   0.40274   0.18613   0.00000  Uiso   1.00
C15    C     0.35819   0.33582   0.14759   0.00000  Uiso   1.00
C16    C     0.43632   0.43131   0.09779   0.00000  Uiso   1.00
C17    C     0.52393   0.34652   0.06861   0.00000  Uiso   1.00
C18    C     0.22172   0.39116   0.26195   0.00000  Uiso   1.00
C19    C     0.18509   0.53317   0.30831   0.00000  Uiso   1.00
C20    C     0.15779   0.49498   0.37540   0.00000  Uiso   1.00
C21    C     0.19918   0.26171   0.17401   0.00000  Uiso   1.00
C22    C     0.14358   0.29489   0.14646   0.00000  Uiso   1.00
C23    C     0.09729   0.14770   0.13954   0.00000  Uiso   1.00
H24    H     0.27960   0.94691   0.23837   0.00000  Uiso   1.00
H25    H     0.46173   0.94221   0.15387   0.00000  Uiso   1.00
H26    H     0.21052   0.04406   0.36435   0.00000  Uiso   1.00
H27    H     0.16903   0.80581   0.20252   0.00000  Uiso   1.00
H28    H     0.65967   0.01377   0.05140   0.00000  Uiso   1.00
H29    H     0.12996   0.22850   0.49522   0.00000  Uiso   1.00
H30    H     0.04245   0.72610   0.15398   0.00000  Uiso   1.00
H31    H     0.24884   0.53821   0.17060   0.00000  Uiso   1.00
H32    H     0.42929   0.56597   0.08237   0.00000  Uiso   1.00
H33    H     0.17809   0.66781   0.29286   0.00000  Uiso   1.00
H34    H     0.13659   0.42956   0.13103   0.00000  Uiso   1.00
H35    H     0.63334   0.52004   0.99337   0.00000  Uiso   1.00
H36    H     0.10363   0.73477   0.43720   0.00000  Uiso   1.00
H37    H     0.01613   0.23236   0.09595   0.00000  Uiso   1.00
O38    O     0.76577   0.27452   0.96559   0.00000  Uiso   1.00
O39    O     0.07080   0.55622   0.54786   0.00000  Uiso   1.00
O40    O     0.95600   0.89708   0.10016   0.00000  Uiso   1.00
N41    N     0.62871   0.12910   0.04984   0.00000  Uiso   1.00
N42    N     0.13348   0.32987   0.46478   0.00000  Uiso   1.00
N43    N     0.05164   0.86017   0.14577   0.00000  Uiso   1.00
N44    N     0.61454   0.40151   0.01862   0.00000  Uiso   1.00
N45    N     0.11931   0.60228   0.43356   0.00000  Uiso   1.00
N46    N     0.03748   0.13258   0.11455   0.00000  Uiso   1.00
C47    C     0.72745   0.08237   0.27716   0.00000  Uiso   1.00
C48    C     0.63276   0.16181   0.33247   0.00000  Uiso   1.00
C49    C     0.54525   0.07687   0.36158   0.00000  Uiso   1.00
C50    C     0.46701   0.17220   0.41141   0.00000  Uiso   1.00
C51    C     0.31859   0.26912   0.49424   0.00000  Uiso   1.00
C52    C     0.76923   0.21716   0.21811   0.00000  Uiso   1.00
C53    C     0.79648   0.17873   0.15107   0.00000  Uiso   1.00
C54    C     0.83314   0.32066   0.10462   0.00000  Uiso   1.00
C55    C     0.89667   0.50346   0.00990   0.00000  Uiso   1.00
C56    C     0.79177   0.08770   0.30604   0.00000  Uiso   1.00
C57    C     0.83799   0.94044   0.31292   0.00000  Uiso   1.00
C58    C     0.89364   0.97338   0.34048   0.00000  Uiso   1.00
C59    C     0.99217   0.95519   0.38228   0.00000  Uiso   1.00
C60    C     0.74411   0.40274   0.31387   0.00000  Uiso   1.00
C61    C     0.64181   0.33582   0.35241   0.00000  Uiso   1.00
C62    C     0.56368   0.43131   0.40221   0.00000  Uiso   1.00
C63    C     0.47607   0.34652   0.43139   0.00000  Uiso   1.00
C64    C     0.77828   0.39116   0.23805   0.00000  Uiso   1.00
C65    C     0.81491   0.53317   0.19169   0.00000  Uiso   1.00
C66    C     0.84221   0.49498   0.12460   0.00000  Uiso   1.00
C67    C     0.80082   0.26171   0.32599   0.00000  Uiso   1.00
C68    C     0.85642   0.29489   0.35354   0.00000  Uiso   1.00
C69    C     0.90271   0.14770   0.36046   0.00000  Uiso   1.00
H70    H     0.72040   0.94691   0.26163   0.00000  Uiso   1.00
H71    H     0.53827   0.94221   0.34613   0.00000  Uiso   1.00
H72    H     0.78948   0.04406   0.13565   0.00000  Uiso   1.00
H73    H     0.83097   0.80581   0.29748   0.00000  Uiso   1.00
H74    H     0.34033   0.01377   0.44860   0.00000  Uiso   1.00
H75    H     0.87004   0.22850   0.00478   0.00000  Uiso   1.00
H76    H     0.95755   0.72610   0.34602   0.00000  Uiso   1.00
H77    H     0.75116   0.53821   0.32940   0.00000  Uiso   1.00
H78    H     0.57071   0.56597   0.41763   0.00000  Uiso   1.00
H79    H     0.82191   0.66781   0.20714   0.00000  Uiso   1.00
H80    H     0.86341   0.42956   0.36897   0.00000  Uiso   1.00
H81    H     0.36666   0.52004   0.50663   0.00000  Uiso   1.00
H82    H     0.89637   0.73477   0.06280   0.00000  Uiso   1.00
H83    H     0.98387   0.23236   0.40405   0.00000  Uiso   1.00
O84    O     0.23423   0.27452   0.53441   0.00000  Uiso   1.00
O85    O     0.92920   0.55622   0.95214   0.00000  Uiso   1.00
O86    O     0.04400   0.89708   0.39984   0.00000  Uiso   1.00
N87    N     0.37129   0.12910   0.45016   0.00000  Uiso   1.00
N88    N     0.86652   0.32987   0.03522   0.00000  Uiso   1.00
N89    N     0.94836   0.86017   0.35423   0.00000  Uiso   1.00
N90    N     0.38546   0.40151   0.48138   0.00000  Uiso   1.00
N91    N     0.88069   0.60228   0.06644   0.00000  Uiso   1.00
N92    N     0.96252   0.13258   0.38545   0.00000  Uiso   1.00
C93    C     0.72745   0.91763   0.77716   0.00000  Uiso   1.00
C94    C     0.63276   0.83819   0.83247   0.00000  Uiso   1.00
C95    C     0.54525   0.92313   0.86158   0.00000  Uiso   1.00
C96    C     0.46701   0.82780   0.91141   0.00000  Uiso   1.00
C97    C     0.31859   0.73088   0.99424   0.00000  Uiso   1.00
C98    C     0.76923   0.78284   0.71811   0.00000  Uiso   1.00
C99    C     0.79648   0.82127   0.65107   0.00000  Uiso   1.00
C100   C     0.83314   0.67934   0.60462   0.00000  Uiso   1.00
C101   C     0.89667   0.49654   0.50990   0.00000  Uiso   1.00
C102   C     0.79177   0.91230   0.80604   0.00000  Uiso   1.00
C103   C     0.83799   0.05956   0.81292   0.00000  Uiso   1.00
C104   C     0.89364   0.02662   0.84048   0.00000  Uiso   1.00
C105   C     0.99217   0.04481   0.88228   0.00000  Uiso   1.00
C106   C     0.74411   0.59726   0.81387   0.00000  Uiso   1.00
C107   C     0.64181   0.66418   0.85241   0.00000  Uiso   1.00
C108   C     0.56368   0.56869   0.90221   0.00000  Uiso   1.00
C109   C     0.47607   0.65348   0.93139   0.00000  Uiso   1.00
C110   C     0.77828   0.60884   0.73805   0.00000  Uiso   1.00
C111   C     0.81491   0.46683   0.69169   0.00000  Uiso   1.00
C112   C     0.84221   0.50502   0.62460   0.00000  Uiso   1.00
C113   C     0.80082   0.73829   0.82599   0.00000  Uiso   1.00
C114   C     0.85642   0.70511   0.85354   0.00000  Uiso   1.00
C115   C     0.90271   0.85230   0.86046   0.00000  Uiso   1.00
H116   H     0.72040   0.05309   0.76163   0.00000  Uiso   1.00
H117   H     0.53827   0.05779   0.84613   0.00000  Uiso   1.00
H118   H     0.78948   0.95594   0.63565   0.00000  Uiso   1.00
H119   H     0.83097   0.19419   0.79748   0.00000  Uiso   1.00
H120   H     0.34033   0.98623   0.94860   0.00000  Uiso   1.00
H121   H     0.87004   0.77150   0.50478   0.00000  Uiso   1.00
H122   H     0.95755   0.27390   0.84602   0.00000  Uiso   1.00
H123   H     0.75116   0.46179   0.82940   0.00000  Uiso   1.00
H124   H     0.57071   0.43403   0.91763   0.00000  Uiso   1.00
H125   H     0.82191   0.33219   0.70714   0.00000  Uiso   1.00
H126   H     0.86341   0.57044   0.86897   0.00000  Uiso   1.00
H127   H     0.36666   0.47996   0.00663   0.00000  Uiso   1.00
H128   H     0.89637   0.26523   0.56280   0.00000  Uiso   1.00
H129   H     0.98387   0.76764   0.90405   0.00000  Uiso   1.00
O130   O     0.23423   0.72548   0.03441   0.00000  Uiso   1.00
O131   O     0.92920   0.44378   0.45214   0.00000  Uiso   1.00
O132   O     0.04400   0.10292   0.89984   0.00000  Uiso   1.00
N133   N     0.37129   0.87090   0.95016   0.00000  Uiso   1.00
N134   N     0.86652   0.67013   0.53522   0.00000  Uiso   1.00
N135   N     0.94836   0.13983   0.85423   0.00000  Uiso   1.00
N136   N     0.38546   0.59849   0.98138   0.00000  Uiso   1.00
N137   N     0.88069   0.39772   0.56644   0.00000  Uiso   1.00
N138   N     0.96252   0.86742   0.88545   0.00000  Uiso   1.00
C139   C     0.27255   0.91763   0.72284   0.00000  Uiso   1.00
C140   C     0.36724   0.83819   0.66753   0.00000  Uiso   1.00
C141   C     0.45475   0.92313   0.63842   0.00000  Uiso   1.00
C142   C     0.53299   0.82780   0.58859   0.00000  Uiso   1.00
C143   C     0.68141   0.73088   0.50576   0.00000  Uiso   1.00
C144   C     0.23077   0.78284   0.78189   0.00000  Uiso   1.00
C145   C     0.20352   0.82127   0.84893   0.00000  Uiso   1.00
C146   C     0.16686   0.67934   0.89538   0.00000  Uiso   1.00
C147   C     0.10333   0.49654   0.99010   0.00000  Uiso   1.00
C148   C     0.20823   0.91230   0.69396   0.00000  Uiso   1.00
C149   C     0.16201   0.05956   0.68708   0.00000  Uiso   1.00
C150   C     0.10636   0.02662   0.65952   0.00000  Uiso   1.00
C151   C     0.00783   0.04481   0.61772   0.00000  Uiso   1.00
C152   C     0.25589   0.59726   0.68613   0.00000  Uiso   1.00
C153   C     0.35819   0.66418   0.64759   0.00000  Uiso   1.00
C154   C     0.43632   0.56869   0.59779   0.00000  Uiso   1.00
C155   C     0.52393   0.65348   0.56861   0.00000  Uiso   1.00
C156   C     0.22172   0.60884   0.76195   0.00000  Uiso   1.00
C157   C     0.18509   0.46683   0.80831   0.00000  Uiso   1.00
C158   C     0.15779   0.50502   0.87540   0.00000  Uiso   1.00
C159   C     0.19918   0.73829   0.67401   0.00000  Uiso   1.00
C160   C     0.14358   0.70511   0.64646   0.00000  Uiso   1.00
C161   C     0.09729   0.85230   0.63954   0.00000  Uiso   1.00
H162   H     0.27960   0.05309   0.73837   0.00000  Uiso   1.00
H163   H     0.46173   0.05779   0.65387   0.00000  Uiso   1.00
H164   H     0.21052   0.95594   0.86435   0.00000  Uiso   1.00
H165   H     0.16903   0.19419   0.70252   0.00000  Uiso   1.00
H166   H     0.65967   0.98623   0.55140   0.00000  Uiso   1.00
H167   H     0.12996   0.77150   0.99522   0.00000  Uiso   1.00
H168   H     0.04245   0.27390   0.65398   0.00000  Uiso   1.00
H169   H     0.24884   0.46179   0.67060   0.00000  Uiso   1.00
H170   H     0.42929   0.43403   0.58237   0.00000  Uiso   1.00
H171   H     0.17809   0.33219   0.79286   0.00000  Uiso   1.00
H172   H     0.13659   0.57044   0.63103   0.00000  Uiso   1.00
H173   H     0.63334   0.47996   0.49337   0.00000  Uiso   1.00
H174   H     0.10363   0.26523   0.93720   0.00000  Uiso   1.00
H175   H     0.01613   0.76764   0.59595   0.00000  Uiso   1.00
O176   O     0.76577   0.72548   0.46559   0.00000  Uiso   1.00
O177   O     0.07080   0.44378   0.04786   0.00000  Uiso   1.00
O178   O     0.95600   0.10292   0.60016   0.00000  Uiso   1.00
N179   N     0.62871   0.87090   0.54984   0.00000  Uiso   1.00
N180   N     0.13348   0.67013   0.96478   0.00000  Uiso   1.00
N181   N     0.05164   0.13983   0.64577   0.00000  Uiso   1.00
N182   N     0.61454   0.59849   0.51862   0.00000  Uiso   1.00
N183   N     0.11931   0.39772   0.93356   0.00000  Uiso   1.00
N184   N     0.03748   0.86742   0.61455   0.00000  Uiso   1.00
