data_job_02878
_audit_creation_date              2018-12-19
_audit_creation_method            'Materials Studio'
_symmetry_space_group_name_H-M    'P1'
_symmetry_Int_Tables_number       1
_symmetry_cell_setting            triclinic
loop_
_symmetry_equiv_pos_as_xyz
  x,y,z
_cell_length_a                    40.5313
_cell_length_b                    13.8478
_cell_length_c                    23.7154
_cell_angle_alpha                 90.0000
_cell_angle_beta                  90.0000
_cell_angle_gamma                 90.0000
loop_
_atom_site_label
_atom_site_type_symbol
_atom_site_fract_x
_atom_site_fract_y
_atom_site_fract_z
_atom_site_U_iso_or_equiv
_atom_site_adp_type
_atom_site_occupancy
C1     C     0.66636   0.78094   0.03486   0.00000  Uiso   1.00
C2     C     0.63171   0.82374   0.03283   0.00000  Uiso   1.00
C3     C     0.60249   0.77153   0.03170   0.00000  Uiso   1.00
C4     C     0.57334   0.82409   0.02988   0.00000  Uiso   1.00
C5     C     0.51953   0.87516   0.02680   0.00000  Uiso   1.00
C6     C     0.68463   0.82234   0.98411   0.00000  Uiso   1.00
C7     C     0.69991   0.76896   0.94202   0.00000  Uiso   1.00
C8     C     0.71530   0.82034   0.89919   0.00000  Uiso   1.00
C9     C     0.74367   0.86924   0.82050   0.00000  Uiso   1.00
C10    C     0.68287   0.82434   0.08679   0.00000  Uiso   1.00
C11    C     0.69667   0.77264   0.13103   0.00000  Uiso   1.00
C12    C     0.71059   0.82571   0.17463   0.00000  Uiso   1.00
C13    C     0.73621   0.87770   0.25536   0.00000  Uiso   1.00
C14    C     0.66655   0.96712   0.03363   0.00000  Uiso   1.00
C15    C     0.63182   0.92486   0.03217   0.00000  Uiso   1.00
C16    C     0.60270   0.97751   0.03034   0.00000  Uiso   1.00
C17    C     0.57345   0.92540   0.02921   0.00000  Uiso   1.00
C18    C     0.68473   0.92346   0.98345   0.00000  Uiso   1.00
C19    C     0.70011   0.97494   0.94067   0.00000  Uiso   1.00
C20    C     0.71541   0.92165   0.89852   0.00000  Uiso   1.00
C21    C     0.68297   0.92546   0.08612   0.00000  Uiso   1.00
C22    C     0.69687   0.97862   0.12967   0.00000  Uiso   1.00
C23    C     0.71069   0.92701   0.17396   0.00000  Uiso   1.00
H24    H     0.66628   0.70222   0.03538   0.00000  Uiso   1.00
H25    H     0.60243   0.69328   0.03221   0.00000  Uiso   1.00
H26    H     0.69983   0.69070   0.94256   0.00000  Uiso   1.00
H27    H     0.69658   0.69439   0.13153   0.00000  Uiso   1.00
H28    H     0.53168   0.72796   0.02839   0.00000  Uiso   1.00
H29    H     0.73706   0.72253   0.83935   0.00000  Uiso   1.00
H30    H     0.73022   0.73029   0.23784   0.00000  Uiso   1.00
H31    H     0.66663   0.04585   0.03311   0.00000  Uiso   1.00
H32    H     0.60279   0.05577   0.02983   0.00000  Uiso   1.00
H33    H     0.70019   0.05319   0.94017   0.00000  Uiso   1.00
H34    H     0.69695   0.05687   0.12914   0.00000  Uiso   1.00
H35    H     0.53197   0.02217   0.02645   0.00000  Uiso   1.00
H36    H     0.73735   0.01674   0.83741   0.00000  Uiso   1.00
H37    H     0.73052   0.02451   0.23590   0.00000  Uiso   1.00
O38    O     0.48982   0.87539   0.02528   0.00000  Uiso   1.00
O39    O     0.75928   0.86827   0.77727   0.00000  Uiso   1.00
O40    O     0.75031   0.87845   0.30008   0.00000  Uiso   1.00
N41    N     0.54051   0.79584   0.02840   0.00000  Uiso   1.00
N42    N     0.73252   0.79077   0.85165   0.00000  Uiso   1.00
N43    N     0.72614   0.79802   0.22419   0.00000  Uiso   1.00
N44    N     0.54066   0.95415   0.02735   0.00000  Uiso   1.00
N45    N     0.73268   0.94908   0.85061   0.00000  Uiso   1.00
N46    N     0.72630   0.95634   0.22315   0.00000  Uiso   1.00
C47    C     0.16636   0.28094   0.53486   0.00000  Uiso   1.00
C48    C     0.13171   0.32374   0.53283   0.00000  Uiso   1.00
C49    C     0.10249   0.27153   0.53170   0.00000  Uiso   1.00
C50    C     0.07334   0.32409   0.52988   0.00000  Uiso   1.00
C51    C     0.01953   0.37516   0.52680   0.00000  Uiso   1.00
C52    C     0.18463   0.32234   0.48411   0.00000  Uiso   1.00
C53    C     0.19991   0.26896   0.44202   0.00000  Uiso   1.00
C54    C     0.21530   0.32034   0.39919   0.00000  Uiso   1.00
C55    C     0.24367   0.36924   0.32050   0.00000  Uiso   1.00
C56    C     0.18287   0.32434   0.58679   0.00000  Uiso   1.00
C57    C     0.19667   0.27264   0.63103   0.00000  Uiso   1.00
C58    C     0.21059   0.32571   0.67463   0.00000  Uiso   1.00
C59    C     0.23621   0.37770   0.75536   0.00000  Uiso   1.00
C60    C     0.16655   0.46712   0.53363   0.00000  Uiso   1.00
C61    C     0.13182   0.42486   0.53217   0.00000  Uiso   1.00
C62    C     0.10270   0.47751   0.53034   0.00000  Uiso   1.00
C63    C     0.07345   0.42540   0.52921   0.00000  Uiso   1.00
C64    C     0.18473   0.42346   0.48345   0.00000  Uiso   1.00
C65    C     0.20011   0.47494   0.44067   0.00000  Uiso   1.00
C66    C     0.21541   0.42165   0.39852   0.00000  Uiso   1.00
C67    C     0.18297   0.42546   0.58612   0.00000  Uiso   1.00
C68    C     0.19687   0.47862   0.62967   0.00000  Uiso   1.00
C69    C     0.21069   0.42701   0.67396   0.00000  Uiso   1.00
H70    H     0.16628   0.20222   0.53538   0.00000  Uiso   1.00
H71    H     0.10243   0.19328   0.53221   0.00000  Uiso   1.00
H72    H     0.19983   0.19070   0.44256   0.00000  Uiso   1.00
H73    H     0.19658   0.19439   0.63153   0.00000  Uiso   1.00
H74    H     0.03168   0.22796   0.52839   0.00000  Uiso   1.00
H75    H     0.23706   0.22253   0.33935   0.00000  Uiso   1.00
H76    H     0.23022   0.23029   0.73784   0.00000  Uiso   1.00
H77    H     0.16663   0.54585   0.53311   0.00000  Uiso   1.00
H78    H     0.10279   0.55577   0.52983   0.00000  Uiso   1.00
H79    H     0.20019   0.55319   0.44017   0.00000  Uiso   1.00
H80    H     0.19695   0.55687   0.62914   0.00000  Uiso   1.00
H81    H     0.03197   0.52217   0.52645   0.00000  Uiso   1.00
H82    H     0.23735   0.51674   0.33741   0.00000  Uiso   1.00
H83    H     0.23052   0.52451   0.73590   0.00000  Uiso   1.00
O84    O     0.98982   0.37539   0.52528   0.00000  Uiso   1.00
O85    O     0.25928   0.36827   0.27727   0.00000  Uiso   1.00
O86    O     0.25031   0.37845   0.80008   0.00000  Uiso   1.00
N87    N     0.04051   0.29584   0.52840   0.00000  Uiso   1.00
N88    N     0.23252   0.29077   0.35165   0.00000  Uiso   1.00
N89    N     0.22614   0.29802   0.72419   0.00000  Uiso   1.00
N90    N     0.04066   0.45415   0.52735   0.00000  Uiso   1.00
N91    N     0.23268   0.44908   0.35061   0.00000  Uiso   1.00
N92    N     0.22630   0.45634   0.72315   0.00000  Uiso   1.00
C93    C     0.33364   0.21906   0.03486   0.00000  Uiso   1.00
C94    C     0.36829   0.17626   0.03283   0.00000  Uiso   1.00
C95    C     0.39751   0.22847   0.03170   0.00000  Uiso   1.00
C96    C     0.42666   0.17591   0.02988   0.00000  Uiso   1.00
C97    C     0.48047   0.12484   0.02680   0.00000  Uiso   1.00
C98    C     0.31537   0.17766   0.98411   0.00000  Uiso   1.00
C99    C     0.30009   0.23104   0.94202   0.00000  Uiso   1.00
C100   C     0.28470   0.17966   0.89919   0.00000  Uiso   1.00
C101   C     0.25633   0.13076   0.82050   0.00000  Uiso   1.00
C102   C     0.31713   0.17566   0.08679   0.00000  Uiso   1.00
C103   C     0.30333   0.22736   0.13103   0.00000  Uiso   1.00
C104   C     0.28941   0.17429   0.17463   0.00000  Uiso   1.00
C105   C     0.26379   0.12230   0.25536   0.00000  Uiso   1.00
C106   C     0.33345   0.03288   0.03363   0.00000  Uiso   1.00
C107   C     0.36818   0.07514   0.03217   0.00000  Uiso   1.00
C108   C     0.39730   0.02249   0.03034   0.00000  Uiso   1.00
C109   C     0.42655   0.07460   0.02921   0.00000  Uiso   1.00
C110   C     0.31527   0.07654   0.98345   0.00000  Uiso   1.00
C111   C     0.29989   0.02506   0.94067   0.00000  Uiso   1.00
C112   C     0.28459   0.07835   0.89852   0.00000  Uiso   1.00
C113   C     0.31703   0.07454   0.08612   0.00000  Uiso   1.00
C114   C     0.30313   0.02138   0.12967   0.00000  Uiso   1.00
C115   C     0.28931   0.07299   0.17396   0.00000  Uiso   1.00
H116   H     0.33372   0.29778   0.03538   0.00000  Uiso   1.00
H117   H     0.39757   0.30672   0.03221   0.00000  Uiso   1.00
H118   H     0.30017   0.30930   0.94256   0.00000  Uiso   1.00
H119   H     0.30342   0.30561   0.13153   0.00000  Uiso   1.00
H120   H     0.46832   0.27204   0.02839   0.00000  Uiso   1.00
H121   H     0.26294   0.27747   0.83935   0.00000  Uiso   1.00
H122   H     0.26978   0.26971   0.23784   0.00000  Uiso   1.00
H123   H     0.33337   0.95415   0.03311   0.00000  Uiso   1.00
H124   H     0.39721   0.94423   0.02983   0.00000  Uiso   1.00
H125   H     0.29981   0.94681   0.94017   0.00000  Uiso   1.00
H126   H     0.30305   0.94313   0.12914   0.00000  Uiso   1.00
H127   H     0.46803   0.97783   0.02645   0.00000  Uiso   1.00
H128   H     0.26265   0.98326   0.83741   0.00000  Uiso   1.00
H129   H     0.26948   0.97549   0.23590   0.00000  Uiso   1.00
O130   O     0.51018   0.12461   0.02528   0.00000  Uiso   1.00
O131   O     0.24072   0.13173   0.77727   0.00000  Uiso   1.00
O132   O     0.24969   0.12155   0.30008   0.00000  Uiso   1.00
N133   N     0.45949   0.20416   0.02840   0.00000  Uiso   1.00
N134   N     0.26748   0.20923   0.85165   0.00000  Uiso   1.00
N135   N     0.27386   0.20198   0.22419   0.00000  Uiso   1.00
N136   N     0.45934   0.04585   0.02735   0.00000  Uiso   1.00
N137   N     0.26732   0.05092   0.85061   0.00000  Uiso   1.00
N138   N     0.27370   0.04366   0.22315   0.00000  Uiso   1.00
C139   C     0.83364   0.71906   0.53486   0.00000  Uiso   1.00
C140   C     0.86829   0.67626   0.53283   0.00000  Uiso   1.00
C141   C     0.89751   0.72847   0.53170   0.00000  Uiso   1.00
C142   C     0.92666   0.67591   0.52988   0.00000  Uiso   1.00
C143   C     0.98047   0.62484   0.52680   0.00000  Uiso   1.00
C144   C     0.81537   0.67766   0.48411   0.00000  Uiso   1.00
C145   C     0.80009   0.73104   0.44202   0.00000  Uiso   1.00
C146   C     0.78470   0.67966   0.39919   0.00000  Uiso   1.00
C147   C     0.75633   0.63076   0.32050   0.00000  Uiso   1.00
C148   C     0.81713   0.67566   0.58679   0.00000  Uiso   1.00
C149   C     0.80333   0.72736   0.63103   0.00000  Uiso   1.00
C150   C     0.78941   0.67429   0.67463   0.00000  Uiso   1.00
C151   C     0.76379   0.62230   0.75536   0.00000  Uiso   1.00
C152   C     0.83345   0.53288   0.53363   0.00000  Uiso   1.00
C153   C     0.86818   0.57514   0.53217   0.00000  Uiso   1.00
C154   C     0.89730   0.52249   0.53034   0.00000  Uiso   1.00
C155   C     0.92655   0.57460   0.52921   0.00000  Uiso   1.00
C156   C     0.81527   0.57654   0.48345   0.00000  Uiso   1.00
C157   C     0.79989   0.52506   0.44067   0.00000  Uiso   1.00
C158   C     0.78459   0.57835   0.39852   0.00000  Uiso   1.00
C159   C     0.81703   0.57454   0.58612   0.00000  Uiso   1.00
C160   C     0.80313   0.52138   0.62967   0.00000  Uiso   1.00
C161   C     0.78931   0.57299   0.67396   0.00000  Uiso   1.00
H162   H     0.83372   0.79778   0.53538   0.00000  Uiso   1.00
H163   H     0.89757   0.80672   0.53221   0.00000  Uiso   1.00
H164   H     0.80017   0.80930   0.44256   0.00000  Uiso   1.00
H165   H     0.80342   0.80561   0.63153   0.00000  Uiso   1.00
H166   H     0.96832   0.77204   0.52839   0.00000  Uiso   1.00
H167   H     0.76294   0.77747   0.33935   0.00000  Uiso   1.00
H168   H     0.76978   0.76971   0.73784   0.00000  Uiso   1.00
H169   H     0.83337   0.45415   0.53311   0.00000  Uiso   1.00
H170   H     0.89721   0.44423   0.52983   0.00000  Uiso   1.00
H171   H     0.79981   0.44681   0.44017   0.00000  Uiso   1.00
H172   H     0.80305   0.44313   0.62914   0.00000  Uiso   1.00
H173   H     0.96803   0.47783   0.52645   0.00000  Uiso   1.00
H174   H     0.76265   0.48326   0.33741   0.00000  Uiso   1.00
H175   H     0.76948   0.47549   0.73590   0.00000  Uiso   1.00
O176   O     0.01018   0.62461   0.52528   0.00000  Uiso   1.00
O177   O     0.74072   0.63173   0.27727   0.00000  Uiso   1.00
O178   O     0.74969   0.62155   0.80008   0.00000  Uiso   1.00
N179   N     0.95949   0.70416   0.52840   0.00000  Uiso   1.00
N180   N     0.76748   0.70923   0.35165   0.00000  Uiso   1.00
N181   N     0.77386   0.70198   0.72419   0.00000  Uiso   1.00
N182   N     0.95934   0.54585   0.52735   0.00000  Uiso   1.00
N183   N     0.76732   0.55092   0.35061   0.00000  Uiso   1.00
N184   N     0.77370   0.54366   0.72315   0.00000  Uiso   1.00
C185   C     0.16636   0.71906   0.03486   0.00000  Uiso   1.00
C186   C     0.13171   0.67626   0.03283   0.00000  Uiso   1.00
C187   C     0.10249   0.72847   0.03170   0.00000  Uiso   1.00
C188   C     0.07334   0.67591   0.02988   0.00000  Uiso   1.00
C189   C     0.01953   0.62484   0.02680   0.00000  Uiso   1.00
C190   C     0.18463   0.67766   0.98411   0.00000  Uiso   1.00
C191   C     0.19991   0.73104   0.94202   0.00000  Uiso   1.00
C192   C     0.21530   0.67966   0.89919   0.00000  Uiso   1.00
C193   C     0.24367   0.63076   0.82050   0.00000  Uiso   1.00
C194   C     0.18287   0.67566   0.08679   0.00000  Uiso   1.00
C195   C     0.19667   0.72736   0.13103   0.00000  Uiso   1.00
C196   C     0.21059   0.67429   0.17463   0.00000  Uiso   1.00
C197   C     0.23621   0.62230   0.25536   0.00000  Uiso   1.00
C198   C     0.16655   0.53288   0.03363   0.00000  Uiso   1.00
C199   C     0.13182   0.57514   0.03217   0.00000  Uiso   1.00
C200   C     0.10270   0.52249   0.03034   0.00000  Uiso   1.00
C201   C     0.07345   0.57460   0.02921   0.00000  Uiso   1.00
C202   C     0.18473   0.57654   0.98345   0.00000  Uiso   1.00
C203   C     0.20011   0.52506   0.94067   0.00000  Uiso   1.00
C204   C     0.21541   0.57835   0.89852   0.00000  Uiso   1.00
C205   C     0.18297   0.57454   0.08612   0.00000  Uiso   1.00
C206   C     0.19687   0.52138   0.12967   0.00000  Uiso   1.00
C207   C     0.21069   0.57299   0.17396   0.00000  Uiso   1.00
H208   H     0.16628   0.79778   0.03538   0.00000  Uiso   1.00
H209   H     0.10243   0.80672   0.03221   0.00000  Uiso   1.00
H210   H     0.19983   0.80930   0.94256   0.00000  Uiso   1.00
H211   H     0.19658   0.80561   0.13153   0.00000  Uiso   1.00
H212   H     0.03168   0.77204   0.02839   0.00000  Uiso   1.00
H213   H     0.23706   0.77747   0.83935   0.00000  Uiso   1.00
H214   H     0.23022   0.76971   0.23784   0.00000  Uiso   1.00
H215   H     0.16663   0.45415   0.03311   0.00000  Uiso   1.00
H216   H     0.10279   0.44423   0.02983   0.00000  Uiso   1.00
H217   H     0.20019   0.44681   0.94017   0.00000  Uiso   1.00
H218   H     0.19695   0.44313   0.12914   0.00000  Uiso   1.00
H219   H     0.03197   0.47783   0.02645   0.00000  Uiso   1.00
H220   H     0.23735   0.48326   0.83741   0.00000  Uiso   1.00
H221   H     0.23052   0.47549   0.23590   0.00000  Uiso   1.00
O222   O     0.98982   0.62461   0.02528   0.00000  Uiso   1.00
O223   O     0.25928   0.63173   0.77727   0.00000  Uiso   1.00
O224   O     0.25031   0.62155   0.30008   0.00000  Uiso   1.00
N225   N     0.04051   0.70416   0.02840   0.00000  Uiso   1.00
N226   N     0.23252   0.70923   0.85165   0.00000  Uiso   1.00
N227   N     0.22614   0.70198   0.22419   0.00000  Uiso   1.00
N228   N     0.04066   0.54585   0.02735   0.00000  Uiso   1.00
N229   N     0.23268   0.55092   0.85061   0.00000  Uiso   1.00
N230   N     0.22630   0.54366   0.22315   0.00000  Uiso   1.00
C231   C     0.66636   0.21906   0.53486   0.00000  Uiso   1.00
C232   C     0.63171   0.17626   0.53283   0.00000  Uiso   1.00
C233   C     0.60249   0.22847   0.53170   0.00000  Uiso   1.00
C234   C     0.57334   0.17591   0.52988   0.00000  Uiso   1.00
C235   C     0.51953   0.12484   0.52680   0.00000  Uiso   1.00
C236   C     0.68463   0.17766   0.48411   0.00000  Uiso   1.00
C237   C     0.69991   0.23104   0.44202   0.00000  Uiso   1.00
C238   C     0.71530   0.17966   0.39919   0.00000  Uiso   1.00
C239   C     0.74367   0.13076   0.32050   0.00000  Uiso   1.00
C240   C     0.68287   0.17566   0.58679   0.00000  Uiso   1.00
C241   C     0.69667   0.22736   0.63103   0.00000  Uiso   1.00
C242   C     0.71059   0.17429   0.67463   0.00000  Uiso   1.00
C243   C     0.73621   0.12230   0.75536   0.00000  Uiso   1.00
C244   C     0.66655   0.03288   0.53363   0.00000  Uiso   1.00
C245   C     0.63182   0.07514   0.53217   0.00000  Uiso   1.00
C246   C     0.60270   0.02249   0.53034   0.00000  Uiso   1.00
C247   C     0.57345   0.07460   0.52921   0.00000  Uiso   1.00
C248   C     0.68473   0.07654   0.48345   0.00000  Uiso   1.00
C249   C     0.70011   0.02506   0.44067   0.00000  Uiso   1.00
C250   C     0.71541   0.07835   0.39852   0.00000  Uiso   1.00
C251   C     0.68297   0.07454   0.58612   0.00000  Uiso   1.00
C252   C     0.69687   0.02138   0.62967   0.00000  Uiso   1.00
C253   C     0.71069   0.07299   0.67396   0.00000  Uiso   1.00
H254   H     0.66628   0.29778   0.53538   0.00000  Uiso   1.00
H255   H     0.60243   0.30672   0.53221   0.00000  Uiso   1.00
H256   H     0.69983   0.30930   0.44256   0.00000  Uiso   1.00
H257   H     0.69658   0.30561   0.63153   0.00000  Uiso   1.00
H258   H     0.53168   0.27204   0.52839   0.00000  Uiso   1.00
H259   H     0.73706   0.27747   0.33935   0.00000  Uiso   1.00
H260   H     0.73022   0.26971   0.73784   0.00000  Uiso   1.00
H261   H     0.66663   0.95415   0.53311   0.00000  Uiso   1.00
H262   H     0.60279   0.94423   0.52983   0.00000  Uiso   1.00
H263   H     0.70019   0.94681   0.44017   0.00000  Uiso   1.00
H264   H     0.69695   0.94313   0.62914   0.00000  Uiso   1.00
H265   H     0.53197   0.97783   0.52645   0.00000  Uiso   1.00
H266   H     0.73735   0.98326   0.33741   0.00000  Uiso   1.00
H267   H     0.73052   0.97549   0.73590   0.00000  Uiso   1.00
O268   O     0.48982   0.12461   0.52528   0.00000  Uiso   1.00
O269   O     0.75928   0.13173   0.27727   0.00000  Uiso   1.00
O270   O     0.75031   0.12155   0.80008   0.00000  Uiso   1.00
N271   N     0.54051   0.20416   0.52840   0.00000  Uiso   1.00
N272   N     0.73252   0.20923   0.35165   0.00000  Uiso   1.00
N273   N     0.72614   0.20198   0.72419   0.00000  Uiso   1.00
N274   N     0.54066   0.04585   0.52735   0.00000  Uiso   1.00
N275   N     0.73268   0.05092   0.35061   0.00000  Uiso   1.00
N276   N     0.72630   0.04366   0.72315   0.00000  Uiso   1.00
C277   C     0.83364   0.28094   0.03486   0.00000  Uiso   1.00
C278   C     0.86829   0.32374   0.03283   0.00000  Uiso   1.00
C279   C     0.89751   0.27153   0.03170   0.00000  Uiso   1.00
C280   C     0.92666   0.32409   0.02988   0.00000  Uiso   1.00
C281   C     0.98047   0.37516   0.02680   0.00000  Uiso   1.00
C282   C     0.81537   0.32234   0.98411   0.00000  Uiso   1.00
C283   C     0.80009   0.26896   0.94202   0.00000  Uiso   1.00
C284   C     0.78470   0.32034   0.89919   0.00000  Uiso   1.00
C285   C     0.75633   0.36924   0.82050   0.00000  Uiso   1.00
C286   C     0.81713   0.32434   0.08679   0.00000  Uiso   1.00
C287   C     0.80333   0.27264   0.13103   0.00000  Uiso   1.00
C288   C     0.78941   0.32571   0.17463   0.00000  Uiso   1.00
C289   C     0.76379   0.37770   0.25536   0.00000  Uiso   1.00
C290   C     0.83345   0.46712   0.03363   0.00000  Uiso   1.00
C291   C     0.86818   0.42486   0.03217   0.00000  Uiso   1.00
C292   C     0.89730   0.47751   0.03034   0.00000  Uiso   1.00
C293   C     0.92655   0.42540   0.02921   0.00000  Uiso   1.00
C294   C     0.81527   0.42346   0.98345   0.00000  Uiso   1.00
C295   C     0.79989   0.47494   0.94067   0.00000  Uiso   1.00
C296   C     0.78459   0.42165   0.89852   0.00000  Uiso   1.00
C297   C     0.81703   0.42546   0.08612   0.00000  Uiso   1.00
C298   C     0.80313   0.47862   0.12967   0.00000  Uiso   1.00
C299   C     0.78931   0.42701   0.17396   0.00000  Uiso   1.00
H300   H     0.83372   0.20222   0.03538   0.00000  Uiso   1.00
H301   H     0.89757   0.19328   0.03221   0.00000  Uiso   1.00
H302   H     0.80017   0.19070   0.94256   0.00000  Uiso   1.00
H303   H     0.80342   0.19439   0.13153   0.00000  Uiso   1.00
H304   H     0.96832   0.22796   0.02839   0.00000  Uiso   1.00
H305   H     0.76294   0.22253   0.83935   0.00000  Uiso   1.00
H306   H     0.76978   0.23029   0.23784   0.00000  Uiso   1.00
H307   H     0.83337   0.54585   0.03311   0.00000  Uiso   1.00
H308   H     0.89721   0.55577   0.02983   0.00000  Uiso   1.00
H309   H     0.79981   0.55319   0.94017   0.00000  Uiso   1.00
H310   H     0.80305   0.55687   0.12914   0.00000  Uiso   1.00
H311   H     0.96803   0.52217   0.02645   0.00000  Uiso   1.00
H312   H     0.76265   0.51674   0.83741   0.00000  Uiso   1.00
H313   H     0.76948   0.52451   0.23590   0.00000  Uiso   1.00
O314   O     0.01018   0.37539   0.02528   0.00000  Uiso   1.00
O315   O     0.74072   0.36827   0.77727   0.00000  Uiso   1.00
O316   O     0.74969   0.37845   0.30008   0.00000  Uiso   1.00
N317   N     0.95949   0.29584   0.02840   0.00000  Uiso   1.00
N318   N     0.76748   0.29077   0.85165   0.00000  Uiso   1.00
N319   N     0.77386   0.29802   0.22419   0.00000  Uiso   1.00
N320   N     0.95934   0.45415   0.02735   0.00000  Uiso   1.00
N321   N     0.76732   0.44908   0.85061   0.00000  Uiso   1.00
N322   N     0.77370   0.45634   0.22315   0.00000  Uiso   1.00
C323   C     0.33364   0.78094   0.53486   0.00000  Uiso   1.00
C324   C     0.36829   0.82374   0.53283   0.00000  Uiso   1.00
C325   C     0.39751   0.77153   0.53170   0.00000  Uiso   1.00
C326   C     0.42666   0.82409   0.52988   0.00000  Uiso   1.00
C327   C     0.48047   0.87516   0.52680   0.00000  Uiso   1.00
C328   C     0.31537   0.82234   0.48411   0.00000  Uiso   1.00
C329   C     0.30009   0.76896   0.44202   0.00000  Uiso   1.00
C330   C     0.28470   0.82034   0.39919   0.00000  Uiso   1.00
C331   C     0.25633   0.86924   0.32050   0.00000  Uiso   1.00
C332   C     0.31713   0.82434   0.58679   0.00000  Uiso   1.00
C333   C     0.30333   0.77264   0.63103   0.00000  Uiso   1.00
C334   C     0.28941   0.82571   0.67463   0.00000  Uiso   1.00
C335   C     0.26379   0.87770   0.75536   0.00000  Uiso   1.00
C336   C     0.33345   0.96712   0.53363   0.00000  Uiso   1.00
C337   C     0.36818   0.92486   0.53217   0.00000  Uiso   1.00
C338   C     0.39730   0.97751   0.53034   0.00000  Uiso   1.00
C339   C     0.42655   0.92540   0.52921   0.00000  Uiso   1.00
C340   C     0.31527   0.92346   0.48345   0.00000  Uiso   1.00
C341   C     0.29989   0.97494   0.44067   0.00000  Uiso   1.00
C342   C     0.28459   0.92165   0.39852   0.00000  Uiso   1.00
C343   C     0.31703   0.92546   0.58612   0.00000  Uiso   1.00
C344   C     0.30313   0.97862   0.62967   0.00000  Uiso   1.00
C345   C     0.28931   0.92701   0.67396   0.00000  Uiso   1.00
H346   H     0.33372   0.70222   0.53538   0.00000  Uiso   1.00
H347   H     0.39757   0.69328   0.53221   0.00000  Uiso   1.00
H348   H     0.30017   0.69070   0.44256   0.00000  Uiso   1.00
H349   H     0.30342   0.69439   0.63153   0.00000  Uiso   1.00
H350   H     0.46832   0.72796   0.52839   0.00000  Uiso   1.00
H351   H     0.26294   0.72253   0.33935   0.00000  Uiso   1.00
H352   H     0.26978   0.73029   0.73784   0.00000  Uiso   1.00
H353   H     0.33337   0.04585   0.53311   0.00000  Uiso   1.00
H354   H     0.39721   0.05577   0.52983   0.00000  Uiso   1.00
H355   H     0.29981   0.05319   0.44017   0.00000  Uiso   1.00
H356   H     0.30305   0.05687   0.62914   0.00000  Uiso   1.00
H357   H     0.46803   0.02217   0.52645   0.00000  Uiso   1.00
H358   H     0.26265   0.01674   0.33741   0.00000  Uiso   1.00
H359   H     0.26948   0.02451   0.73590   0.00000  Uiso   1.00
O360   O     0.51018   0.87539   0.52528   0.00000  Uiso   1.00
O361   O     0.24072   0.86827   0.27727   0.00000  Uiso   1.00
O362   O     0.24969   0.87845   0.80008   0.00000  Uiso   1.00
N363   N     0.45949   0.79584   0.52840   0.00000  Uiso   1.00
N364   N     0.26748   0.79077   0.35165   0.00000  Uiso   1.00
N365   N     0.27386   0.79802   0.72419   0.00000  Uiso   1.00
N366   N     0.45934   0.95415   0.52735   0.00000  Uiso   1.00
N367   N     0.26732   0.94908   0.35061   0.00000  Uiso   1.00
N368   N     0.27370   0.95634   0.72315   0.00000  Uiso   1.00
