data_job_03064
_audit_creation_date              2018-12-19
_audit_creation_method            'Materials Studio'
_symmetry_space_group_name_H-M    'P1'
_symmetry_Int_Tables_number       1
_symmetry_cell_setting            triclinic
loop_
_symmetry_equiv_pos_as_xyz
  x,y,z
_cell_length_a                    23.6605
_cell_length_b                    23.9257
_cell_length_c                    7.0250
_cell_angle_alpha                 90.0000
_cell_angle_beta                  90.0000
_cell_angle_gamma                 90.0000
loop_
_atom_site_label
_atom_site_type_symbol
_atom_site_fract_x
_atom_site_fract_y
_atom_site_fract_z
_atom_site_U_iso_or_equiv
_atom_site_adp_type
_atom_site_occupancy
C1     C     0.27722   0.75000   0.84636   0.00000  Uiso   1.00
C2     C     0.22322   0.75000   0.72786   0.00000  Uiso   1.00
C3     C     0.16853   0.74998   0.79923   0.00000  Uiso   1.00
C4     C     0.12481   0.74997   0.66742   0.00000  Uiso   1.00
C5     C     0.03934   0.74993   0.51325   0.00000  Uiso   1.00
C6     C     0.31095   0.69909   0.78190   0.00000  Uiso   1.00
C7     C     0.33002   0.65628   0.89873   0.00000  Uiso   1.00
C8     C     0.36015   0.61342   0.81240   0.00000  Uiso   1.00
C9     C     0.41090   0.53437   0.74216   0.00000  Uiso   1.00
C10    C     0.31094   0.80092   0.78190   0.00000  Uiso   1.00
C11    C     0.33002   0.84372   0.89873   0.00000  Uiso   1.00
C12    C     0.36016   0.88658   0.81241   0.00000  Uiso   1.00
C13    C     0.41091   0.96563   0.74217   0.00000  Uiso   1.00
C14    C     0.29683   0.75000   0.48533   0.00000  Uiso   1.00
C15    C     0.23388   0.74999   0.53176   0.00000  Uiso   1.00
C16    C     0.19023   0.74998   0.39980   0.00000  Uiso   1.00
C17    C     0.13548   0.74997   0.47097   0.00000  Uiso   1.00
C18    C     0.32160   0.69909   0.58582   0.00000  Uiso   1.00
C19    C     0.35171   0.65628   0.49930   0.00000  Uiso   1.00
C20    C     0.37082   0.61342   0.61595   0.00000  Uiso   1.00
C21    C     0.32159   0.80092   0.58581   0.00000  Uiso   1.00
C22    C     0.35171   0.84372   0.49929   0.00000  Uiso   1.00
C23    C     0.37083   0.88658   0.61596   0.00000  Uiso   1.00
H24    H     0.26893   0.75000   0.99903   0.00000  Uiso   1.00
H25    H     0.16031   0.74998   0.95100   0.00000  Uiso   1.00
H26    H     0.32177   0.65630   0.05048   0.00000  Uiso   1.00
H27    H     0.32177   0.84370   0.05047   0.00000  Uiso   1.00
H28    H     0.04457   0.74993   0.81127   0.00000  Uiso   1.00
H29    H     0.38504   0.55241   0.02104   0.00000  Uiso   1.00
H30    H     0.38505   0.94759   0.02104   0.00000  Uiso   1.00
H31    H     0.30513   0.75000   0.33266   0.00000  Uiso   1.00
H32    H     0.19848   0.74998   0.24806   0.00000  Uiso   1.00
H33    H     0.35995   0.65630   0.34755   0.00000  Uiso   1.00
H34    H     0.35995   0.84370   0.34754   0.00000  Uiso   1.00
H35    H     0.07556   0.74993   0.24074   0.00000  Uiso   1.00
H36    H     0.41603   0.55241   0.45052   0.00000  Uiso   1.00
H37    H     0.41603   0.94759   0.45051   0.00000  Uiso   1.00
O38    O     0.98926   0.74990   0.48238   0.00000  Uiso   1.00
O39    O     0.43595   0.49076   0.75760   0.00000  Uiso   1.00
O40    O     0.43596   0.00923   0.75759   0.00000  Uiso   1.00
N41    N     0.06650   0.74995   0.68861   0.00000  Uiso   1.00
N42    N     0.38481   0.56527   0.88472   0.00000  Uiso   1.00
N43    N     0.38483   0.93472   0.88473   0.00000  Uiso   1.00
N44    N     0.08317   0.74995   0.38161   0.00000  Uiso   1.00
N45    N     0.40148   0.56527   0.57773   0.00000  Uiso   1.00
N46    N     0.40150   0.93472   0.57773   0.00000  Uiso   1.00
C47    C     0.72278   0.25000   0.34636   0.00000  Uiso   1.00
C48    C     0.77678   0.25000   0.22786   0.00000  Uiso   1.00
C49    C     0.83147   0.25002   0.29923   0.00000  Uiso   1.00
C50    C     0.87519   0.25003   0.16742   0.00000  Uiso   1.00
C51    C     0.96066   0.25007   0.01325   0.00000  Uiso   1.00
C52    C     0.68905   0.30091   0.28190   0.00000  Uiso   1.00
C53    C     0.66998   0.34372   0.39873   0.00000  Uiso   1.00
C54    C     0.63985   0.38658   0.31240   0.00000  Uiso   1.00
C55    C     0.58910   0.46563   0.24216   0.00000  Uiso   1.00
C56    C     0.68906   0.19908   0.28190   0.00000  Uiso   1.00
C57    C     0.66998   0.15628   0.39873   0.00000  Uiso   1.00
C58    C     0.63984   0.11342   0.31241   0.00000  Uiso   1.00
C59    C     0.58909   0.03437   0.24217   0.00000  Uiso   1.00
C60    C     0.70317   0.25000   0.98533   0.00000  Uiso   1.00
C61    C     0.76612   0.25001   0.03176   0.00000  Uiso   1.00
C62    C     0.80977   0.25002   0.89980   0.00000  Uiso   1.00
C63    C     0.86452   0.25003   0.97097   0.00000  Uiso   1.00
C64    C     0.67840   0.30091   0.08582   0.00000  Uiso   1.00
C65    C     0.64829   0.34372   0.99930   0.00000  Uiso   1.00
C66    C     0.62918   0.38658   0.11595   0.00000  Uiso   1.00
C67    C     0.67841   0.19908   0.08581   0.00000  Uiso   1.00
C68    C     0.64829   0.15628   0.99929   0.00000  Uiso   1.00
C69    C     0.62917   0.11342   0.11596   0.00000  Uiso   1.00
H70    H     0.73107   0.25000   0.49903   0.00000  Uiso   1.00
H71    H     0.83969   0.25002   0.45100   0.00000  Uiso   1.00
H72    H     0.67823   0.34370   0.55048   0.00000  Uiso   1.00
H73    H     0.67823   0.15630   0.55047   0.00000  Uiso   1.00
H74    H     0.95543   0.25007   0.31127   0.00000  Uiso   1.00
H75    H     0.61496   0.44759   0.52104   0.00000  Uiso   1.00
H76    H     0.61495   0.05241   0.52104   0.00000  Uiso   1.00
H77    H     0.69487   0.25000   0.83266   0.00000  Uiso   1.00
H78    H     0.80152   0.25002   0.74806   0.00000  Uiso   1.00
H79    H     0.64005   0.34370   0.84755   0.00000  Uiso   1.00
H80    H     0.64005   0.15630   0.84754   0.00000  Uiso   1.00
H81    H     0.92444   0.25007   0.74074   0.00000  Uiso   1.00
H82    H     0.58397   0.44759   0.95052   0.00000  Uiso   1.00
H83    H     0.58397   0.05241   0.95051   0.00000  Uiso   1.00
O84    O     0.01074   0.25010   0.98238   0.00000  Uiso   1.00
O85    O     0.56405   0.50924   0.25760   0.00000  Uiso   1.00
O86    O     0.56404   0.99077   0.25759   0.00000  Uiso   1.00
N87    N     0.93350   0.25005   0.18861   0.00000  Uiso   1.00
N88    N     0.61519   0.43473   0.38472   0.00000  Uiso   1.00
N89    N     0.61517   0.06528   0.38473   0.00000  Uiso   1.00
N90    N     0.91683   0.25005   0.88161   0.00000  Uiso   1.00
N91    N     0.59852   0.43473   0.07773   0.00000  Uiso   1.00
N92    N     0.59850   0.06528   0.07773   0.00000  Uiso   1.00
C93    C     0.72278   0.75000   0.65364   0.00000  Uiso   1.00
C94    C     0.77678   0.75000   0.77214   0.00000  Uiso   1.00
C95    C     0.83147   0.74998   0.70077   0.00000  Uiso   1.00
C96    C     0.87519   0.74997   0.83258   0.00000  Uiso   1.00
C97    C     0.96066   0.74993   0.98675   0.00000  Uiso   1.00
C98    C     0.68905   0.69909   0.71810   0.00000  Uiso   1.00
C99    C     0.66998   0.65628   0.60127   0.00000  Uiso   1.00
C100   C     0.63985   0.61342   0.68760   0.00000  Uiso   1.00
C101   C     0.58910   0.53437   0.75784   0.00000  Uiso   1.00
C102   C     0.68906   0.80092   0.71810   0.00000  Uiso   1.00
C103   C     0.66998   0.84372   0.60127   0.00000  Uiso   1.00
C104   C     0.63984   0.88658   0.68759   0.00000  Uiso   1.00
C105   C     0.58909   0.96563   0.75783   0.00000  Uiso   1.00
C106   C     0.70317   0.75000   0.01467   0.00000  Uiso   1.00
C107   C     0.76612   0.74999   0.96824   0.00000  Uiso   1.00
C108   C     0.80977   0.74998   0.10020   0.00000  Uiso   1.00
C109   C     0.86452   0.74997   0.02903   0.00000  Uiso   1.00
C110   C     0.67840   0.69909   0.91418   0.00000  Uiso   1.00
C111   C     0.64829   0.65628   0.00070   0.00000  Uiso   1.00
C112   C     0.62918   0.61342   0.88405   0.00000  Uiso   1.00
C113   C     0.67841   0.80092   0.91419   0.00000  Uiso   1.00
C114   C     0.64829   0.84372   0.00071   0.00000  Uiso   1.00
C115   C     0.62917   0.88658   0.88404   0.00000  Uiso   1.00
H116   H     0.73107   0.75000   0.50097   0.00000  Uiso   1.00
H117   H     0.83969   0.74998   0.54900   0.00000  Uiso   1.00
H118   H     0.67823   0.65630   0.44952   0.00000  Uiso   1.00
H119   H     0.67823   0.84370   0.44953   0.00000  Uiso   1.00
H120   H     0.95543   0.74993   0.68873   0.00000  Uiso   1.00
H121   H     0.61496   0.55241   0.47896   0.00000  Uiso   1.00
H122   H     0.61495   0.94759   0.47896   0.00000  Uiso   1.00
H123   H     0.69487   0.75000   0.16734   0.00000  Uiso   1.00
H124   H     0.80152   0.74998   0.25194   0.00000  Uiso   1.00
H125   H     0.64005   0.65630   0.15245   0.00000  Uiso   1.00
H126   H     0.64005   0.84370   0.15246   0.00000  Uiso   1.00
H127   H     0.92444   0.74993   0.25926   0.00000  Uiso   1.00
H128   H     0.58397   0.55241   0.04948   0.00000  Uiso   1.00
H129   H     0.58397   0.94759   0.04949   0.00000  Uiso   1.00
O130   O     0.01074   0.74990   0.01762   0.00000  Uiso   1.00
O131   O     0.56405   0.49076   0.74240   0.00000  Uiso   1.00
O132   O     0.56404   0.00923   0.74241   0.00000  Uiso   1.00
N133   N     0.93350   0.74995   0.81139   0.00000  Uiso   1.00
N134   N     0.61519   0.56527   0.61528   0.00000  Uiso   1.00
N135   N     0.61517   0.93472   0.61527   0.00000  Uiso   1.00
N136   N     0.91683   0.74995   0.11839   0.00000  Uiso   1.00
N137   N     0.59852   0.56527   0.92227   0.00000  Uiso   1.00
N138   N     0.59850   0.93472   0.92227   0.00000  Uiso   1.00
C139   C     0.27722   0.25000   0.15364   0.00000  Uiso   1.00
C140   C     0.22322   0.25000   0.27214   0.00000  Uiso   1.00
C141   C     0.16853   0.25002   0.20077   0.00000  Uiso   1.00
C142   C     0.12481   0.25003   0.33258   0.00000  Uiso   1.00
C143   C     0.03934   0.25007   0.48675   0.00000  Uiso   1.00
C144   C     0.31095   0.30091   0.21810   0.00000  Uiso   1.00
C145   C     0.33002   0.34372   0.10127   0.00000  Uiso   1.00
C146   C     0.36015   0.38658   0.18760   0.00000  Uiso   1.00
C147   C     0.41090   0.46563   0.25784   0.00000  Uiso   1.00
C148   C     0.31094   0.19908   0.21810   0.00000  Uiso   1.00
C149   C     0.33002   0.15628   0.10127   0.00000  Uiso   1.00
C150   C     0.36016   0.11342   0.18759   0.00000  Uiso   1.00
C151   C     0.41091   0.03437   0.25783   0.00000  Uiso   1.00
C152   C     0.29683   0.25000   0.51467   0.00000  Uiso   1.00
C153   C     0.23388   0.25001   0.46824   0.00000  Uiso   1.00
C154   C     0.19023   0.25002   0.60020   0.00000  Uiso   1.00
C155   C     0.13548   0.25003   0.52903   0.00000  Uiso   1.00
C156   C     0.32160   0.30091   0.41418   0.00000  Uiso   1.00
C157   C     0.35171   0.34372   0.50070   0.00000  Uiso   1.00
C158   C     0.37082   0.38658   0.38405   0.00000  Uiso   1.00
C159   C     0.32159   0.19908   0.41419   0.00000  Uiso   1.00
C160   C     0.35171   0.15628   0.50071   0.00000  Uiso   1.00
C161   C     0.37083   0.11342   0.38404   0.00000  Uiso   1.00
H162   H     0.26893   0.25000   0.00097   0.00000  Uiso   1.00
H163   H     0.16031   0.25002   0.04900   0.00000  Uiso   1.00
H164   H     0.32177   0.34370   0.94952   0.00000  Uiso   1.00
H165   H     0.32177   0.15630   0.94953   0.00000  Uiso   1.00
H166   H     0.04457   0.25007   0.18873   0.00000  Uiso   1.00
H167   H     0.38504   0.44759   0.97896   0.00000  Uiso   1.00
H168   H     0.38505   0.05241   0.97896   0.00000  Uiso   1.00
H169   H     0.30513   0.25000   0.66734   0.00000  Uiso   1.00
H170   H     0.19848   0.25002   0.75194   0.00000  Uiso   1.00
H171   H     0.35995   0.34370   0.65245   0.00000  Uiso   1.00
H172   H     0.35995   0.15630   0.65246   0.00000  Uiso   1.00
H173   H     0.07556   0.25007   0.75926   0.00000  Uiso   1.00
H174   H     0.41603   0.44759   0.54948   0.00000  Uiso   1.00
H175   H     0.41603   0.05241   0.54949   0.00000  Uiso   1.00
O176   O     0.98926   0.25010   0.51762   0.00000  Uiso   1.00
O177   O     0.43595   0.50924   0.24240   0.00000  Uiso   1.00
O178   O     0.43596   0.99077   0.24241   0.00000  Uiso   1.00
N179   N     0.06650   0.25005   0.31139   0.00000  Uiso   1.00
N180   N     0.38481   0.43473   0.11528   0.00000  Uiso   1.00
N181   N     0.38483   0.06528   0.11527   0.00000  Uiso   1.00
N182   N     0.08317   0.25005   0.61839   0.00000  Uiso   1.00
N183   N     0.40148   0.43473   0.42227   0.00000  Uiso   1.00
N184   N     0.40150   0.06528   0.42227   0.00000  Uiso   1.00
