data_job_00708
_audit_creation_date              2018-12-19
_audit_creation_method            'Materials Studio'
_symmetry_space_group_name_H-M    'P1'
_symmetry_Int_Tables_number       1
_symmetry_cell_setting            triclinic
loop_
_symmetry_equiv_pos_as_xyz
  x,y,z
_cell_length_a                    27.9379
_cell_length_b                    11.9458
_cell_length_c                    28.3716
_cell_angle_alpha                 90.0000
_cell_angle_beta                  145.6372
_cell_angle_gamma                 90.0000
loop_
_atom_site_label
_atom_site_type_symbol
_atom_site_fract_x
_atom_site_fract_y
_atom_site_fract_z
_atom_site_U_iso_or_equiv
_atom_site_adp_type
_atom_site_occupancy
C1     C     0.11707   0.30561   0.99675   0.00000  Uiso   1.00
C2     C     0.13747   0.19042   0.99312   0.00000  Uiso   1.00
C3     C     0.11942   0.15462   0.93301   0.00000  Uiso   1.00
C4     C     0.14317   0.04619   0.94064   0.00000  Uiso   1.00
C5     C     0.16865   0.87797   0.92503   0.00000  Uiso   1.00
C6     C     0.06357   0.28474   0.99717   0.00000  Uiso   1.00
C7     C     0.98340   0.32826   0.94046   0.00000  Uiso   1.00
C8     C     0.94496   0.29923   0.95151   0.00000  Uiso   1.00
C9     C     0.85576   0.27751   0.94221   0.00000  Uiso   1.00
C10    C     0.20108   0.35332   0.08250   0.00000  Uiso   1.00
C11    C     0.23651   0.45453   0.09756   0.00000  Uiso   1.00
C12    C     0.31383   0.48327   0.18045   0.00000  Uiso   1.00
C13    C     0.43811   0.56804   0.30365   0.00000  Uiso   1.00
C14    C     0.19135   0.17670   0.11720   0.00000  Uiso   1.00
C15    C     0.17781   0.12040   0.05855   0.00000  Uiso   1.00
C16    C     0.20160   0.01200   0.06627   0.00000  Uiso   1.00
C17    C     0.18359   0.97605   0.00619   0.00000  Uiso   1.00
C18    C     0.10392   0.21472   0.06259   0.00000  Uiso   1.00
C19    C     0.06559   0.18564   0.07373   0.00000  Uiso   1.00
C20    C     0.98538   0.22910   0.01705   0.00000  Uiso   1.00
C21    C     0.24142   0.28331   0.14793   0.00000  Uiso   1.00
C22    C     0.31869   0.31191   0.23082   0.00000  Uiso   1.00
C23    C     0.35424   0.41313   0.24599   0.00000  Uiso   1.00
H24    H     0.08566   0.36012   0.94582   0.00000  Uiso   1.00
H25    H     0.08819   0.20882   0.88239   0.00000  Uiso   1.00
H26    H     0.95220   0.38244   0.88985   0.00000  Uiso   1.00
H27    H     0.20527   0.50869   0.04691   0.00000  Uiso   1.00
H28    H     0.10875   0.01020   0.84090   0.00000  Uiso   1.00
H29    H     0.82203   0.37631   0.85664   0.00000  Uiso   1.00
H30    H     0.35568   0.64254   0.18785   0.00000  Uiso   1.00
H31    H     0.22276   0.12219   0.16814   0.00000  Uiso   1.00
H32    H     0.23282   0.95784   0.11691   0.00000  Uiso   1.00
H33    H     0.09683   0.13146   0.12436   0.00000  Uiso   1.00
H34    H     0.34990   0.25771   0.28143   0.00000  Uiso   1.00
H35    H     0.22614   0.80649   0.03124   0.00000  Uiso   1.00
H36    H     0.93941   0.17261   0.04698   0.00000  Uiso   1.00
H37    H     0.47306   0.43883   0.37819   0.00000  Uiso   1.00
O38    O     0.17156   0.80451   0.89834   0.00000  Uiso   1.00
O39    O     0.79540   0.28486   0.91900   0.00000  Uiso   1.00
O40    O     0.49553   0.63413   0.35354   0.00000  Uiso   1.00
N41    N     0.13501   0.98482   0.89273   0.00000  Uiso   1.00
N42    N     0.86694   0.32710   0.90744   0.00000  Uiso   1.00
N43    N     0.36584   0.57601   0.21710   0.00000  Uiso   1.00
N44    N     0.19818   0.87521   0.99516   0.00000  Uiso   1.00
N45    N     0.93011   0.21749   0.00987   0.00000  Uiso   1.00
N46    N     0.42901   0.46640   0.31952   0.00000  Uiso   1.00
C47    C     0.61707   0.80561   0.99675   0.00000  Uiso   1.00
C48    C     0.63747   0.69042   0.99312   0.00000  Uiso   1.00
C49    C     0.61942   0.65462   0.93301   0.00000  Uiso   1.00
C50    C     0.64317   0.54619   0.94064   0.00000  Uiso   1.00
C51    C     0.66865   0.37797   0.92503   0.00000  Uiso   1.00
C52    C     0.56357   0.78474   0.99717   0.00000  Uiso   1.00
C53    C     0.48340   0.82826   0.94046   0.00000  Uiso   1.00
C54    C     0.44496   0.79923   0.95151   0.00000  Uiso   1.00
C55    C     0.35576   0.77751   0.94221   0.00000  Uiso   1.00
C56    C     0.70108   0.85332   0.08250   0.00000  Uiso   1.00
C57    C     0.73651   0.95453   0.09756   0.00000  Uiso   1.00
C58    C     0.81383   0.98327   0.18045   0.00000  Uiso   1.00
C59    C     0.93811   0.06804   0.30365   0.00000  Uiso   1.00
C60    C     0.69135   0.67670   0.11720   0.00000  Uiso   1.00
C61    C     0.67781   0.62040   0.05855   0.00000  Uiso   1.00
C62    C     0.70160   0.51200   0.06627   0.00000  Uiso   1.00
C63    C     0.68359   0.47605   0.00619   0.00000  Uiso   1.00
C64    C     0.60392   0.71472   0.06259   0.00000  Uiso   1.00
C65    C     0.56559   0.68564   0.07373   0.00000  Uiso   1.00
C66    C     0.48538   0.72910   0.01705   0.00000  Uiso   1.00
C67    C     0.74142   0.78331   0.14793   0.00000  Uiso   1.00
C68    C     0.81869   0.81191   0.23082   0.00000  Uiso   1.00
C69    C     0.85424   0.91313   0.24599   0.00000  Uiso   1.00
H70    H     0.58566   0.86012   0.94582   0.00000  Uiso   1.00
H71    H     0.58819   0.70882   0.88239   0.00000  Uiso   1.00
H72    H     0.45220   0.88244   0.88985   0.00000  Uiso   1.00
H73    H     0.70527   0.00869   0.04691   0.00000  Uiso   1.00
H74    H     0.60875   0.51020   0.84090   0.00000  Uiso   1.00
H75    H     0.32203   0.87631   0.85664   0.00000  Uiso   1.00
H76    H     0.85568   0.14254   0.18785   0.00000  Uiso   1.00
H77    H     0.72276   0.62219   0.16814   0.00000  Uiso   1.00
H78    H     0.73282   0.45784   0.11691   0.00000  Uiso   1.00
H79    H     0.59683   0.63146   0.12436   0.00000  Uiso   1.00
H80    H     0.84990   0.75771   0.28143   0.00000  Uiso   1.00
H81    H     0.72614   0.30649   0.03124   0.00000  Uiso   1.00
H82    H     0.43941   0.67261   0.04698   0.00000  Uiso   1.00
H83    H     0.97306   0.93883   0.37819   0.00000  Uiso   1.00
O84    O     0.67156   0.30451   0.89834   0.00000  Uiso   1.00
O85    O     0.29540   0.78486   0.91900   0.00000  Uiso   1.00
O86    O     0.99553   0.13413   0.35354   0.00000  Uiso   1.00
N87    N     0.63501   0.48482   0.89273   0.00000  Uiso   1.00
N88    N     0.36694   0.82710   0.90744   0.00000  Uiso   1.00
N89    N     0.86584   0.07601   0.21710   0.00000  Uiso   1.00
N90    N     0.69818   0.37521   0.99516   0.00000  Uiso   1.00
N91    N     0.43011   0.71749   0.00987   0.00000  Uiso   1.00
N92    N     0.92901   0.96640   0.31952   0.00000  Uiso   1.00
C93    C     0.88293   0.30561   0.50325   0.00000  Uiso   1.00
C94    C     0.86253   0.19042   0.50688   0.00000  Uiso   1.00
C95    C     0.88058   0.15462   0.56699   0.00000  Uiso   1.00
C96    C     0.85683   0.04619   0.55936   0.00000  Uiso   1.00
C97    C     0.83135   0.87797   0.57497   0.00000  Uiso   1.00
C98    C     0.93643   0.28474   0.50283   0.00000  Uiso   1.00
C99    C     0.01660   0.32826   0.55954   0.00000  Uiso   1.00
C100   C     0.05504   0.29923   0.54849   0.00000  Uiso   1.00
C101   C     0.14424   0.27751   0.55779   0.00000  Uiso   1.00
C102   C     0.79892   0.35332   0.41750   0.00000  Uiso   1.00
C103   C     0.76349   0.45453   0.40244   0.00000  Uiso   1.00
C104   C     0.68617   0.48327   0.31955   0.00000  Uiso   1.00
C105   C     0.56189   0.56804   0.19635   0.00000  Uiso   1.00
C106   C     0.80865   0.17670   0.38280   0.00000  Uiso   1.00
C107   C     0.82219   0.12040   0.44145   0.00000  Uiso   1.00
C108   C     0.79840   0.01200   0.43373   0.00000  Uiso   1.00
C109   C     0.81641   0.97605   0.49381   0.00000  Uiso   1.00
C110   C     0.89608   0.21472   0.43741   0.00000  Uiso   1.00
C111   C     0.93441   0.18564   0.42627   0.00000  Uiso   1.00
C112   C     0.01462   0.22910   0.48295   0.00000  Uiso   1.00
C113   C     0.75858   0.28331   0.35207   0.00000  Uiso   1.00
C114   C     0.68131   0.31191   0.26918   0.00000  Uiso   1.00
C115   C     0.64576   0.41313   0.25401   0.00000  Uiso   1.00
H116   H     0.91434   0.36012   0.55418   0.00000  Uiso   1.00
H117   H     0.91181   0.20882   0.61761   0.00000  Uiso   1.00
H118   H     0.04780   0.38244   0.61015   0.00000  Uiso   1.00
H119   H     0.79473   0.50869   0.45309   0.00000  Uiso   1.00
H120   H     0.89125   0.01020   0.65910   0.00000  Uiso   1.00
H121   H     0.17797   0.37631   0.64336   0.00000  Uiso   1.00
H122   H     0.64432   0.64254   0.31215   0.00000  Uiso   1.00
H123   H     0.77724   0.12219   0.33186   0.00000  Uiso   1.00
H124   H     0.76718   0.95784   0.38309   0.00000  Uiso   1.00
H125   H     0.90317   0.13146   0.37564   0.00000  Uiso   1.00
H126   H     0.65010   0.25771   0.21857   0.00000  Uiso   1.00
H127   H     0.77386   0.80649   0.46876   0.00000  Uiso   1.00
H128   H     0.06059   0.17261   0.45302   0.00000  Uiso   1.00
H129   H     0.52694   0.43883   0.12181   0.00000  Uiso   1.00
O130   O     0.82844   0.80451   0.60166   0.00000  Uiso   1.00
O131   O     0.20460   0.28486   0.58100   0.00000  Uiso   1.00
O132   O     0.50447   0.63413   0.14646   0.00000  Uiso   1.00
N133   N     0.86499   0.98482   0.60727   0.00000  Uiso   1.00
N134   N     0.13306   0.32710   0.59256   0.00000  Uiso   1.00
N135   N     0.63416   0.57601   0.28290   0.00000  Uiso   1.00
N136   N     0.80182   0.87521   0.50484   0.00000  Uiso   1.00
N137   N     0.06989   0.21749   0.49013   0.00000  Uiso   1.00
N138   N     0.57099   0.46640   0.18048   0.00000  Uiso   1.00
C139   C     0.38293   0.80561   0.50325   0.00000  Uiso   1.00
C140   C     0.36253   0.69042   0.50688   0.00000  Uiso   1.00
C141   C     0.38058   0.65462   0.56699   0.00000  Uiso   1.00
C142   C     0.35683   0.54619   0.55936   0.00000  Uiso   1.00
C143   C     0.33135   0.37797   0.57497   0.00000  Uiso   1.00
C144   C     0.43643   0.78474   0.50283   0.00000  Uiso   1.00
C145   C     0.51660   0.82826   0.55954   0.00000  Uiso   1.00
C146   C     0.55504   0.79923   0.54849   0.00000  Uiso   1.00
C147   C     0.64424   0.77751   0.55779   0.00000  Uiso   1.00
C148   C     0.29892   0.85332   0.41750   0.00000  Uiso   1.00
C149   C     0.26349   0.95453   0.40244   0.00000  Uiso   1.00
C150   C     0.18617   0.98327   0.31955   0.00000  Uiso   1.00
C151   C     0.06189   0.06804   0.19635   0.00000  Uiso   1.00
C152   C     0.30865   0.67670   0.38280   0.00000  Uiso   1.00
C153   C     0.32219   0.62040   0.44145   0.00000  Uiso   1.00
C154   C     0.29840   0.51200   0.43373   0.00000  Uiso   1.00
C155   C     0.31641   0.47605   0.49381   0.00000  Uiso   1.00
C156   C     0.39608   0.71472   0.43741   0.00000  Uiso   1.00
C157   C     0.43441   0.68564   0.42627   0.00000  Uiso   1.00
C158   C     0.51462   0.72910   0.48295   0.00000  Uiso   1.00
C159   C     0.25858   0.78331   0.35207   0.00000  Uiso   1.00
C160   C     0.18131   0.81191   0.26918   0.00000  Uiso   1.00
C161   C     0.14576   0.91313   0.25401   0.00000  Uiso   1.00
H162   H     0.41434   0.86012   0.55418   0.00000  Uiso   1.00
H163   H     0.41181   0.70882   0.61761   0.00000  Uiso   1.00
H164   H     0.54780   0.88244   0.61015   0.00000  Uiso   1.00
H165   H     0.29473   0.00869   0.45309   0.00000  Uiso   1.00
H166   H     0.39125   0.51020   0.65910   0.00000  Uiso   1.00
H167   H     0.67797   0.87631   0.64336   0.00000  Uiso   1.00
H168   H     0.14432   0.14254   0.31215   0.00000  Uiso   1.00
H169   H     0.27724   0.62219   0.33186   0.00000  Uiso   1.00
H170   H     0.26718   0.45784   0.38309   0.00000  Uiso   1.00
H171   H     0.40317   0.63146   0.37564   0.00000  Uiso   1.00
H172   H     0.15010   0.75771   0.21857   0.00000  Uiso   1.00
H173   H     0.27386   0.30649   0.46876   0.00000  Uiso   1.00
H174   H     0.56059   0.67261   0.45302   0.00000  Uiso   1.00
H175   H     0.02694   0.93883   0.12181   0.00000  Uiso   1.00
O176   O     0.32844   0.30451   0.60166   0.00000  Uiso   1.00
O177   O     0.70460   0.78486   0.58100   0.00000  Uiso   1.00
O178   O     0.00447   0.13413   0.14646   0.00000  Uiso   1.00
N179   N     0.36499   0.48482   0.60727   0.00000  Uiso   1.00
N180   N     0.63306   0.82710   0.59256   0.00000  Uiso   1.00
N181   N     0.13416   0.07601   0.28290   0.00000  Uiso   1.00
N182   N     0.30182   0.37521   0.50484   0.00000  Uiso   1.00
N183   N     0.56989   0.71749   0.49013   0.00000  Uiso   1.00
N184   N     0.07099   0.96640   0.18048   0.00000  Uiso   1.00
C185   C     0.88293   0.69439   0.00325   0.00000  Uiso   1.00
C186   C     0.86253   0.80958   0.00688   0.00000  Uiso   1.00
C187   C     0.88058   0.84538   0.06699   0.00000  Uiso   1.00
C188   C     0.85683   0.95381   0.05936   0.00000  Uiso   1.00
C189   C     0.83135   0.12203   0.07497   0.00000  Uiso   1.00
C190   C     0.93643   0.71526   0.00283   0.00000  Uiso   1.00
C191   C     0.01660   0.67174   0.05954   0.00000  Uiso   1.00
C192   C     0.05504   0.70077   0.04849   0.00000  Uiso   1.00
C193   C     0.14424   0.72249   0.05779   0.00000  Uiso   1.00
C194   C     0.79892   0.64668   0.91750   0.00000  Uiso   1.00
C195   C     0.76349   0.54547   0.90244   0.00000  Uiso   1.00
C196   C     0.68617   0.51673   0.81955   0.00000  Uiso   1.00
C197   C     0.56189   0.43196   0.69635   0.00000  Uiso   1.00
C198   C     0.80865   0.82330   0.88280   0.00000  Uiso   1.00
C199   C     0.82219   0.87960   0.94145   0.00000  Uiso   1.00
C200   C     0.79840   0.98800   0.93373   0.00000  Uiso   1.00
C201   C     0.81641   0.02395   0.99381   0.00000  Uiso   1.00
C202   C     0.89608   0.78528   0.93741   0.00000  Uiso   1.00
C203   C     0.93441   0.81436   0.92627   0.00000  Uiso   1.00
C204   C     0.01462   0.77090   0.98295   0.00000  Uiso   1.00
C205   C     0.75858   0.71669   0.85207   0.00000  Uiso   1.00
C206   C     0.68131   0.68809   0.76918   0.00000  Uiso   1.00
C207   C     0.64576   0.58687   0.75401   0.00000  Uiso   1.00
H208   H     0.91434   0.63988   0.05418   0.00000  Uiso   1.00
H209   H     0.91181   0.79118   0.11761   0.00000  Uiso   1.00
H210   H     0.04780   0.61756   0.11015   0.00000  Uiso   1.00
H211   H     0.79473   0.49131   0.95309   0.00000  Uiso   1.00
H212   H     0.89125   0.98980   0.15910   0.00000  Uiso   1.00
H213   H     0.17797   0.62369   0.14336   0.00000  Uiso   1.00
H214   H     0.64432   0.35746   0.81215   0.00000  Uiso   1.00
H215   H     0.77724   0.87781   0.83186   0.00000  Uiso   1.00
H216   H     0.76718   0.04216   0.88309   0.00000  Uiso   1.00
H217   H     0.90317   0.86854   0.87564   0.00000  Uiso   1.00
H218   H     0.65010   0.74229   0.71857   0.00000  Uiso   1.00
H219   H     0.77386   0.19351   0.96876   0.00000  Uiso   1.00
H220   H     0.06059   0.82739   0.95302   0.00000  Uiso   1.00
H221   H     0.52694   0.56117   0.62181   0.00000  Uiso   1.00
O222   O     0.82844   0.19549   0.10166   0.00000  Uiso   1.00
O223   O     0.20460   0.71514   0.08100   0.00000  Uiso   1.00
O224   O     0.50447   0.36587   0.64646   0.00000  Uiso   1.00
N225   N     0.86499   0.01518   0.10727   0.00000  Uiso   1.00
N226   N     0.13306   0.67290   0.09256   0.00000  Uiso   1.00
N227   N     0.63416   0.42399   0.78290   0.00000  Uiso   1.00
N228   N     0.80182   0.12479   0.00484   0.00000  Uiso   1.00
N229   N     0.06989   0.78251   0.99013   0.00000  Uiso   1.00
N230   N     0.57099   0.53360   0.68048   0.00000  Uiso   1.00
C231   C     0.38293   0.19439   0.00325   0.00000  Uiso   1.00
C232   C     0.36253   0.30958   0.00688   0.00000  Uiso   1.00
C233   C     0.38058   0.34538   0.06699   0.00000  Uiso   1.00
C234   C     0.35683   0.45381   0.05936   0.00000  Uiso   1.00
C235   C     0.33135   0.62203   0.07497   0.00000  Uiso   1.00
C236   C     0.43643   0.21526   0.00283   0.00000  Uiso   1.00
C237   C     0.51660   0.17174   0.05954   0.00000  Uiso   1.00
C238   C     0.55504   0.20077   0.04849   0.00000  Uiso   1.00
C239   C     0.64424   0.22249   0.05779   0.00000  Uiso   1.00
C240   C     0.29892   0.14668   0.91750   0.00000  Uiso   1.00
C241   C     0.26349   0.04547   0.90244   0.00000  Uiso   1.00
C242   C     0.18617   0.01673   0.81955   0.00000  Uiso   1.00
C243   C     0.06189   0.93196   0.69635   0.00000  Uiso   1.00
C244   C     0.30865   0.32330   0.88280   0.00000  Uiso   1.00
C245   C     0.32219   0.37960   0.94145   0.00000  Uiso   1.00
C246   C     0.29840   0.48800   0.93373   0.00000  Uiso   1.00
C247   C     0.31641   0.52395   0.99381   0.00000  Uiso   1.00
C248   C     0.39608   0.28528   0.93741   0.00000  Uiso   1.00
C249   C     0.43441   0.31436   0.92627   0.00000  Uiso   1.00
C250   C     0.51462   0.27090   0.98295   0.00000  Uiso   1.00
C251   C     0.25858   0.21669   0.85207   0.00000  Uiso   1.00
C252   C     0.18131   0.18809   0.76918   0.00000  Uiso   1.00
C253   C     0.14576   0.08687   0.75401   0.00000  Uiso   1.00
H254   H     0.41434   0.13988   0.05418   0.00000  Uiso   1.00
H255   H     0.41181   0.29118   0.11761   0.00000  Uiso   1.00
H256   H     0.54780   0.11756   0.11015   0.00000  Uiso   1.00
H257   H     0.29473   0.99131   0.95309   0.00000  Uiso   1.00
H258   H     0.39125   0.48980   0.15910   0.00000  Uiso   1.00
H259   H     0.67797   0.12369   0.14336   0.00000  Uiso   1.00
H260   H     0.14432   0.85746   0.81215   0.00000  Uiso   1.00
H261   H     0.27724   0.37781   0.83186   0.00000  Uiso   1.00
H262   H     0.26718   0.54216   0.88309   0.00000  Uiso   1.00
H263   H     0.40317   0.36854   0.87564   0.00000  Uiso   1.00
H264   H     0.15010   0.24229   0.71857   0.00000  Uiso   1.00
H265   H     0.27386   0.69351   0.96876   0.00000  Uiso   1.00
H266   H     0.56059   0.32739   0.95302   0.00000  Uiso   1.00
H267   H     0.02694   0.06117   0.62181   0.00000  Uiso   1.00
O268   O     0.32844   0.69549   0.10166   0.00000  Uiso   1.00
O269   O     0.70460   0.21514   0.08100   0.00000  Uiso   1.00
O270   O     0.00447   0.86587   0.64646   0.00000  Uiso   1.00
N271   N     0.36499   0.51518   0.10727   0.00000  Uiso   1.00
N272   N     0.63306   0.17290   0.09256   0.00000  Uiso   1.00
N273   N     0.13416   0.92399   0.78290   0.00000  Uiso   1.00
N274   N     0.30182   0.62479   0.00484   0.00000  Uiso   1.00
N275   N     0.56989   0.28251   0.99013   0.00000  Uiso   1.00
N276   N     0.07099   0.03360   0.68048   0.00000  Uiso   1.00
C277   C     0.11707   0.69439   0.49675   0.00000  Uiso   1.00
C278   C     0.13747   0.80958   0.49312   0.00000  Uiso   1.00
C279   C     0.11942   0.84538   0.43301   0.00000  Uiso   1.00
C280   C     0.14317   0.95381   0.44064   0.00000  Uiso   1.00
C281   C     0.16865   0.12203   0.42503   0.00000  Uiso   1.00
C282   C     0.06357   0.71526   0.49717   0.00000  Uiso   1.00
C283   C     0.98340   0.67174   0.44046   0.00000  Uiso   1.00
C284   C     0.94496   0.70077   0.45151   0.00000  Uiso   1.00
C285   C     0.85576   0.72249   0.44221   0.00000  Uiso   1.00
C286   C     0.20108   0.64668   0.58250   0.00000  Uiso   1.00
C287   C     0.23651   0.54547   0.59756   0.00000  Uiso   1.00
C288   C     0.31383   0.51673   0.68045   0.00000  Uiso   1.00
C289   C     0.43811   0.43196   0.80365   0.00000  Uiso   1.00
C290   C     0.19135   0.82330   0.61720   0.00000  Uiso   1.00
C291   C     0.17781   0.87960   0.55855   0.00000  Uiso   1.00
C292   C     0.20160   0.98800   0.56627   0.00000  Uiso   1.00
C293   C     0.18359   0.02395   0.50619   0.00000  Uiso   1.00
C294   C     0.10392   0.78528   0.56259   0.00000  Uiso   1.00
C295   C     0.06559   0.81436   0.57373   0.00000  Uiso   1.00
C296   C     0.98538   0.77090   0.51705   0.00000  Uiso   1.00
C297   C     0.24142   0.71669   0.64793   0.00000  Uiso   1.00
C298   C     0.31869   0.68809   0.73082   0.00000  Uiso   1.00
C299   C     0.35424   0.58687   0.74599   0.00000  Uiso   1.00
H300   H     0.08566   0.63988   0.44582   0.00000  Uiso   1.00
H301   H     0.08819   0.79118   0.38239   0.00000  Uiso   1.00
H302   H     0.95220   0.61756   0.38985   0.00000  Uiso   1.00
H303   H     0.20527   0.49131   0.54691   0.00000  Uiso   1.00
H304   H     0.10875   0.98980   0.34090   0.00000  Uiso   1.00
H305   H     0.82203   0.62369   0.35664   0.00000  Uiso   1.00
H306   H     0.35568   0.35746   0.68785   0.00000  Uiso   1.00
H307   H     0.22276   0.87781   0.66814   0.00000  Uiso   1.00
H308   H     0.23282   0.04216   0.61691   0.00000  Uiso   1.00
H309   H     0.09683   0.86854   0.62436   0.00000  Uiso   1.00
H310   H     0.34990   0.74229   0.78143   0.00000  Uiso   1.00
H311   H     0.22614   0.19351   0.53124   0.00000  Uiso   1.00
H312   H     0.93941   0.82739   0.54698   0.00000  Uiso   1.00
H313   H     0.47306   0.56117   0.87819   0.00000  Uiso   1.00
O314   O     0.17156   0.19549   0.39834   0.00000  Uiso   1.00
O315   O     0.79540   0.71514   0.41900   0.00000  Uiso   1.00
O316   O     0.49553   0.36587   0.85354   0.00000  Uiso   1.00
N317   N     0.13501   0.01518   0.39273   0.00000  Uiso   1.00
N318   N     0.86694   0.67290   0.40744   0.00000  Uiso   1.00
N319   N     0.36584   0.42399   0.71710   0.00000  Uiso   1.00
N320   N     0.19818   0.12479   0.49516   0.00000  Uiso   1.00
N321   N     0.93011   0.78251   0.50987   0.00000  Uiso   1.00
N322   N     0.42901   0.53360   0.81952   0.00000  Uiso   1.00
C323   C     0.61707   0.19439   0.49675   0.00000  Uiso   1.00
C324   C     0.63747   0.30958   0.49312   0.00000  Uiso   1.00
C325   C     0.61942   0.34538   0.43301   0.00000  Uiso   1.00
C326   C     0.64317   0.45381   0.44064   0.00000  Uiso   1.00
C327   C     0.66865   0.62203   0.42503   0.00000  Uiso   1.00
C328   C     0.56357   0.21526   0.49717   0.00000  Uiso   1.00
C329   C     0.48340   0.17174   0.44046   0.00000  Uiso   1.00
C330   C     0.44496   0.20077   0.45151   0.00000  Uiso   1.00
C331   C     0.35576   0.22249   0.44221   0.00000  Uiso   1.00
C332   C     0.70108   0.14668   0.58250   0.00000  Uiso   1.00
C333   C     0.73651   0.04547   0.59756   0.00000  Uiso   1.00
C334   C     0.81383   0.01673   0.68045   0.00000  Uiso   1.00
C335   C     0.93811   0.93196   0.80365   0.00000  Uiso   1.00
C336   C     0.69135   0.32330   0.61720   0.00000  Uiso   1.00
C337   C     0.67781   0.37960   0.55855   0.00000  Uiso   1.00
C338   C     0.70160   0.48800   0.56627   0.00000  Uiso   1.00
C339   C     0.68359   0.52395   0.50619   0.00000  Uiso   1.00
C340   C     0.60392   0.28528   0.56259   0.00000  Uiso   1.00
C341   C     0.56559   0.31436   0.57373   0.00000  Uiso   1.00
C342   C     0.48538   0.27090   0.51705   0.00000  Uiso   1.00
C343   C     0.74142   0.21669   0.64793   0.00000  Uiso   1.00
C344   C     0.81869   0.18809   0.73082   0.00000  Uiso   1.00
C345   C     0.85424   0.08687   0.74599   0.00000  Uiso   1.00
H346   H     0.58566   0.13988   0.44582   0.00000  Uiso   1.00
H347   H     0.58819   0.29118   0.38239   0.00000  Uiso   1.00
H348   H     0.45220   0.11756   0.38985   0.00000  Uiso   1.00
H349   H     0.70527   0.99131   0.54691   0.00000  Uiso   1.00
H350   H     0.60875   0.48980   0.34090   0.00000  Uiso   1.00
H351   H     0.32203   0.12369   0.35664   0.00000  Uiso   1.00
H352   H     0.85568   0.85746   0.68785   0.00000  Uiso   1.00
H353   H     0.72276   0.37781   0.66814   0.00000  Uiso   1.00
H354   H     0.73282   0.54216   0.61691   0.00000  Uiso   1.00
H355   H     0.59683   0.36854   0.62436   0.00000  Uiso   1.00
H356   H     0.84990   0.24229   0.78143   0.00000  Uiso   1.00
H357   H     0.72614   0.69351   0.53124   0.00000  Uiso   1.00
H358   H     0.43941   0.32739   0.54698   0.00000  Uiso   1.00
H359   H     0.97306   0.06117   0.87819   0.00000  Uiso   1.00
O360   O     0.67156   0.69549   0.39834   0.00000  Uiso   1.00
O361   O     0.29540   0.21514   0.41900   0.00000  Uiso   1.00
O362   O     0.99553   0.86587   0.85354   0.00000  Uiso   1.00
N363   N     0.63501   0.51518   0.39273   0.00000  Uiso   1.00
N364   N     0.36694   0.17290   0.40744   0.00000  Uiso   1.00
N365   N     0.86584   0.92399   0.71710   0.00000  Uiso   1.00
N366   N     0.69818   0.62479   0.49516   0.00000  Uiso   1.00
N367   N     0.43011   0.28251   0.50987   0.00000  Uiso   1.00
N368   N     0.92901   0.03360   0.81952   0.00000  Uiso   1.00
