data_job_04122
_audit_creation_date              2018-12-19
_audit_creation_method            'Materials Studio'
_symmetry_space_group_name_H-M    'P1'
_symmetry_Int_Tables_number       1
_symmetry_cell_setting            triclinic
loop_
_symmetry_equiv_pos_as_xyz
  x,y,z
_cell_length_a                    11.1742
_cell_length_b                    12.0931
_cell_length_c                    25.1213
_cell_angle_alpha                 90.0000
_cell_angle_beta                  78.1621
_cell_angle_gamma                 90.0000
loop_
_atom_site_label
_atom_site_type_symbol
_atom_site_fract_x
_atom_site_fract_y
_atom_site_fract_z
_atom_site_U_iso_or_equiv
_atom_site_adp_type
_atom_site_occupancy
C1     C     0.10220   0.16195   0.86029   0.00000  Uiso   1.00
C2     C     0.16114   0.16693   0.79995   0.00000  Uiso   1.00
C3     C     0.10396   0.20076   0.75862   0.00000  Uiso   1.00
C4     C     0.17358   0.19937   0.70606   0.00000  Uiso   1.00
C5     C     0.24647   0.21221   0.61400   0.00000  Uiso   1.00
C6     C     0.11786   0.04318   0.87807   0.00000  Uiso   1.00
C7     C     0.02429   0.97297   0.90243   0.00000  Uiso   1.00
C8     C     0.05749   0.86741   0.91563   0.00000  Uiso   1.00
C9     C     0.06319   0.68816   0.94490   0.00000  Uiso   1.00
C10    C     0.18201   0.23283   0.88924   0.00000  Uiso   1.00
C11    C     0.14238   0.32206   0.92300   0.00000  Uiso   1.00
C12    C     0.22959   0.37616   0.94563   0.00000  Uiso   1.00
C13    C     0.33489   0.49137   0.99224   0.00000  Uiso   1.00
C14    C     0.32754   0.09933   0.84044   0.00000  Uiso   1.00
C15    C     0.28354   0.13291   0.78917   0.00000  Uiso   1.00
C16    C     0.35328   0.13147   0.73665   0.00000  Uiso   1.00
C17    C     0.29620   0.16529   0.69525   0.00000  Uiso   1.00
C18    C     0.24026   0.00916   0.86729   0.00000  Uiso   1.00
C19    C     0.27361   0.90368   0.88046   0.00000  Uiso   1.00
C20    C     0.18011   0.83333   0.90483   0.00000  Uiso   1.00
C21    C     0.30442   0.19881   0.87846   0.00000  Uiso   1.00
C22    C     0.39170   0.25278   0.90104   0.00000  Uiso   1.00
C23    C     0.35220   0.34208   0.93483   0.00000  Uiso   1.00
H24    H     0.00690   0.18843   0.86868   0.00000  Uiso   1.00
H25    H     0.00923   0.22706   0.76698   0.00000  Uiso   1.00
H26    H     0.92958   0.99932   0.91077   0.00000  Uiso   1.00
H27    H     0.04765   0.34836   0.93134   0.00000  Uiso   1.00
H28    H     0.06577   0.25486   0.64946   0.00000  Uiso   1.00
H29    H     0.89782   0.77466   0.95267   0.00000  Uiso   1.00
H30    H     0.14680   0.51068   0.99605   0.00000  Uiso   1.00
H31    H     0.42284   0.07284   0.83204   0.00000  Uiso   1.00
H32    H     0.44799   0.10514   0.72832   0.00000  Uiso   1.00
H33    H     0.36834   0.87739   0.87212   0.00000  Uiso   1.00
H34    H     0.48641   0.22643   0.89269   0.00000  Uiso   1.00
H35    H     0.42189   0.15590   0.61809   0.00000  Uiso   1.00
H36    H     0.25394   0.67570   0.92130   0.00000  Uiso   1.00
H37    H     0.50292   0.41172   0.96468   0.00000  Uiso   1.00
O38    O     0.25286   0.22868   0.56621   0.00000  Uiso   1.00
O39    O     0.03252   0.59868   0.96402   0.00000  Uiso   1.00
O40    O     0.35917   0.56432   0.02092   0.00000  Uiso   1.00
N41    N     0.14614   0.22716   0.65631   0.00000  Uiso   1.00
N42    N     0.98911   0.77819   0.93979   0.00000  Uiso   1.00
N43    N     0.22188   0.46629   0.98036   0.00000  Uiso   1.00
N44    N     0.33776   0.17391   0.63943   0.00000  Uiso   1.00
N45    N     0.18074   0.72494   0.92291   0.00000  Uiso   1.00
N46    N     0.41351   0.41304   0.96347   0.00000  Uiso   1.00
C47    C     0.89780   0.66195   0.63971   0.00000  Uiso   1.00
C48    C     0.83886   0.66693   0.70005   0.00000  Uiso   1.00
C49    C     0.89604   0.70076   0.74138   0.00000  Uiso   1.00
C50    C     0.82642   0.69937   0.79394   0.00000  Uiso   1.00
C51    C     0.75353   0.71221   0.88600   0.00000  Uiso   1.00
C52    C     0.88214   0.54318   0.62193   0.00000  Uiso   1.00
C53    C     0.97571   0.47297   0.59757   0.00000  Uiso   1.00
C54    C     0.94251   0.36741   0.58437   0.00000  Uiso   1.00
C55    C     0.93681   0.18816   0.55510   0.00000  Uiso   1.00
C56    C     0.81799   0.73283   0.61076   0.00000  Uiso   1.00
C57    C     0.85762   0.82206   0.57700   0.00000  Uiso   1.00
C58    C     0.77041   0.87616   0.55437   0.00000  Uiso   1.00
C59    C     0.66511   0.99137   0.50776   0.00000  Uiso   1.00
C60    C     0.67246   0.59933   0.65956   0.00000  Uiso   1.00
C61    C     0.71646   0.63291   0.71083   0.00000  Uiso   1.00
C62    C     0.64672   0.63147   0.76335   0.00000  Uiso   1.00
C63    C     0.70380   0.66529   0.80475   0.00000  Uiso   1.00
C64    C     0.75974   0.50916   0.63271   0.00000  Uiso   1.00
C65    C     0.72639   0.40368   0.61954   0.00000  Uiso   1.00
C66    C     0.81989   0.33333   0.59517   0.00000  Uiso   1.00
C67    C     0.69558   0.69881   0.62154   0.00000  Uiso   1.00
C68    C     0.60830   0.75278   0.59896   0.00000  Uiso   1.00
C69    C     0.64780   0.84208   0.56517   0.00000  Uiso   1.00
H70    H     0.99310   0.68843   0.63132   0.00000  Uiso   1.00
H71    H     0.99077   0.72706   0.73302   0.00000  Uiso   1.00
H72    H     0.07042   0.49932   0.58923   0.00000  Uiso   1.00
H73    H     0.95235   0.84836   0.56866   0.00000  Uiso   1.00
H74    H     0.93423   0.75486   0.85054   0.00000  Uiso   1.00
H75    H     0.10218   0.27466   0.54733   0.00000  Uiso   1.00
H76    H     0.85320   0.01068   0.50395   0.00000  Uiso   1.00
H77    H     0.57716   0.57284   0.66796   0.00000  Uiso   1.00
H78    H     0.55201   0.60514   0.77168   0.00000  Uiso   1.00
H79    H     0.63166   0.37739   0.62788   0.00000  Uiso   1.00
H80    H     0.51359   0.72643   0.60731   0.00000  Uiso   1.00
H81    H     0.57811   0.65590   0.88191   0.00000  Uiso   1.00
H82    H     0.74606   0.17570   0.57870   0.00000  Uiso   1.00
H83    H     0.49708   0.91172   0.53532   0.00000  Uiso   1.00
O84    O     0.74714   0.72868   0.93379   0.00000  Uiso   1.00
O85    O     0.96748   0.09868   0.53598   0.00000  Uiso   1.00
O86    O     0.64083   0.06432   0.47908   0.00000  Uiso   1.00
N87    N     0.85386   0.72716   0.84369   0.00000  Uiso   1.00
N88    N     0.01089   0.27819   0.56021   0.00000  Uiso   1.00
N89    N     0.77812   0.96629   0.51964   0.00000  Uiso   1.00
N90    N     0.66224   0.67391   0.86057   0.00000  Uiso   1.00
N91    N     0.81926   0.22494   0.57709   0.00000  Uiso   1.00
N92    N     0.58649   0.91304   0.53653   0.00000  Uiso   1.00
C93    C     0.89780   0.83805   0.13971   0.00000  Uiso   1.00
C94    C     0.83886   0.83307   0.20005   0.00000  Uiso   1.00
C95    C     0.89604   0.79924   0.24138   0.00000  Uiso   1.00
C96    C     0.82642   0.80063   0.29394   0.00000  Uiso   1.00
C97    C     0.75353   0.78779   0.38600   0.00000  Uiso   1.00
C98    C     0.88214   0.95682   0.12193   0.00000  Uiso   1.00
C99    C     0.97571   0.02703   0.09757   0.00000  Uiso   1.00
C100   C     0.94251   0.13259   0.08437   0.00000  Uiso   1.00
C101   C     0.93681   0.31184   0.05510   0.00000  Uiso   1.00
C102   C     0.81799   0.76717   0.11076   0.00000  Uiso   1.00
C103   C     0.85762   0.67794   0.07700   0.00000  Uiso   1.00
C104   C     0.77041   0.62384   0.05437   0.00000  Uiso   1.00
C105   C     0.66511   0.50863   0.00776   0.00000  Uiso   1.00
C106   C     0.67246   0.90067   0.15956   0.00000  Uiso   1.00
C107   C     0.71646   0.86709   0.21083   0.00000  Uiso   1.00
C108   C     0.64672   0.86853   0.26335   0.00000  Uiso   1.00
C109   C     0.70380   0.83471   0.30475   0.00000  Uiso   1.00
C110   C     0.75974   0.99084   0.13271   0.00000  Uiso   1.00
C111   C     0.72639   0.09632   0.11954   0.00000  Uiso   1.00
C112   C     0.81989   0.16667   0.09517   0.00000  Uiso   1.00
C113   C     0.69558   0.80119   0.12154   0.00000  Uiso   1.00
C114   C     0.60830   0.74722   0.09896   0.00000  Uiso   1.00
C115   C     0.64780   0.65792   0.06517   0.00000  Uiso   1.00
H116   H     0.99310   0.81157   0.13132   0.00000  Uiso   1.00
H117   H     0.99077   0.77294   0.23302   0.00000  Uiso   1.00
H118   H     0.07042   0.00068   0.08923   0.00000  Uiso   1.00
H119   H     0.95235   0.65164   0.06866   0.00000  Uiso   1.00
H120   H     0.93423   0.74514   0.35054   0.00000  Uiso   1.00
H121   H     0.10218   0.22534   0.04733   0.00000  Uiso   1.00
H122   H     0.85320   0.48932   0.00395   0.00000  Uiso   1.00
H123   H     0.57716   0.92716   0.16796   0.00000  Uiso   1.00
H124   H     0.55201   0.89486   0.27168   0.00000  Uiso   1.00
H125   H     0.63166   0.12261   0.12788   0.00000  Uiso   1.00
H126   H     0.51359   0.77357   0.10731   0.00000  Uiso   1.00
H127   H     0.57811   0.84410   0.38191   0.00000  Uiso   1.00
H128   H     0.74606   0.32430   0.07870   0.00000  Uiso   1.00
H129   H     0.49708   0.58828   0.03532   0.00000  Uiso   1.00
O130   O     0.74714   0.77132   0.43379   0.00000  Uiso   1.00
O131   O     0.96748   0.40132   0.03598   0.00000  Uiso   1.00
O132   O     0.64083   0.43568   0.97908   0.00000  Uiso   1.00
N133   N     0.85386   0.77284   0.34369   0.00000  Uiso   1.00
N134   N     0.01089   0.22181   0.06021   0.00000  Uiso   1.00
N135   N     0.77812   0.53371   0.01964   0.00000  Uiso   1.00
N136   N     0.66224   0.82609   0.36057   0.00000  Uiso   1.00
N137   N     0.81926   0.27506   0.07709   0.00000  Uiso   1.00
N138   N     0.58649   0.58696   0.03653   0.00000  Uiso   1.00
C139   C     0.10220   0.33805   0.36029   0.00000  Uiso   1.00
C140   C     0.16114   0.33307   0.29995   0.00000  Uiso   1.00
C141   C     0.10396   0.29924   0.25862   0.00000  Uiso   1.00
C142   C     0.17358   0.30063   0.20606   0.00000  Uiso   1.00
C143   C     0.24647   0.28779   0.11400   0.00000  Uiso   1.00
C144   C     0.11786   0.45682   0.37807   0.00000  Uiso   1.00
C145   C     0.02429   0.52703   0.40243   0.00000  Uiso   1.00
C146   C     0.05749   0.63259   0.41563   0.00000  Uiso   1.00
C147   C     0.06319   0.81184   0.44490   0.00000  Uiso   1.00
C148   C     0.18201   0.26717   0.38924   0.00000  Uiso   1.00
C149   C     0.14238   0.17794   0.42300   0.00000  Uiso   1.00
C150   C     0.22959   0.12384   0.44563   0.00000  Uiso   1.00
C151   C     0.33489   0.00863   0.49224   0.00000  Uiso   1.00
C152   C     0.32754   0.40067   0.34044   0.00000  Uiso   1.00
C153   C     0.28354   0.36709   0.28917   0.00000  Uiso   1.00
C154   C     0.35328   0.36853   0.23665   0.00000  Uiso   1.00
C155   C     0.29620   0.33471   0.19525   0.00000  Uiso   1.00
C156   C     0.24026   0.49084   0.36729   0.00000  Uiso   1.00
C157   C     0.27361   0.59632   0.38046   0.00000  Uiso   1.00
C158   C     0.18011   0.66667   0.40483   0.00000  Uiso   1.00
C159   C     0.30442   0.30119   0.37846   0.00000  Uiso   1.00
C160   C     0.39170   0.24722   0.40104   0.00000  Uiso   1.00
C161   C     0.35220   0.15792   0.43483   0.00000  Uiso   1.00
H162   H     0.00690   0.31157   0.36868   0.00000  Uiso   1.00
H163   H     0.00923   0.27294   0.26698   0.00000  Uiso   1.00
H164   H     0.92958   0.50068   0.41077   0.00000  Uiso   1.00
H165   H     0.04765   0.15164   0.43134   0.00000  Uiso   1.00
H166   H     0.06577   0.24514   0.14946   0.00000  Uiso   1.00
H167   H     0.89782   0.72534   0.45267   0.00000  Uiso   1.00
H168   H     0.14680   0.98932   0.49605   0.00000  Uiso   1.00
H169   H     0.42284   0.42716   0.33204   0.00000  Uiso   1.00
H170   H     0.44799   0.39486   0.22832   0.00000  Uiso   1.00
H171   H     0.36834   0.62261   0.37212   0.00000  Uiso   1.00
H172   H     0.48641   0.27357   0.39269   0.00000  Uiso   1.00
H173   H     0.42189   0.34410   0.11809   0.00000  Uiso   1.00
H174   H     0.25394   0.82430   0.42130   0.00000  Uiso   1.00
H175   H     0.50292   0.08828   0.46468   0.00000  Uiso   1.00
O176   O     0.25286   0.27132   0.06621   0.00000  Uiso   1.00
O177   O     0.03252   0.90132   0.46402   0.00000  Uiso   1.00
O178   O     0.35917   0.93568   0.52092   0.00000  Uiso   1.00
N179   N     0.14614   0.27284   0.15631   0.00000  Uiso   1.00
N180   N     0.98911   0.72181   0.43979   0.00000  Uiso   1.00
N181   N     0.22188   0.03371   0.48036   0.00000  Uiso   1.00
N182   N     0.33776   0.32609   0.13943   0.00000  Uiso   1.00
N183   N     0.18074   0.77506   0.42291   0.00000  Uiso   1.00
N184   N     0.41351   0.08696   0.46347   0.00000  Uiso   1.00
