data_job_02993
_audit_creation_date              2018-12-19
_audit_creation_method            'Materials Studio'
_symmetry_space_group_name_H-M    'P1'
_symmetry_Int_Tables_number       1
_symmetry_cell_setting            triclinic
loop_
_symmetry_equiv_pos_as_xyz
  x,y,z
_cell_length_a                    23.0064
_cell_length_b                    10.9456
_cell_length_c                    21.0322
_cell_angle_alpha                 90.0000
_cell_angle_beta                  90.0000
_cell_angle_gamma                 90.0000
loop_
_atom_site_label
_atom_site_type_symbol
_atom_site_fract_x
_atom_site_fract_y
_atom_site_fract_z
_atom_site_U_iso_or_equiv
_atom_site_adp_type
_atom_site_occupancy
C1     C     0.34082   0.31979   0.38271   0.00000  Uiso   1.00
C2     C     0.33047   0.33249   0.45402   0.00000  Uiso   1.00
C3     C     0.28339   0.39032   0.48223   0.00000  Uiso   1.00
C4     C     0.28188   0.39220   0.54822   0.00000  Uiso   1.00
C5     C     0.25913   0.42020   0.65341   0.00000  Uiso   1.00
C6     C     0.40046   0.37544   0.37002   0.00000  Uiso   1.00
C7     C     0.41224   0.46937   0.32760   0.00000  Uiso   1.00
C8     C     0.46965   0.50738   0.32287   0.00000  Uiso   1.00
C9     C     0.55558   0.60199   0.29762   0.00000  Uiso   1.00
C10    C     0.34705   0.18326   0.37000   0.00000  Uiso   1.00
C11    C     0.31392   0.11560   0.32756   0.00000  Uiso   1.00
C12    C     0.32637   0.99181   0.32281   0.00000  Uiso   1.00
C13    C     0.32936   0.78803   0.29754   0.00000  Uiso   1.00
C14    C     0.42184   0.22028   0.44971   0.00000  Uiso   1.00
C15    C     0.37448   0.27845   0.49041   0.00000  Uiso   1.00
C16    C     0.37304   0.28023   0.55637   0.00000  Uiso   1.00
C17    C     0.32597   0.33805   0.58468   0.00000  Uiso   1.00
C18    C     0.44448   0.32140   0.40641   0.00000  Uiso   1.00
C19    C     0.50189   0.35927   0.40174   0.00000  Uiso   1.00
C20    C     0.51374   0.45324   0.35933   0.00000  Uiso   1.00
C21    C     0.39106   0.12921   0.40640   0.00000  Uiso   1.00
C22    C     0.40357   0.00550   0.40171   0.00000  Uiso   1.00
C23    C     0.37046   0.93766   0.35927   0.00000  Uiso   1.00
H24    H     0.30656   0.36187   0.35437   0.00000  Uiso   1.00
H25    H     0.24934   0.43215   0.45405   0.00000  Uiso   1.00
H26    H     0.37817   0.51117   0.29944   0.00000  Uiso   1.00
H27    H     0.27987   0.15745   0.29941   0.00000  Uiso   1.00
H28    H     0.20533   0.48627   0.58061   0.00000  Uiso   1.00
H29    H     0.47698   0.65285   0.25459   0.00000  Uiso   1.00
H30    H     0.26968   0.90698   0.25453   0.00000  Uiso   1.00
H31    H     0.45611   0.17820   0.47805   0.00000  Uiso   1.00
H32    H     0.40710   0.23840   0.58452   0.00000  Uiso   1.00
H33    H     0.53593   0.31742   0.42991   0.00000  Uiso   1.00
H34    H     0.43763   0.96371   0.42988   0.00000  Uiso   1.00
H35    H     0.33338   0.32901   0.68651   0.00000  Uiso   1.00
H36    H     0.60502   0.49560   0.36049   0.00000  Uiso   1.00
H37    H     0.39773   0.74973   0.36042   0.00000  Uiso   1.00
O38    O     0.23443   0.45059   0.70137   0.00000  Uiso   1.00
O39    O     0.59082   0.66913   0.27363   0.00000  Uiso   1.00
O40    O     0.31885   0.69056   0.27355   0.00000  Uiso   1.00
N41    N     0.24219   0.44097   0.59093   0.00000  Uiso   1.00
N42    N     0.49616   0.59674   0.28612   0.00000  Uiso   1.00
N43    N     0.30237   0.89941   0.28605   0.00000  Uiso   1.00
N44    N     0.31109   0.35636   0.64791   0.00000  Uiso   1.00
N45    N     0.56506   0.51212   0.34310   0.00000  Uiso   1.00
N46    N     0.37127   0.81480   0.34303   0.00000  Uiso   1.00
C47    C     0.15918   0.18021   0.38271   0.00000  Uiso   1.00
C48    C     0.16953   0.16751   0.45402   0.00000  Uiso   1.00
C49    C     0.21661   0.10968   0.48223   0.00000  Uiso   1.00
C50    C     0.21812   0.10780   0.54822   0.00000  Uiso   1.00
C51    C     0.24087   0.07980   0.65341   0.00000  Uiso   1.00
C52    C     0.09954   0.12456   0.37002   0.00000  Uiso   1.00
C53    C     0.08776   0.03063   0.32760   0.00000  Uiso   1.00
C54    C     0.03035   0.99262   0.32287   0.00000  Uiso   1.00
C55    C     0.94442   0.89801   0.29762   0.00000  Uiso   1.00
C56    C     0.15295   0.31674   0.37000   0.00000  Uiso   1.00
C57    C     0.18608   0.38440   0.32756   0.00000  Uiso   1.00
C58    C     0.17363   0.50819   0.32281   0.00000  Uiso   1.00
C59    C     0.17064   0.71197   0.29754   0.00000  Uiso   1.00
C60    C     0.07816   0.27972   0.44971   0.00000  Uiso   1.00
C61    C     0.12552   0.22155   0.49041   0.00000  Uiso   1.00
C62    C     0.12696   0.21977   0.55637   0.00000  Uiso   1.00
C63    C     0.17403   0.16195   0.58468   0.00000  Uiso   1.00
C64    C     0.05552   0.17860   0.40641   0.00000  Uiso   1.00
C65    C     0.99811   0.14073   0.40174   0.00000  Uiso   1.00
C66    C     0.98626   0.04676   0.35933   0.00000  Uiso   1.00
C67    C     0.10894   0.37079   0.40640   0.00000  Uiso   1.00
C68    C     0.09643   0.49450   0.40171   0.00000  Uiso   1.00
C69    C     0.12954   0.56234   0.35927   0.00000  Uiso   1.00
H70    H     0.19344   0.13813   0.35437   0.00000  Uiso   1.00
H71    H     0.25066   0.06785   0.45405   0.00000  Uiso   1.00
H72    H     0.12183   0.98883   0.29944   0.00000  Uiso   1.00
H73    H     0.22013   0.34255   0.29941   0.00000  Uiso   1.00
H74    H     0.29467   0.01373   0.58061   0.00000  Uiso   1.00
H75    H     0.02302   0.84715   0.25459   0.00000  Uiso   1.00
H76    H     0.23032   0.59302   0.25453   0.00000  Uiso   1.00
H77    H     0.04389   0.32180   0.47805   0.00000  Uiso   1.00
H78    H     0.09290   0.26160   0.58452   0.00000  Uiso   1.00
H79    H     0.96407   0.18258   0.42991   0.00000  Uiso   1.00
H80    H     0.06237   0.53629   0.42988   0.00000  Uiso   1.00
H81    H     0.16662   0.17099   0.68651   0.00000  Uiso   1.00
H82    H     0.89498   0.00440   0.36049   0.00000  Uiso   1.00
H83    H     0.10227   0.75027   0.36042   0.00000  Uiso   1.00
O84    O     0.26557   0.04941   0.70137   0.00000  Uiso   1.00
O85    O     0.90918   0.83087   0.27363   0.00000  Uiso   1.00
O86    O     0.18115   0.80944   0.27355   0.00000  Uiso   1.00
N87    N     0.25781   0.05903   0.59093   0.00000  Uiso   1.00
N88    N     0.00384   0.90326   0.28612   0.00000  Uiso   1.00
N89    N     0.19763   0.60059   0.28605   0.00000  Uiso   1.00
N90    N     0.18891   0.14364   0.64791   0.00000  Uiso   1.00
N91    N     0.93494   0.98788   0.34310   0.00000  Uiso   1.00
N92    N     0.12873   0.68520   0.34303   0.00000  Uiso   1.00
C93    C     0.65918   0.81979   0.11729   0.00000  Uiso   1.00
C94    C     0.66953   0.83249   0.04598   0.00000  Uiso   1.00
C95    C     0.71661   0.89032   0.01777   0.00000  Uiso   1.00
C96    C     0.71812   0.89220   0.95178   0.00000  Uiso   1.00
C97    C     0.74087   0.92020   0.84659   0.00000  Uiso   1.00
C98    C     0.59954   0.87544   0.12998   0.00000  Uiso   1.00
C99    C     0.58776   0.96937   0.17240   0.00000  Uiso   1.00
C100   C     0.53035   0.00738   0.17713   0.00000  Uiso   1.00
C101   C     0.44442   0.10199   0.20238   0.00000  Uiso   1.00
C102   C     0.65295   0.68326   0.13000   0.00000  Uiso   1.00
C103   C     0.68608   0.61560   0.17244   0.00000  Uiso   1.00
C104   C     0.67363   0.49181   0.17719   0.00000  Uiso   1.00
C105   C     0.67064   0.28803   0.20246   0.00000  Uiso   1.00
C106   C     0.57816   0.72028   0.05029   0.00000  Uiso   1.00
C107   C     0.62552   0.77845   0.00959   0.00000  Uiso   1.00
C108   C     0.62696   0.78023   0.94363   0.00000  Uiso   1.00
C109   C     0.67403   0.83805   0.91532   0.00000  Uiso   1.00
C110   C     0.55552   0.82140   0.09359   0.00000  Uiso   1.00
C111   C     0.49811   0.85927   0.09826   0.00000  Uiso   1.00
C112   C     0.48626   0.95324   0.14067   0.00000  Uiso   1.00
C113   C     0.60894   0.62921   0.09360   0.00000  Uiso   1.00
C114   C     0.59643   0.50550   0.09829   0.00000  Uiso   1.00
C115   C     0.62954   0.43766   0.14073   0.00000  Uiso   1.00
H116   H     0.69344   0.86187   0.14563   0.00000  Uiso   1.00
H117   H     0.75066   0.93215   0.04595   0.00000  Uiso   1.00
H118   H     0.62183   0.01117   0.20056   0.00000  Uiso   1.00
H119   H     0.72013   0.65745   0.20059   0.00000  Uiso   1.00
H120   H     0.79467   0.98627   0.91939   0.00000  Uiso   1.00
H121   H     0.52302   0.15285   0.24541   0.00000  Uiso   1.00
H122   H     0.73032   0.40698   0.24547   0.00000  Uiso   1.00
H123   H     0.54389   0.67820   0.02195   0.00000  Uiso   1.00
H124   H     0.59290   0.73840   0.91548   0.00000  Uiso   1.00
H125   H     0.46407   0.81742   0.07009   0.00000  Uiso   1.00
H126   H     0.56237   0.46371   0.07012   0.00000  Uiso   1.00
H127   H     0.66662   0.82901   0.81349   0.00000  Uiso   1.00
H128   H     0.39498   0.99560   0.13951   0.00000  Uiso   1.00
H129   H     0.60227   0.24973   0.13958   0.00000  Uiso   1.00
O130   O     0.76557   0.95059   0.79863   0.00000  Uiso   1.00
O131   O     0.40918   0.16913   0.22637   0.00000  Uiso   1.00
O132   O     0.68115   0.19056   0.22645   0.00000  Uiso   1.00
N133   N     0.75781   0.94097   0.90907   0.00000  Uiso   1.00
N134   N     0.50384   0.09674   0.21388   0.00000  Uiso   1.00
N135   N     0.69763   0.39941   0.21395   0.00000  Uiso   1.00
N136   N     0.68891   0.85636   0.85209   0.00000  Uiso   1.00
N137   N     0.43494   0.01212   0.15690   0.00000  Uiso   1.00
N138   N     0.62873   0.31480   0.15697   0.00000  Uiso   1.00
C139   C     0.84082   0.68021   0.11729   0.00000  Uiso   1.00
C140   C     0.83047   0.66751   0.04598   0.00000  Uiso   1.00
C141   C     0.78339   0.60968   0.01777   0.00000  Uiso   1.00
C142   C     0.78188   0.60780   0.95178   0.00000  Uiso   1.00
C143   C     0.75913   0.57980   0.84659   0.00000  Uiso   1.00
C144   C     0.90046   0.62456   0.12998   0.00000  Uiso   1.00
C145   C     0.91224   0.53063   0.17240   0.00000  Uiso   1.00
C146   C     0.96965   0.49262   0.17713   0.00000  Uiso   1.00
C147   C     0.05558   0.39801   0.20238   0.00000  Uiso   1.00
C148   C     0.84705   0.81674   0.13000   0.00000  Uiso   1.00
C149   C     0.81392   0.88440   0.17244   0.00000  Uiso   1.00
C150   C     0.82637   0.00819   0.17719   0.00000  Uiso   1.00
C151   C     0.82936   0.21197   0.20246   0.00000  Uiso   1.00
C152   C     0.92184   0.77972   0.05029   0.00000  Uiso   1.00
C153   C     0.87448   0.72155   0.00959   0.00000  Uiso   1.00
C154   C     0.87304   0.71977   0.94363   0.00000  Uiso   1.00
C155   C     0.82597   0.66195   0.91532   0.00000  Uiso   1.00
C156   C     0.94448   0.67860   0.09359   0.00000  Uiso   1.00
C157   C     0.00189   0.64073   0.09826   0.00000  Uiso   1.00
C158   C     0.01374   0.54676   0.14067   0.00000  Uiso   1.00
C159   C     0.89106   0.87079   0.09360   0.00000  Uiso   1.00
C160   C     0.90357   0.99450   0.09829   0.00000  Uiso   1.00
C161   C     0.87046   0.06234   0.14073   0.00000  Uiso   1.00
H162   H     0.80656   0.63813   0.14563   0.00000  Uiso   1.00
H163   H     0.74934   0.56785   0.04595   0.00000  Uiso   1.00
H164   H     0.87817   0.48883   0.20056   0.00000  Uiso   1.00
H165   H     0.77987   0.84255   0.20059   0.00000  Uiso   1.00
H166   H     0.70533   0.51373   0.91939   0.00000  Uiso   1.00
H167   H     0.97698   0.34715   0.24541   0.00000  Uiso   1.00
H168   H     0.76968   0.09302   0.24547   0.00000  Uiso   1.00
H169   H     0.95611   0.82180   0.02195   0.00000  Uiso   1.00
H170   H     0.90710   0.76160   0.91548   0.00000  Uiso   1.00
H171   H     0.03593   0.68258   0.07009   0.00000  Uiso   1.00
H172   H     0.93763   0.03629   0.07012   0.00000  Uiso   1.00
H173   H     0.83338   0.67099   0.81349   0.00000  Uiso   1.00
H174   H     0.10502   0.50440   0.13951   0.00000  Uiso   1.00
H175   H     0.89773   0.25027   0.13958   0.00000  Uiso   1.00
O176   O     0.73443   0.54941   0.79863   0.00000  Uiso   1.00
O177   O     0.09082   0.33087   0.22637   0.00000  Uiso   1.00
O178   O     0.81885   0.30944   0.22645   0.00000  Uiso   1.00
N179   N     0.74219   0.55903   0.90907   0.00000  Uiso   1.00
N180   N     0.99616   0.40326   0.21388   0.00000  Uiso   1.00
N181   N     0.80237   0.10059   0.21395   0.00000  Uiso   1.00
N182   N     0.81109   0.64364   0.85209   0.00000  Uiso   1.00
N183   N     0.06506   0.48788   0.15690   0.00000  Uiso   1.00
N184   N     0.87127   0.18520   0.15697   0.00000  Uiso   1.00
C185   C     0.65918   0.68021   0.61729   0.00000  Uiso   1.00
C186   C     0.66953   0.66751   0.54598   0.00000  Uiso   1.00
C187   C     0.71661   0.60968   0.51777   0.00000  Uiso   1.00
C188   C     0.71812   0.60780   0.45178   0.00000  Uiso   1.00
C189   C     0.74087   0.57980   0.34659   0.00000  Uiso   1.00
C190   C     0.59954   0.62456   0.62998   0.00000  Uiso   1.00
C191   C     0.58776   0.53063   0.67240   0.00000  Uiso   1.00
C192   C     0.53035   0.49262   0.67713   0.00000  Uiso   1.00
C193   C     0.44442   0.39801   0.70238   0.00000  Uiso   1.00
C194   C     0.65295   0.81674   0.63000   0.00000  Uiso   1.00
C195   C     0.68608   0.88440   0.67244   0.00000  Uiso   1.00
C196   C     0.67363   0.00819   0.67719   0.00000  Uiso   1.00
C197   C     0.67064   0.21197   0.70246   0.00000  Uiso   1.00
C198   C     0.57816   0.77972   0.55029   0.00000  Uiso   1.00
C199   C     0.62552   0.72155   0.50959   0.00000  Uiso   1.00
C200   C     0.62696   0.71977   0.44363   0.00000  Uiso   1.00
C201   C     0.67403   0.66195   0.41532   0.00000  Uiso   1.00
C202   C     0.55552   0.67860   0.59359   0.00000  Uiso   1.00
C203   C     0.49811   0.64073   0.59826   0.00000  Uiso   1.00
C204   C     0.48626   0.54676   0.64067   0.00000  Uiso   1.00
C205   C     0.60894   0.87079   0.59360   0.00000  Uiso   1.00
C206   C     0.59643   0.99450   0.59829   0.00000  Uiso   1.00
C207   C     0.62954   0.06234   0.64073   0.00000  Uiso   1.00
H208   H     0.69344   0.63813   0.64563   0.00000  Uiso   1.00
H209   H     0.75066   0.56785   0.54595   0.00000  Uiso   1.00
H210   H     0.62183   0.48883   0.70056   0.00000  Uiso   1.00
H211   H     0.72013   0.84255   0.70059   0.00000  Uiso   1.00
H212   H     0.79467   0.51373   0.41939   0.00000  Uiso   1.00
H213   H     0.52302   0.34715   0.74541   0.00000  Uiso   1.00
H214   H     0.73032   0.09302   0.74547   0.00000  Uiso   1.00
H215   H     0.54389   0.82180   0.52195   0.00000  Uiso   1.00
H216   H     0.59290   0.76160   0.41548   0.00000  Uiso   1.00
H217   H     0.46407   0.68258   0.57009   0.00000  Uiso   1.00
H218   H     0.56237   0.03629   0.57012   0.00000  Uiso   1.00
H219   H     0.66662   0.67099   0.31349   0.00000  Uiso   1.00
H220   H     0.39498   0.50440   0.63951   0.00000  Uiso   1.00
H221   H     0.60227   0.25027   0.63958   0.00000  Uiso   1.00
O222   O     0.76557   0.54941   0.29863   0.00000  Uiso   1.00
O223   O     0.40918   0.33087   0.72637   0.00000  Uiso   1.00
O224   O     0.68115   0.30944   0.72645   0.00000  Uiso   1.00
N225   N     0.75781   0.55903   0.40907   0.00000  Uiso   1.00
N226   N     0.50384   0.40326   0.71388   0.00000  Uiso   1.00
N227   N     0.69763   0.10059   0.71395   0.00000  Uiso   1.00
N228   N     0.68891   0.64364   0.35209   0.00000  Uiso   1.00
N229   N     0.43494   0.48788   0.65690   0.00000  Uiso   1.00
N230   N     0.62873   0.18520   0.65697   0.00000  Uiso   1.00
C231   C     0.84082   0.81979   0.61729   0.00000  Uiso   1.00
C232   C     0.83047   0.83249   0.54598   0.00000  Uiso   1.00
C233   C     0.78339   0.89032   0.51777   0.00000  Uiso   1.00
C234   C     0.78188   0.89220   0.45178   0.00000  Uiso   1.00
C235   C     0.75913   0.92020   0.34659   0.00000  Uiso   1.00
C236   C     0.90046   0.87544   0.62998   0.00000  Uiso   1.00
C237   C     0.91224   0.96937   0.67240   0.00000  Uiso   1.00
C238   C     0.96965   0.00738   0.67713   0.00000  Uiso   1.00
C239   C     0.05558   0.10199   0.70238   0.00000  Uiso   1.00
C240   C     0.84705   0.68326   0.63000   0.00000  Uiso   1.00
C241   C     0.81392   0.61560   0.67244   0.00000  Uiso   1.00
C242   C     0.82637   0.49181   0.67719   0.00000  Uiso   1.00
C243   C     0.82936   0.28803   0.70246   0.00000  Uiso   1.00
C244   C     0.92184   0.72028   0.55029   0.00000  Uiso   1.00
C245   C     0.87448   0.77845   0.50959   0.00000  Uiso   1.00
C246   C     0.87304   0.78023   0.44363   0.00000  Uiso   1.00
C247   C     0.82597   0.83805   0.41532   0.00000  Uiso   1.00
C248   C     0.94448   0.82140   0.59359   0.00000  Uiso   1.00
C249   C     0.00189   0.85927   0.59826   0.00000  Uiso   1.00
C250   C     0.01374   0.95324   0.64067   0.00000  Uiso   1.00
C251   C     0.89106   0.62921   0.59360   0.00000  Uiso   1.00
C252   C     0.90357   0.50550   0.59829   0.00000  Uiso   1.00
C253   C     0.87046   0.43766   0.64073   0.00000  Uiso   1.00
H254   H     0.80656   0.86187   0.64563   0.00000  Uiso   1.00
H255   H     0.74934   0.93215   0.54595   0.00000  Uiso   1.00
H256   H     0.87817   0.01117   0.70056   0.00000  Uiso   1.00
H257   H     0.77987   0.65745   0.70059   0.00000  Uiso   1.00
H258   H     0.70533   0.98627   0.41939   0.00000  Uiso   1.00
H259   H     0.97698   0.15285   0.74541   0.00000  Uiso   1.00
H260   H     0.76968   0.40698   0.74547   0.00000  Uiso   1.00
H261   H     0.95611   0.67820   0.52195   0.00000  Uiso   1.00
H262   H     0.90710   0.73840   0.41548   0.00000  Uiso   1.00
H263   H     0.03593   0.81742   0.57009   0.00000  Uiso   1.00
H264   H     0.93763   0.46371   0.57012   0.00000  Uiso   1.00
H265   H     0.83338   0.82901   0.31349   0.00000  Uiso   1.00
H266   H     0.10502   0.99560   0.63951   0.00000  Uiso   1.00
H267   H     0.89773   0.24973   0.63958   0.00000  Uiso   1.00
O268   O     0.73443   0.95059   0.29863   0.00000  Uiso   1.00
O269   O     0.09082   0.16913   0.72637   0.00000  Uiso   1.00
O270   O     0.81885   0.19056   0.72645   0.00000  Uiso   1.00
N271   N     0.74219   0.94097   0.40907   0.00000  Uiso   1.00
N272   N     0.99616   0.09674   0.71388   0.00000  Uiso   1.00
N273   N     0.80237   0.39941   0.71395   0.00000  Uiso   1.00
N274   N     0.81109   0.85636   0.35209   0.00000  Uiso   1.00
N275   N     0.06506   0.01212   0.65690   0.00000  Uiso   1.00
N276   N     0.87127   0.31480   0.65697   0.00000  Uiso   1.00
C277   C     0.34082   0.18021   0.88271   0.00000  Uiso   1.00
C278   C     0.33047   0.16751   0.95402   0.00000  Uiso   1.00
C279   C     0.28339   0.10968   0.98223   0.00000  Uiso   1.00
C280   C     0.28188   0.10780   0.04822   0.00000  Uiso   1.00
C281   C     0.25913   0.07980   0.15341   0.00000  Uiso   1.00
C282   C     0.40046   0.12456   0.87002   0.00000  Uiso   1.00
C283   C     0.41224   0.03063   0.82760   0.00000  Uiso   1.00
C284   C     0.46965   0.99262   0.82287   0.00000  Uiso   1.00
C285   C     0.55558   0.89801   0.79762   0.00000  Uiso   1.00
C286   C     0.34705   0.31674   0.87000   0.00000  Uiso   1.00
C287   C     0.31392   0.38440   0.82756   0.00000  Uiso   1.00
C288   C     0.32637   0.50819   0.82281   0.00000  Uiso   1.00
C289   C     0.32936   0.71197   0.79754   0.00000  Uiso   1.00
C290   C     0.42184   0.27972   0.94971   0.00000  Uiso   1.00
C291   C     0.37448   0.22155   0.99041   0.00000  Uiso   1.00
C292   C     0.37304   0.21977   0.05637   0.00000  Uiso   1.00
C293   C     0.32597   0.16195   0.08468   0.00000  Uiso   1.00
C294   C     0.44448   0.17860   0.90641   0.00000  Uiso   1.00
C295   C     0.50189   0.14073   0.90174   0.00000  Uiso   1.00
C296   C     0.51374   0.04676   0.85933   0.00000  Uiso   1.00
C297   C     0.39106   0.37079   0.90640   0.00000  Uiso   1.00
C298   C     0.40357   0.49450   0.90171   0.00000  Uiso   1.00
C299   C     0.37046   0.56234   0.85927   0.00000  Uiso   1.00
H300   H     0.30656   0.13813   0.85437   0.00000  Uiso   1.00
H301   H     0.24934   0.06785   0.95405   0.00000  Uiso   1.00
H302   H     0.37817   0.98883   0.79944   0.00000  Uiso   1.00
H303   H     0.27987   0.34255   0.79941   0.00000  Uiso   1.00
H304   H     0.20533   0.01373   0.08061   0.00000  Uiso   1.00
H305   H     0.47698   0.84715   0.75459   0.00000  Uiso   1.00
H306   H     0.26968   0.59302   0.75453   0.00000  Uiso   1.00
H307   H     0.45611   0.32180   0.97805   0.00000  Uiso   1.00
H308   H     0.40710   0.26160   0.08452   0.00000  Uiso   1.00
H309   H     0.53593   0.18258   0.92991   0.00000  Uiso   1.00
H310   H     0.43763   0.53629   0.92988   0.00000  Uiso   1.00
H311   H     0.33338   0.17099   0.18651   0.00000  Uiso   1.00
H312   H     0.60502   0.00440   0.86049   0.00000  Uiso   1.00
H313   H     0.39773   0.75027   0.86042   0.00000  Uiso   1.00
O314   O     0.23443   0.04941   0.20137   0.00000  Uiso   1.00
O315   O     0.59082   0.83087   0.77363   0.00000  Uiso   1.00
O316   O     0.31885   0.80944   0.77355   0.00000  Uiso   1.00
N317   N     0.24219   0.05903   0.09093   0.00000  Uiso   1.00
N318   N     0.49616   0.90326   0.78612   0.00000  Uiso   1.00
N319   N     0.30237   0.60059   0.78605   0.00000  Uiso   1.00
N320   N     0.31109   0.14364   0.14791   0.00000  Uiso   1.00
N321   N     0.56506   0.98788   0.84310   0.00000  Uiso   1.00
N322   N     0.37127   0.68520   0.84303   0.00000  Uiso   1.00
C323   C     0.15918   0.31979   0.88271   0.00000  Uiso   1.00
C324   C     0.16953   0.33249   0.95402   0.00000  Uiso   1.00
C325   C     0.21661   0.39032   0.98223   0.00000  Uiso   1.00
C326   C     0.21812   0.39220   0.04822   0.00000  Uiso   1.00
C327   C     0.24087   0.42020   0.15341   0.00000  Uiso   1.00
C328   C     0.09954   0.37544   0.87002   0.00000  Uiso   1.00
C329   C     0.08776   0.46937   0.82760   0.00000  Uiso   1.00
C330   C     0.03035   0.50738   0.82287   0.00000  Uiso   1.00
C331   C     0.94442   0.60199   0.79762   0.00000  Uiso   1.00
C332   C     0.15295   0.18326   0.87000   0.00000  Uiso   1.00
C333   C     0.18608   0.11560   0.82756   0.00000  Uiso   1.00
C334   C     0.17363   0.99181   0.82281   0.00000  Uiso   1.00
C335   C     0.17064   0.78803   0.79754   0.00000  Uiso   1.00
C336   C     0.07816   0.22028   0.94971   0.00000  Uiso   1.00
C337   C     0.12552   0.27845   0.99041   0.00000  Uiso   1.00
C338   C     0.12696   0.28023   0.05637   0.00000  Uiso   1.00
C339   C     0.17403   0.33805   0.08468   0.00000  Uiso   1.00
C340   C     0.05552   0.32140   0.90641   0.00000  Uiso   1.00
C341   C     0.99811   0.35927   0.90174   0.00000  Uiso   1.00
C342   C     0.98626   0.45324   0.85933   0.00000  Uiso   1.00
C343   C     0.10894   0.12921   0.90640   0.00000  Uiso   1.00
C344   C     0.09643   0.00550   0.90171   0.00000  Uiso   1.00
C345   C     0.12954   0.93766   0.85927   0.00000  Uiso   1.00
H346   H     0.19344   0.36187   0.85437   0.00000  Uiso   1.00
H347   H     0.25066   0.43215   0.95405   0.00000  Uiso   1.00
H348   H     0.12183   0.51117   0.79944   0.00000  Uiso   1.00
H349   H     0.22013   0.15745   0.79941   0.00000  Uiso   1.00
H350   H     0.29467   0.48627   0.08061   0.00000  Uiso   1.00
H351   H     0.02302   0.65285   0.75459   0.00000  Uiso   1.00
H352   H     0.23032   0.90698   0.75453   0.00000  Uiso   1.00
H353   H     0.04389   0.17820   0.97805   0.00000  Uiso   1.00
H354   H     0.09290   0.23840   0.08452   0.00000  Uiso   1.00
H355   H     0.96407   0.31742   0.92991   0.00000  Uiso   1.00
H356   H     0.06237   0.96371   0.92988   0.00000  Uiso   1.00
H357   H     0.16662   0.32901   0.18651   0.00000  Uiso   1.00
H358   H     0.89498   0.49560   0.86049   0.00000  Uiso   1.00
H359   H     0.10227   0.74973   0.86042   0.00000  Uiso   1.00
O360   O     0.26557   0.45059   0.20137   0.00000  Uiso   1.00
O361   O     0.90918   0.66913   0.77363   0.00000  Uiso   1.00
O362   O     0.18115   0.69056   0.77355   0.00000  Uiso   1.00
N363   N     0.25781   0.44097   0.09093   0.00000  Uiso   1.00
N364   N     0.00384   0.59674   0.78612   0.00000  Uiso   1.00
N365   N     0.19763   0.89941   0.78605   0.00000  Uiso   1.00
N366   N     0.18891   0.35636   0.14791   0.00000  Uiso   1.00
N367   N     0.93494   0.51212   0.84310   0.00000  Uiso   1.00
N368   N     0.12873   0.81480   0.84303   0.00000  Uiso   1.00
