data_job_04303
_audit_creation_date              2018-12-19
_audit_creation_method            'Materials Studio'
_symmetry_space_group_name_H-M    'P1'
_symmetry_Int_Tables_number       1
_symmetry_cell_setting            triclinic
loop_
_symmetry_equiv_pos_as_xyz
  x,y,z
_cell_length_a                    41.3381
_cell_length_b                    7.2733
_cell_length_c                    23.5199
_cell_angle_alpha                 90.0000
_cell_angle_beta                  84.3660
_cell_angle_gamma                 90.0000
loop_
_atom_site_label
_atom_site_type_symbol
_atom_site_fract_x
_atom_site_fract_y
_atom_site_fract_z
_atom_site_U_iso_or_equiv
_atom_site_adp_type
_atom_site_occupancy
C1     C     0.41017   0.42970   0.47724   0.00000  Uiso   1.00
C2     C     0.43127   0.51067   0.52066   0.00000  Uiso   1.00
C3     C     0.44900   0.41084   0.55717   0.00000  Uiso   1.00
C4     C     0.46676   0.51049   0.59374   0.00000  Uiso   1.00
C5     C     0.49951   0.60693   0.66118   0.00000  Uiso   1.00
C6     C     0.37632   0.51070   0.49151   0.00000  Uiso   1.00
C7     C     0.34785   0.41088   0.50351   0.00000  Uiso   1.00
C8     C     0.31936   0.51056   0.51552   0.00000  Uiso   1.00
C9     C     0.26679   0.60703   0.53766   0.00000  Uiso   1.00
C10    C     0.42292   0.51065   0.41955   0.00000  Uiso   1.00
C11    C     0.43362   0.41081   0.37103   0.00000  Uiso   1.00
C12    C     0.44435   0.51045   0.32246   0.00000  Uiso   1.00
C13    C     0.46414   0.60686   0.23287   0.00000  Uiso   1.00
C14    C     0.41017   0.78418   0.47723   0.00000  Uiso   1.00
C15    C     0.43127   0.70321   0.52065   0.00000  Uiso   1.00
C16    C     0.44901   0.80304   0.55717   0.00000  Uiso   1.00
C17    C     0.46676   0.70338   0.59373   0.00000  Uiso   1.00
C18    C     0.37632   0.70323   0.49150   0.00000  Uiso   1.00
C19    C     0.34786   0.80308   0.50350   0.00000  Uiso   1.00
C20    C     0.31936   0.70344   0.51551   0.00000  Uiso   1.00
C21    C     0.42292   0.70319   0.41954   0.00000  Uiso   1.00
C22    C     0.43363   0.80301   0.37103   0.00000  Uiso   1.00
C23    C     0.44436   0.70334   0.32245   0.00000  Uiso   1.00
H24    H     0.41016   0.27980   0.47724   0.00000  Uiso   1.00
H25    H     0.44899   0.26184   0.55717   0.00000  Uiso   1.00
H26    H     0.34786   0.26188   0.50350   0.00000  Uiso   1.00
H27    H     0.43362   0.26182   0.37105   0.00000  Uiso   1.00
H28    H     0.49203   0.32684   0.64580   0.00000  Uiso   1.00
H29    H     0.27878   0.32693   0.53262   0.00000  Uiso   1.00
H30    H     0.45963   0.32678   0.25332   0.00000  Uiso   1.00
H31    H     0.41017   0.93409   0.47723   0.00000  Uiso   1.00
H32    H     0.44900   0.95204   0.55715   0.00000  Uiso   1.00
H33    H     0.34787   0.95207   0.50349   0.00000  Uiso   1.00
H34    H     0.43363   0.95200   0.37104   0.00000  Uiso   1.00
H35    H     0.49204   0.88703   0.64578   0.00000  Uiso   1.00
H36    H     0.27879   0.88712   0.53260   0.00000  Uiso   1.00
H37    H     0.45964   0.88697   0.25331   0.00000  Uiso   1.00
O38    O     0.51757   0.60693   0.69838   0.00000  Uiso   1.00
O39    O     0.23780   0.60705   0.54988   0.00000  Uiso   1.00
O40    O     0.47506   0.60685   0.18346   0.00000  Uiso   1.00
N41    N     0.48671   0.45622   0.63482   0.00000  Uiso   1.00
N42    N     0.28734   0.45630   0.52901   0.00000  Uiso   1.00
N43    N     0.45640   0.45616   0.26789   0.00000  Uiso   1.00
N44    N     0.48671   0.75765   0.63481   0.00000  Uiso   1.00
N45    N     0.28734   0.75773   0.52900   0.00000  Uiso   1.00
N46    N     0.45641   0.75759   0.26788   0.00000  Uiso   1.00
C47    C     0.91355   0.92897   0.90703   0.00000  Uiso   1.00
C48    C     0.93267   0.00992   0.95333   0.00000  Uiso   1.00
C49    C     0.94872   0.91007   0.99226   0.00000  Uiso   1.00
C50    C     0.96481   0.00969   0.03124   0.00000  Uiso   1.00
C51    C     0.99448   0.10609   0.10314   0.00000  Uiso   1.00
C52    C     0.87945   0.01004   0.91707   0.00000  Uiso   1.00
C53    C     0.85076   0.91028   0.92551   0.00000  Uiso   1.00
C54    C     0.82205   0.01001   0.93395   0.00000  Uiso   1.00
C55    C     0.76909   0.10659   0.94951   0.00000  Uiso   1.00
C56    C     0.92856   0.00989   0.85070   0.00000  Uiso   1.00
C57    C     0.94115   0.91002   0.80333   0.00000  Uiso   1.00
C58    C     0.95378   0.00963   0.75589   0.00000  Uiso   1.00
C59    C     0.97706   0.10598   0.66842   0.00000  Uiso   1.00
C60    C     0.91358   0.28346   0.90702   0.00000  Uiso   1.00
C61    C     0.93268   0.20246   0.95332   0.00000  Uiso   1.00
C62    C     0.94875   0.30226   0.99224   0.00000  Uiso   1.00
C63    C     0.96483   0.20258   0.03123   0.00000  Uiso   1.00
C64    C     0.87946   0.20257   0.91706   0.00000  Uiso   1.00
C65    C     0.85079   0.30247   0.92549   0.00000  Uiso   1.00
C66    C     0.82206   0.20290   0.93394   0.00000  Uiso   1.00
C67    C     0.92857   0.20243   0.85069   0.00000  Uiso   1.00
C68    C     0.94118   0.30221   0.80331   0.00000  Uiso   1.00
C69    C     0.95379   0.20251   0.75588   0.00000  Uiso   1.00
H70    H     0.91354   0.77908   0.90704   0.00000  Uiso   1.00
H71    H     0.94870   0.76106   0.99226   0.00000  Uiso   1.00
H72    H     0.85076   0.76128   0.92551   0.00000  Uiso   1.00
H73    H     0.94113   0.76102   0.80335   0.00000  Uiso   1.00
H74    H     0.98768   0.82601   0.08675   0.00000  Uiso   1.00
H75    H     0.78116   0.82646   0.94598   0.00000  Uiso   1.00
H76    H     0.97173   0.82591   0.68839   0.00000  Uiso   1.00
H77    H     0.91359   0.43336   0.90701   0.00000  Uiso   1.00
H78    H     0.94876   0.45126   0.99223   0.00000  Uiso   1.00
H79    H     0.85081   0.45147   0.92547   0.00000  Uiso   1.00
H80    H     0.94119   0.45121   0.80332   0.00000  Uiso   1.00
H81    H     0.98773   0.38620   0.08673   0.00000  Uiso   1.00
H82    H     0.78120   0.38665   0.94595   0.00000  Uiso   1.00
H83    H     0.97178   0.38610   0.68837   0.00000  Uiso   1.00
O84    O     0.01083   0.10607   0.14281   0.00000  Uiso   1.00
O85    O     0.73988   0.10666   0.95811   0.00000  Uiso   1.00
O86    O     0.98991   0.10594   0.62017   0.00000  Uiso   1.00
N87    N     0.98287   0.95539   0.07504   0.00000  Uiso   1.00
N88    N     0.78978   0.95581   0.94344   0.00000  Uiso   1.00
N89    N     0.96795   0.95530   0.70261   0.00000  Uiso   1.00
N90    N     0.98290   0.25683   0.07503   0.00000  Uiso   1.00
N91    N     0.78981   0.25725   0.94342   0.00000  Uiso   1.00
N92    N     0.96797   0.25673   0.70260   0.00000  Uiso   1.00
C93    C     0.41017   0.28404   0.97720   0.00000  Uiso   1.00
C94    C     0.42293   0.20309   0.91951   0.00000  Uiso   1.00
C95    C     0.43365   0.30293   0.87101   0.00000  Uiso   1.00
C96    C     0.44438   0.20331   0.82244   0.00000  Uiso   1.00
C97    C     0.46418   0.10690   0.73285   0.00000  Uiso   1.00
C98    C     0.37632   0.20302   0.99146   0.00000  Uiso   1.00
C99    C     0.34785   0.30281   0.00345   0.00000  Uiso   1.00
C100   C     0.31935   0.20312   0.01545   0.00000  Uiso   1.00
C101   C     0.26679   0.10661   0.03760   0.00000  Uiso   1.00
C102   C     0.43126   0.20308   0.02063   0.00000  Uiso   1.00
C103   C     0.44898   0.30292   0.05717   0.00000  Uiso   1.00
C104   C     0.46674   0.20328   0.09374   0.00000  Uiso   1.00
C105   C     0.49948   0.10687   0.16119   0.00000  Uiso   1.00
C106   C     0.41018   0.92955   0.97720   0.00000  Uiso   1.00
C107   C     0.42293   0.01054   0.91951   0.00000  Uiso   1.00
C108   C     0.43366   0.91074   0.87100   0.00000  Uiso   1.00
C109   C     0.44439   0.01042   0.82243   0.00000  Uiso   1.00
C110   C     0.37632   0.01049   0.99145   0.00000  Uiso   1.00
C111   C     0.34786   0.91062   0.00344   0.00000  Uiso   1.00
C112   C     0.31936   0.01023   0.01545   0.00000  Uiso   1.00
C113   C     0.43127   0.01054   0.02063   0.00000  Uiso   1.00
C114   C     0.44900   0.91072   0.05716   0.00000  Uiso   1.00
C115   C     0.46674   0.01039   0.09374   0.00000  Uiso   1.00
H116   H     0.41016   0.43394   0.97721   0.00000  Uiso   1.00
H117   H     0.43363   0.45194   0.87103   0.00000  Uiso   1.00
H118   H     0.34785   0.45181   0.00346   0.00000  Uiso   1.00
H119   H     0.44897   0.45192   0.05716   0.00000  Uiso   1.00
H120   H     0.45965   0.38698   0.75330   0.00000  Uiso   1.00
H121   H     0.27878   0.38672   0.03255   0.00000  Uiso   1.00
H122   H     0.49200   0.38695   0.14580   0.00000  Uiso   1.00
H123   H     0.41018   0.77965   0.97719   0.00000  Uiso   1.00
H124   H     0.43366   0.76174   0.87101   0.00000  Uiso   1.00
H125   H     0.34788   0.76162   0.00344   0.00000  Uiso   1.00
H126   H     0.44900   0.76173   0.05714   0.00000  Uiso   1.00
H127   H     0.45967   0.82679   0.75329   0.00000  Uiso   1.00
H128   H     0.27880   0.82654   0.03254   0.00000  Uiso   1.00
H129   H     0.49202   0.82676   0.14578   0.00000  Uiso   1.00
O130   O     0.47510   0.10691   0.68344   0.00000  Uiso   1.00
O131   O     0.23780   0.10658   0.04982   0.00000  Uiso   1.00
O132   O     0.51755   0.10687   0.19839   0.00000  Uiso   1.00
N133   N     0.45644   0.25760   0.76787   0.00000  Uiso   1.00
N134   N     0.28734   0.25736   0.02895   0.00000  Uiso   1.00
N135   N     0.48668   0.25757   0.13483   0.00000  Uiso   1.00
N136   N     0.45645   0.95616   0.76787   0.00000  Uiso   1.00
N137   N     0.28735   0.95593   0.02894   0.00000  Uiso   1.00
N138   N     0.48669   0.95614   0.13483   0.00000  Uiso   1.00
C139   C     0.91360   0.78360   0.40699   0.00000  Uiso   1.00
C140   C     0.92859   0.70258   0.35067   0.00000  Uiso   1.00
C141   C     0.94122   0.80236   0.30331   0.00000  Uiso   1.00
C142   C     0.95384   0.70268   0.25588   0.00000  Uiso   1.00
C143   C     0.97711   0.60616   0.16841   0.00000  Uiso   1.00
C144   C     0.87948   0.70278   0.41701   0.00000  Uiso   1.00
C145   C     0.85081   0.80274   0.42544   0.00000  Uiso   1.00
C146   C     0.82208   0.70322   0.43387   0.00000  Uiso   1.00
C147   C     0.76910   0.60702   0.44944   0.00000  Uiso   1.00
C148   C     0.93268   0.70252   0.45330   0.00000  Uiso   1.00
C149   C     0.94875   0.80225   0.49225   0.00000  Uiso   1.00
C150   C     0.96481   0.70251   0.53125   0.00000  Uiso   1.00
C151   C     0.99444   0.60590   0.60316   0.00000  Uiso   1.00
C152   C     0.91354   0.42912   0.40699   0.00000  Uiso   1.00
C153   C     0.92856   0.51004   0.35067   0.00000  Uiso   1.00
C154   C     0.94116   0.41017   0.30330   0.00000  Uiso   1.00
C155   C     0.95381   0.50979   0.25588   0.00000  Uiso   1.00
C156   C     0.87945   0.51025   0.41701   0.00000  Uiso   1.00
C157   C     0.85075   0.41055   0.42544   0.00000  Uiso   1.00
C158   C     0.82205   0.51033   0.43387   0.00000  Uiso   1.00
C159   C     0.93266   0.50998   0.45330   0.00000  Uiso   1.00
C160   C     0.94869   0.41006   0.49225   0.00000  Uiso   1.00
C161   C     0.96478   0.50962   0.53125   0.00000  Uiso   1.00
H162   H     0.91362   0.93350   0.40700   0.00000  Uiso   1.00
H163   H     0.94124   0.95137   0.30332   0.00000  Uiso   1.00
H164   H     0.85084   0.95174   0.42544   0.00000  Uiso   1.00
H165   H     0.94876   0.95125   0.49224   0.00000  Uiso   1.00
H166   H     0.97183   0.88627   0.18837   0.00000  Uiso   1.00
H167   H     0.78122   0.88706   0.44589   0.00000  Uiso   1.00
H168   H     0.98772   0.88602   0.58675   0.00000  Uiso   1.00
H169   H     0.91352   0.27921   0.40699   0.00000  Uiso   1.00
H170   H     0.94114   0.26117   0.30331   0.00000  Uiso   1.00
H171   H     0.85074   0.26155   0.42543   0.00000  Uiso   1.00
H172   H     0.94866   0.26106   0.49223   0.00000  Uiso   1.00
H173   H     0.97175   0.32608   0.18836   0.00000  Uiso   1.00
H174   H     0.78114   0.32687   0.44588   0.00000  Uiso   1.00
H175   H     0.98764   0.32584   0.58674   0.00000  Uiso   1.00
O176   O     0.98995   0.60611   0.12016   0.00000  Uiso   1.00
O177   O     0.73988   0.60715   0.45802   0.00000  Uiso   1.00
O178   O     0.01080   0.60580   0.64283   0.00000  Uiso   1.00
N179   N     0.96803   0.75690   0.20260   0.00000  Uiso   1.00
N180   N     0.78982   0.75764   0.44336   0.00000  Uiso   1.00
N181   N     0.98287   0.75668   0.57506   0.00000  Uiso   1.00
N182   N     0.96799   0.45547   0.20260   0.00000  Uiso   1.00
N183   N     0.78978   0.45621   0.44335   0.00000  Uiso   1.00
N184   N     0.98283   0.45524   0.57506   0.00000  Uiso   1.00
C185   C     0.58983   0.92970   0.52276   0.00000  Uiso   1.00
C186   C     0.56873   0.01067   0.47934   0.00000  Uiso   1.00
C187   C     0.55100   0.91084   0.44283   0.00000  Uiso   1.00
C188   C     0.53324   0.01049   0.40626   0.00000  Uiso   1.00
C189   C     0.50049   0.10693   0.33882   0.00000  Uiso   1.00
C190   C     0.62368   0.01070   0.50849   0.00000  Uiso   1.00
C191   C     0.65215   0.91088   0.49649   0.00000  Uiso   1.00
C192   C     0.68064   0.01056   0.48448   0.00000  Uiso   1.00
C193   C     0.73321   0.10703   0.46234   0.00000  Uiso   1.00
C194   C     0.57708   0.01065   0.58045   0.00000  Uiso   1.00
C195   C     0.56638   0.91081   0.62897   0.00000  Uiso   1.00
C196   C     0.55565   0.01045   0.67754   0.00000  Uiso   1.00
C197   C     0.53586   0.10686   0.76713   0.00000  Uiso   1.00
C198   C     0.58983   0.28418   0.52277   0.00000  Uiso   1.00
C199   C     0.56873   0.20321   0.47935   0.00000  Uiso   1.00
C200   C     0.55099   0.30304   0.44283   0.00000  Uiso   1.00
C201   C     0.53324   0.20338   0.40627   0.00000  Uiso   1.00
C202   C     0.62368   0.20323   0.50850   0.00000  Uiso   1.00
C203   C     0.65214   0.30308   0.49650   0.00000  Uiso   1.00
C204   C     0.68064   0.20344   0.48449   0.00000  Uiso   1.00
C205   C     0.57708   0.20319   0.58046   0.00000  Uiso   1.00
C206   C     0.56637   0.30301   0.62897   0.00000  Uiso   1.00
C207   C     0.55564   0.20334   0.67755   0.00000  Uiso   1.00
H208   H     0.58984   0.77980   0.52276   0.00000  Uiso   1.00
H209   H     0.55101   0.76184   0.44283   0.00000  Uiso   1.00
H210   H     0.65214   0.76188   0.49650   0.00000  Uiso   1.00
H211   H     0.56638   0.76182   0.62895   0.00000  Uiso   1.00
H212   H     0.50797   0.82684   0.35420   0.00000  Uiso   1.00
H213   H     0.72122   0.82693   0.46738   0.00000  Uiso   1.00
H214   H     0.54037   0.82678   0.74668   0.00000  Uiso   1.00
H215   H     0.58983   0.43409   0.52277   0.00000  Uiso   1.00
H216   H     0.55100   0.45204   0.44285   0.00000  Uiso   1.00
H217   H     0.65213   0.45207   0.49651   0.00000  Uiso   1.00
H218   H     0.56637   0.45200   0.62896   0.00000  Uiso   1.00
H219   H     0.50796   0.38703   0.35422   0.00000  Uiso   1.00
H220   H     0.72121   0.38712   0.46740   0.00000  Uiso   1.00
H221   H     0.54036   0.38697   0.74669   0.00000  Uiso   1.00
O222   O     0.48243   0.10693   0.30162   0.00000  Uiso   1.00
O223   O     0.76220   0.10705   0.45012   0.00000  Uiso   1.00
O224   O     0.52494   0.10685   0.81654   0.00000  Uiso   1.00
N225   N     0.51329   0.95622   0.36518   0.00000  Uiso   1.00
N226   N     0.71266   0.95630   0.47099   0.00000  Uiso   1.00
N227   N     0.54360   0.95616   0.73211   0.00000  Uiso   1.00
N228   N     0.51329   0.25765   0.36519   0.00000  Uiso   1.00
N229   N     0.71266   0.25773   0.47100   0.00000  Uiso   1.00
N230   N     0.54359   0.25759   0.73212   0.00000  Uiso   1.00
C231   C     0.08645   0.42897   0.09297   0.00000  Uiso   1.00
C232   C     0.06733   0.50992   0.04667   0.00000  Uiso   1.00
C233   C     0.05128   0.41007   0.00774   0.00000  Uiso   1.00
C234   C     0.03519   0.50969   0.96876   0.00000  Uiso   1.00
C235   C     0.00552   0.60609   0.89686   0.00000  Uiso   1.00
C236   C     0.12055   0.51004   0.08293   0.00000  Uiso   1.00
C237   C     0.14924   0.41028   0.07449   0.00000  Uiso   1.00
C238   C     0.17795   0.51001   0.06605   0.00000  Uiso   1.00
C239   C     0.23091   0.60659   0.05049   0.00000  Uiso   1.00
C240   C     0.07144   0.50989   0.14930   0.00000  Uiso   1.00
C241   C     0.05885   0.41002   0.19667   0.00000  Uiso   1.00
C242   C     0.04622   0.50963   0.24411   0.00000  Uiso   1.00
C243   C     0.02294   0.60598   0.33158   0.00000  Uiso   1.00
C244   C     0.08642   0.78346   0.09298   0.00000  Uiso   1.00
C245   C     0.06732   0.70246   0.04668   0.00000  Uiso   1.00
C246   C     0.05125   0.80226   0.00776   0.00000  Uiso   1.00
C247   C     0.03517   0.70258   0.96877   0.00000  Uiso   1.00
C248   C     0.12054   0.70257   0.08294   0.00000  Uiso   1.00
C249   C     0.14921   0.80247   0.07451   0.00000  Uiso   1.00
C250   C     0.17794   0.70290   0.06606   0.00000  Uiso   1.00
C251   C     0.07143   0.70243   0.14931   0.00000  Uiso   1.00
C252   C     0.05882   0.80221   0.19669   0.00000  Uiso   1.00
C253   C     0.04621   0.70251   0.24412   0.00000  Uiso   1.00
H254   H     0.08646   0.27908   0.09296   0.00000  Uiso   1.00
H255   H     0.05130   0.26106   0.00774   0.00000  Uiso   1.00
H256   H     0.14924   0.26128   0.07449   0.00000  Uiso   1.00
H257   H     0.05887   0.26102   0.19665   0.00000  Uiso   1.00
H258   H     0.01232   0.32601   0.91325   0.00000  Uiso   1.00
H259   H     0.21884   0.32646   0.05402   0.00000  Uiso   1.00
H260   H     0.02827   0.32591   0.31161   0.00000  Uiso   1.00
H261   H     0.08641   0.93336   0.09299   0.00000  Uiso   1.00
H262   H     0.05124   0.95126   0.00777   0.00000  Uiso   1.00
H263   H     0.14919   0.95147   0.07453   0.00000  Uiso   1.00
H264   H     0.05881   0.95121   0.19668   0.00000  Uiso   1.00
H265   H     0.01227   0.88620   0.91327   0.00000  Uiso   1.00
H266   H     0.21880   0.88665   0.05405   0.00000  Uiso   1.00
H267   H     0.02822   0.88610   0.31163   0.00000  Uiso   1.00
O268   O     0.98917   0.60607   0.85719   0.00000  Uiso   1.00
O269   O     0.26012   0.60666   0.04189   0.00000  Uiso   1.00
O270   O     0.01009   0.60594   0.37983   0.00000  Uiso   1.00
N271   N     0.01713   0.45539   0.92496   0.00000  Uiso   1.00
N272   N     0.21022   0.45581   0.05656   0.00000  Uiso   1.00
N273   N     0.03205   0.45530   0.29739   0.00000  Uiso   1.00
N274   N     0.01710   0.75683   0.92497   0.00000  Uiso   1.00
N275   N     0.21019   0.75725   0.05658   0.00000  Uiso   1.00
N276   N     0.03203   0.75673   0.29740   0.00000  Uiso   1.00
C277   C     0.58983   0.78404   0.02280   0.00000  Uiso   1.00
C278   C     0.57707   0.70309   0.08049   0.00000  Uiso   1.00
C279   C     0.56635   0.80293   0.12899   0.00000  Uiso   1.00
C280   C     0.55562   0.70331   0.17756   0.00000  Uiso   1.00
C281   C     0.53582   0.60690   0.26715   0.00000  Uiso   1.00
C282   C     0.62368   0.70302   0.00854   0.00000  Uiso   1.00
C283   C     0.65215   0.80281   0.99655   0.00000  Uiso   1.00
C284   C     0.68065   0.70312   0.98455   0.00000  Uiso   1.00
C285   C     0.73321   0.60661   0.96240   0.00000  Uiso   1.00
C286   C     0.56874   0.70308   0.97937   0.00000  Uiso   1.00
C287   C     0.55102   0.80292   0.94283   0.00000  Uiso   1.00
C288   C     0.53326   0.70328   0.90626   0.00000  Uiso   1.00
C289   C     0.50052   0.60687   0.83881   0.00000  Uiso   1.00
C290   C     0.58982   0.42955   0.02280   0.00000  Uiso   1.00
C291   C     0.57707   0.51054   0.08049   0.00000  Uiso   1.00
C292   C     0.56634   0.41074   0.12900   0.00000  Uiso   1.00
C293   C     0.55561   0.51042   0.17757   0.00000  Uiso   1.00
C294   C     0.62368   0.51049   0.00855   0.00000  Uiso   1.00
C295   C     0.65214   0.41062   0.99656   0.00000  Uiso   1.00
C296   C     0.68064   0.51023   0.98455   0.00000  Uiso   1.00
C297   C     0.56873   0.51054   0.97937   0.00000  Uiso   1.00
C298   C     0.55100   0.41072   0.94284   0.00000  Uiso   1.00
C299   C     0.53326   0.51039   0.90626   0.00000  Uiso   1.00
H300   H     0.58984   0.93394   0.02279   0.00000  Uiso   1.00
H301   H     0.56637   0.95194   0.12897   0.00000  Uiso   1.00
H302   H     0.65215   0.95181   0.99654   0.00000  Uiso   1.00
H303   H     0.55103   0.95192   0.94284   0.00000  Uiso   1.00
H304   H     0.54035   0.88698   0.24670   0.00000  Uiso   1.00
H305   H     0.72122   0.88672   0.96745   0.00000  Uiso   1.00
H306   H     0.50800   0.88695   0.85420   0.00000  Uiso   1.00
H307   H     0.58982   0.27965   0.02281   0.00000  Uiso   1.00
H308   H     0.56634   0.26174   0.12899   0.00000  Uiso   1.00
H309   H     0.65212   0.26162   0.99656   0.00000  Uiso   1.00
H310   H     0.55100   0.26173   0.94286   0.00000  Uiso   1.00
H311   H     0.54033   0.32679   0.24671   0.00000  Uiso   1.00
H312   H     0.72120   0.32654   0.96746   0.00000  Uiso   1.00
H313   H     0.50798   0.32676   0.85422   0.00000  Uiso   1.00
O314   O     0.52490   0.60691   0.31656   0.00000  Uiso   1.00
O315   O     0.76220   0.60658   0.95018   0.00000  Uiso   1.00
O316   O     0.48245   0.60687   0.80161   0.00000  Uiso   1.00
N317   N     0.54356   0.75760   0.23213   0.00000  Uiso   1.00
N318   N     0.71266   0.75736   0.97105   0.00000  Uiso   1.00
N319   N     0.51332   0.75757   0.86517   0.00000  Uiso   1.00
N320   N     0.54355   0.45616   0.23213   0.00000  Uiso   1.00
N321   N     0.71265   0.45593   0.97106   0.00000  Uiso   1.00
N322   N     0.51331   0.45614   0.86517   0.00000  Uiso   1.00
C323   C     0.08640   0.28360   0.59301   0.00000  Uiso   1.00
C324   C     0.07141   0.20258   0.64933   0.00000  Uiso   1.00
C325   C     0.05878   0.30236   0.69669   0.00000  Uiso   1.00
C326   C     0.04616   0.20268   0.74412   0.00000  Uiso   1.00
C327   C     0.02289   0.10616   0.83159   0.00000  Uiso   1.00
C328   C     0.12052   0.20278   0.58299   0.00000  Uiso   1.00
C329   C     0.14919   0.30274   0.57456   0.00000  Uiso   1.00
C330   C     0.17792   0.20322   0.56613   0.00000  Uiso   1.00
C331   C     0.23090   0.10702   0.55056   0.00000  Uiso   1.00
C332   C     0.06732   0.20252   0.54670   0.00000  Uiso   1.00
C333   C     0.05125   0.30225   0.50775   0.00000  Uiso   1.00
C334   C     0.03519   0.20251   0.46875   0.00000  Uiso   1.00
C335   C     0.00556   0.10590   0.39684   0.00000  Uiso   1.00
C336   C     0.08646   0.92912   0.59301   0.00000  Uiso   1.00
C337   C     0.07144   0.01004   0.64933   0.00000  Uiso   1.00
C338   C     0.05884   0.91017   0.69670   0.00000  Uiso   1.00
C339   C     0.04619   0.00979   0.74412   0.00000  Uiso   1.00
C340   C     0.12055   0.01025   0.58299   0.00000  Uiso   1.00
C341   C     0.14925   0.91055   0.57456   0.00000  Uiso   1.00
C342   C     0.17795   0.01033   0.56613   0.00000  Uiso   1.00
C343   C     0.06734   0.00998   0.54670   0.00000  Uiso   1.00
C344   C     0.05131   0.91006   0.50775   0.00000  Uiso   1.00
C345   C     0.03522   0.00962   0.46875   0.00000  Uiso   1.00
H346   H     0.08638   0.43350   0.59300   0.00000  Uiso   1.00
H347   H     0.05876   0.45137   0.69668   0.00000  Uiso   1.00
H348   H     0.14916   0.45174   0.57456   0.00000  Uiso   1.00
H349   H     0.05124   0.45125   0.50776   0.00000  Uiso   1.00
H350   H     0.02817   0.38627   0.81163   0.00000  Uiso   1.00
H351   H     0.21878   0.38706   0.55411   0.00000  Uiso   1.00
H352   H     0.01228   0.38602   0.41325   0.00000  Uiso   1.00
H353   H     0.08648   0.77921   0.59301   0.00000  Uiso   1.00
H354   H     0.05886   0.76117   0.69669   0.00000  Uiso   1.00
H355   H     0.14926   0.76155   0.57457   0.00000  Uiso   1.00
H356   H     0.05134   0.76106   0.50777   0.00000  Uiso   1.00
H357   H     0.02825   0.82608   0.81164   0.00000  Uiso   1.00
H358   H     0.21886   0.82687   0.55412   0.00000  Uiso   1.00
H359   H     0.01236   0.82584   0.41326   0.00000  Uiso   1.00
O360   O     0.01005   0.10611   0.87984   0.00000  Uiso   1.00
O361   O     0.26012   0.10715   0.54198   0.00000  Uiso   1.00
O362   O     0.98920   0.10580   0.35717   0.00000  Uiso   1.00
N363   N     0.03197   0.25690   0.79740   0.00000  Uiso   1.00
N364   N     0.21018   0.25764   0.55664   0.00000  Uiso   1.00
N365   N     0.01713   0.25668   0.42494   0.00000  Uiso   1.00
N366   N     0.03201   0.95547   0.79740   0.00000  Uiso   1.00
N367   N     0.21022   0.95621   0.55665   0.00000  Uiso   1.00
N368   N     0.01717   0.95524   0.42494   0.00000  Uiso   1.00
