data_job_02881
_audit_creation_date              2018-12-19
_audit_creation_method            'Materials Studio'
_symmetry_space_group_name_H-M    'P1'
_symmetry_Int_Tables_number       1
_symmetry_cell_setting            triclinic
loop_
_symmetry_equiv_pos_as_xyz
  x,y,z
_cell_length_a                    19.0542
_cell_length_b                    12.8772
_cell_length_c                    24.9757
_cell_angle_alpha                 90.0000
_cell_angle_beta                  90.0000
_cell_angle_gamma                 90.0000
loop_
_atom_site_label
_atom_site_type_symbol
_atom_site_fract_x
_atom_site_fract_y
_atom_site_fract_z
_atom_site_U_iso_or_equiv
_atom_site_adp_type
_atom_site_occupancy
C1     C     0.96603   0.91091   0.85949   0.00000  Uiso   1.00
C2     C     0.03304   0.95920   0.88173   0.00000  Uiso   1.00
C3     C     0.03853   0.05691   0.90479   0.00000  Uiso   1.00
C4     C     0.10448   0.08686   0.92269   0.00000  Uiso   1.00
C5     C     0.19967   0.17181   0.95795   0.00000  Uiso   1.00
C6     C     0.98198   0.88278   0.80145   0.00000  Uiso   1.00
C7     C     0.94454   0.91622   0.75701   0.00000  Uiso   1.00
C8     C     0.96751   0.88183   0.70732   0.00000  Uiso   1.00
C9     C     0.98340   0.84807   0.61795   0.00000  Uiso   1.00
C10    C     0.95663   0.80815   0.88897   0.00000  Uiso   1.00
C11    C     0.89786   0.77883   0.91811   0.00000  Uiso   1.00
C12    C     0.89948   0.68159   0.94210   0.00000  Uiso   1.00
C13    C     0.87600   0.53197   0.98862   0.00000  Uiso   1.00
C14    C     0.07338   0.79035   0.85026   0.00000  Uiso   1.00
C15    C     0.09135   0.89371   0.87671   0.00000  Uiso   1.00
C16    C     0.15730   0.92352   0.89458   0.00000  Uiso   1.00
C17    C     0.16290   0.02125   0.91767   0.00000  Uiso   1.00
C18    C     0.04029   0.81729   0.79643   0.00000  Uiso   1.00
C19    C     0.06331   0.78283   0.74680   0.00000  Uiso   1.00
C20    C     0.02592   0.81622   0.70230   0.00000  Uiso   1.00
C21    C     0.01494   0.74266   0.88396   0.00000  Uiso   1.00
C22    C     0.01664   0.64544   0.90790   0.00000  Uiso   1.00
C23    C     0.95789   0.61599   0.93708   0.00000  Uiso   1.00
H24    H     0.92063   0.96190   0.86339   0.00000  Uiso   1.00
H25    H     0.99340   0.10757   0.90866   0.00000  Uiso   1.00
H26    H     0.89942   0.96689   0.76090   0.00000  Uiso   1.00
H27    H     0.85275   0.82953   0.92198   0.00000  Uiso   1.00
H28    H     0.09979   0.24021   0.95662   0.00000  Uiso   1.00
H29    H     0.90162   0.94356   0.64507   0.00000  Uiso   1.00
H30    H     0.80321   0.65390   0.98473   0.00000  Uiso   1.00
H31    H     0.11877   0.73936   0.84636   0.00000  Uiso   1.00
H32    H     0.20242   0.87282   0.89070   0.00000  Uiso   1.00
H33    H     0.10844   0.73215   0.74294   0.00000  Uiso   1.00
H34    H     0.06177   0.59479   0.90401   0.00000  Uiso   1.00
H35    H     0.26944   0.04968   0.94204   0.00000  Uiso   1.00
H36    H     0.07126   0.75303   0.63048   0.00000  Uiso   1.00
H37    H     0.97286   0.46337   0.97015   0.00000  Uiso   1.00
O38    O     0.23607   0.23677   0.97879   0.00000  Uiso   1.00
O39    O     0.97606   0.84756   0.57004   0.00000  Uiso   1.00
O40    O     0.84695   0.46754   0.01567   0.00000  Uiso   1.00
N41    N     0.12824   0.17704   0.94711   0.00000  Uiso   1.00
N42    N     0.94296   0.89971   0.65583   0.00000  Uiso   1.00
N43    N     0.85095   0.62889   0.97337   0.00000  Uiso   1.00
N44    N     0.21952   0.07452   0.93927   0.00000  Uiso   1.00
N45    N     0.03425   0.79719   0.64798   0.00000  Uiso   1.00
N46    N     0.94224   0.52637   0.96553   0.00000  Uiso   1.00
C47    C     0.53397   0.08909   0.35949   0.00000  Uiso   1.00
C48    C     0.46696   0.04080   0.38173   0.00000  Uiso   1.00
C49    C     0.46147   0.94309   0.40479   0.00000  Uiso   1.00
C50    C     0.39552   0.91314   0.42269   0.00000  Uiso   1.00
C51    C     0.30033   0.82819   0.45795   0.00000  Uiso   1.00
C52    C     0.51802   0.11722   0.30145   0.00000  Uiso   1.00
C53    C     0.55546   0.08378   0.25701   0.00000  Uiso   1.00
C54    C     0.53249   0.11817   0.20732   0.00000  Uiso   1.00
C55    C     0.51660   0.15193   0.11795   0.00000  Uiso   1.00
C56    C     0.54337   0.19185   0.38897   0.00000  Uiso   1.00
C57    C     0.60214   0.22117   0.41811   0.00000  Uiso   1.00
C58    C     0.60052   0.31841   0.44210   0.00000  Uiso   1.00
C59    C     0.62400   0.46803   0.48862   0.00000  Uiso   1.00
C60    C     0.42662   0.20965   0.35026   0.00000  Uiso   1.00
C61    C     0.40865   0.10629   0.37671   0.00000  Uiso   1.00
C62    C     0.34270   0.07648   0.39458   0.00000  Uiso   1.00
C63    C     0.33710   0.97875   0.41767   0.00000  Uiso   1.00
C64    C     0.45971   0.18271   0.29643   0.00000  Uiso   1.00
C65    C     0.43669   0.21717   0.24680   0.00000  Uiso   1.00
C66    C     0.47408   0.18378   0.20230   0.00000  Uiso   1.00
C67    C     0.48506   0.25734   0.38396   0.00000  Uiso   1.00
C68    C     0.48336   0.35456   0.40790   0.00000  Uiso   1.00
C69    C     0.54211   0.38401   0.43708   0.00000  Uiso   1.00
H70    H     0.57937   0.03810   0.36339   0.00000  Uiso   1.00
H71    H     0.50660   0.89243   0.40866   0.00000  Uiso   1.00
H72    H     0.60058   0.03311   0.26090   0.00000  Uiso   1.00
H73    H     0.64725   0.17047   0.42198   0.00000  Uiso   1.00
H74    H     0.40021   0.75979   0.45662   0.00000  Uiso   1.00
H75    H     0.59838   0.05644   0.14507   0.00000  Uiso   1.00
H76    H     0.69679   0.34610   0.48473   0.00000  Uiso   1.00
H77    H     0.38123   0.26064   0.34636   0.00000  Uiso   1.00
H78    H     0.29758   0.12718   0.39070   0.00000  Uiso   1.00
H79    H     0.39156   0.26785   0.24294   0.00000  Uiso   1.00
H80    H     0.43823   0.40521   0.40401   0.00000  Uiso   1.00
H81    H     0.23056   0.95032   0.44204   0.00000  Uiso   1.00
H82    H     0.42874   0.24697   0.13048   0.00000  Uiso   1.00
H83    H     0.52714   0.53663   0.47015   0.00000  Uiso   1.00
O84    O     0.26393   0.76323   0.47879   0.00000  Uiso   1.00
O85    O     0.52394   0.15244   0.07004   0.00000  Uiso   1.00
O86    O     0.65305   0.53246   0.51567   0.00000  Uiso   1.00
N87    N     0.37176   0.82296   0.44711   0.00000  Uiso   1.00
N88    N     0.55704   0.10029   0.15583   0.00000  Uiso   1.00
N89    N     0.64905   0.37111   0.47337   0.00000  Uiso   1.00
N90    N     0.28048   0.92548   0.43927   0.00000  Uiso   1.00
N91    N     0.46575   0.20281   0.14798   0.00000  Uiso   1.00
N92    N     0.55776   0.47363   0.46553   0.00000  Uiso   1.00
C93    C     0.03397   0.41091   0.64051   0.00000  Uiso   1.00
C94    C     0.96696   0.45920   0.61827   0.00000  Uiso   1.00
C95    C     0.96147   0.55691   0.59521   0.00000  Uiso   1.00
C96    C     0.89552   0.58686   0.57731   0.00000  Uiso   1.00
C97    C     0.80033   0.67181   0.54205   0.00000  Uiso   1.00
C98    C     0.01802   0.38278   0.69855   0.00000  Uiso   1.00
C99    C     0.05546   0.41622   0.74299   0.00000  Uiso   1.00
C100   C     0.03249   0.38183   0.79268   0.00000  Uiso   1.00
C101   C     0.01660   0.34807   0.88205   0.00000  Uiso   1.00
C102   C     0.04337   0.30815   0.61103   0.00000  Uiso   1.00
C103   C     0.10214   0.27883   0.58189   0.00000  Uiso   1.00
C104   C     0.10052   0.18159   0.55790   0.00000  Uiso   1.00
C105   C     0.12400   0.03197   0.51138   0.00000  Uiso   1.00
C106   C     0.92662   0.29035   0.64974   0.00000  Uiso   1.00
C107   C     0.90865   0.39371   0.62329   0.00000  Uiso   1.00
C108   C     0.84270   0.42352   0.60542   0.00000  Uiso   1.00
C109   C     0.83710   0.52125   0.58233   0.00000  Uiso   1.00
C110   C     0.95971   0.31729   0.70357   0.00000  Uiso   1.00
C111   C     0.93669   0.28283   0.75320   0.00000  Uiso   1.00
C112   C     0.97408   0.31622   0.79770   0.00000  Uiso   1.00
C113   C     0.98506   0.24266   0.61604   0.00000  Uiso   1.00
C114   C     0.98336   0.14544   0.59210   0.00000  Uiso   1.00
C115   C     0.04211   0.11599   0.56292   0.00000  Uiso   1.00
H116   H     0.07937   0.46190   0.63661   0.00000  Uiso   1.00
H117   H     0.00660   0.60757   0.59134   0.00000  Uiso   1.00
H118   H     0.10058   0.46689   0.73910   0.00000  Uiso   1.00
H119   H     0.14725   0.32953   0.57802   0.00000  Uiso   1.00
H120   H     0.90021   0.74021   0.54338   0.00000  Uiso   1.00
H121   H     0.09838   0.44356   0.85493   0.00000  Uiso   1.00
H122   H     0.19679   0.15390   0.51527   0.00000  Uiso   1.00
H123   H     0.88123   0.23936   0.65364   0.00000  Uiso   1.00
H124   H     0.79758   0.37282   0.60930   0.00000  Uiso   1.00
H125   H     0.89156   0.23215   0.75706   0.00000  Uiso   1.00
H126   H     0.93823   0.09479   0.59599   0.00000  Uiso   1.00
H127   H     0.73056   0.54968   0.55796   0.00000  Uiso   1.00
H128   H     0.92874   0.25303   0.86952   0.00000  Uiso   1.00
H129   H     0.02714   0.96337   0.52985   0.00000  Uiso   1.00
O130   O     0.76393   0.73677   0.52121   0.00000  Uiso   1.00
O131   O     0.02394   0.34756   0.92996   0.00000  Uiso   1.00
O132   O     0.15305   0.96754   0.48433   0.00000  Uiso   1.00
N133   N     0.87176   0.67704   0.55289   0.00000  Uiso   1.00
N134   N     0.05704   0.39971   0.84417   0.00000  Uiso   1.00
N135   N     0.14905   0.12889   0.52663   0.00000  Uiso   1.00
N136   N     0.78048   0.57452   0.56073   0.00000  Uiso   1.00
N137   N     0.96575   0.29719   0.85202   0.00000  Uiso   1.00
N138   N     0.05776   0.02637   0.53447   0.00000  Uiso   1.00
C139   C     0.46603   0.58909   0.14051   0.00000  Uiso   1.00
C140   C     0.53304   0.54080   0.11827   0.00000  Uiso   1.00
C141   C     0.53853   0.44309   0.09521   0.00000  Uiso   1.00
C142   C     0.60448   0.41314   0.07731   0.00000  Uiso   1.00
C143   C     0.69967   0.32819   0.04205   0.00000  Uiso   1.00
C144   C     0.48198   0.61722   0.19855   0.00000  Uiso   1.00
C145   C     0.44454   0.58378   0.24299   0.00000  Uiso   1.00
C146   C     0.46751   0.61817   0.29268   0.00000  Uiso   1.00
C147   C     0.48340   0.65193   0.38205   0.00000  Uiso   1.00
C148   C     0.45663   0.69185   0.11103   0.00000  Uiso   1.00
C149   C     0.39786   0.72117   0.08189   0.00000  Uiso   1.00
C150   C     0.39948   0.81841   0.05790   0.00000  Uiso   1.00
C151   C     0.37600   0.96803   0.01138   0.00000  Uiso   1.00
C152   C     0.57338   0.70965   0.14974   0.00000  Uiso   1.00
C153   C     0.59135   0.60629   0.12329   0.00000  Uiso   1.00
C154   C     0.65730   0.57648   0.10542   0.00000  Uiso   1.00
C155   C     0.66290   0.47875   0.08233   0.00000  Uiso   1.00
C156   C     0.54029   0.68271   0.20357   0.00000  Uiso   1.00
C157   C     0.56331   0.71717   0.25320   0.00000  Uiso   1.00
C158   C     0.52592   0.68378   0.29770   0.00000  Uiso   1.00
C159   C     0.51494   0.75734   0.11604   0.00000  Uiso   1.00
C160   C     0.51664   0.85456   0.09210   0.00000  Uiso   1.00
C161   C     0.45789   0.88401   0.06292   0.00000  Uiso   1.00
H162   H     0.42063   0.53810   0.13661   0.00000  Uiso   1.00
H163   H     0.49340   0.39243   0.09134   0.00000  Uiso   1.00
H164   H     0.39942   0.53311   0.23910   0.00000  Uiso   1.00
H165   H     0.35275   0.67047   0.07802   0.00000  Uiso   1.00
H166   H     0.59979   0.25979   0.04338   0.00000  Uiso   1.00
H167   H     0.40162   0.55644   0.35493   0.00000  Uiso   1.00
H168   H     0.30321   0.84610   0.01527   0.00000  Uiso   1.00
H169   H     0.61877   0.76064   0.15364   0.00000  Uiso   1.00
H170   H     0.70242   0.62718   0.10930   0.00000  Uiso   1.00
H171   H     0.60844   0.76785   0.25706   0.00000  Uiso   1.00
H172   H     0.56177   0.90521   0.09599   0.00000  Uiso   1.00
H173   H     0.76944   0.45032   0.05796   0.00000  Uiso   1.00
H174   H     0.57126   0.74697   0.36952   0.00000  Uiso   1.00
H175   H     0.47286   0.03663   0.02985   0.00000  Uiso   1.00
O176   O     0.73607   0.26323   0.02121   0.00000  Uiso   1.00
O177   O     0.47606   0.65244   0.42996   0.00000  Uiso   1.00
O178   O     0.34695   0.03246   0.98433   0.00000  Uiso   1.00
N179   N     0.62824   0.32296   0.05289   0.00000  Uiso   1.00
N180   N     0.44296   0.60029   0.34417   0.00000  Uiso   1.00
N181   N     0.35095   0.87111   0.02663   0.00000  Uiso   1.00
N182   N     0.71952   0.42548   0.06073   0.00000  Uiso   1.00
N183   N     0.53425   0.70281   0.35202   0.00000  Uiso   1.00
N184   N     0.44224   0.97363   0.03447   0.00000  Uiso   1.00
C185   C     0.03397   0.08909   0.14051   0.00000  Uiso   1.00
C186   C     0.96696   0.04080   0.11827   0.00000  Uiso   1.00
C187   C     0.96147   0.94309   0.09521   0.00000  Uiso   1.00
C188   C     0.89552   0.91314   0.07731   0.00000  Uiso   1.00
C189   C     0.80033   0.82819   0.04205   0.00000  Uiso   1.00
C190   C     0.01802   0.11722   0.19855   0.00000  Uiso   1.00
C191   C     0.05546   0.08378   0.24299   0.00000  Uiso   1.00
C192   C     0.03249   0.11817   0.29268   0.00000  Uiso   1.00
C193   C     0.01660   0.15193   0.38205   0.00000  Uiso   1.00
C194   C     0.04337   0.19185   0.11103   0.00000  Uiso   1.00
C195   C     0.10214   0.22117   0.08189   0.00000  Uiso   1.00
C196   C     0.10052   0.31841   0.05790   0.00000  Uiso   1.00
C197   C     0.12400   0.46803   0.01138   0.00000  Uiso   1.00
C198   C     0.92662   0.20965   0.14974   0.00000  Uiso   1.00
C199   C     0.90865   0.10629   0.12329   0.00000  Uiso   1.00
C200   C     0.84270   0.07648   0.10542   0.00000  Uiso   1.00
C201   C     0.83710   0.97875   0.08233   0.00000  Uiso   1.00
C202   C     0.95971   0.18271   0.20357   0.00000  Uiso   1.00
C203   C     0.93669   0.21717   0.25320   0.00000  Uiso   1.00
C204   C     0.97408   0.18378   0.29770   0.00000  Uiso   1.00
C205   C     0.98506   0.25734   0.11604   0.00000  Uiso   1.00
C206   C     0.98336   0.35456   0.09210   0.00000  Uiso   1.00
C207   C     0.04211   0.38401   0.06292   0.00000  Uiso   1.00
H208   H     0.07937   0.03810   0.13661   0.00000  Uiso   1.00
H209   H     0.00660   0.89243   0.09134   0.00000  Uiso   1.00
H210   H     0.10058   0.03311   0.23910   0.00000  Uiso   1.00
H211   H     0.14725   0.17047   0.07802   0.00000  Uiso   1.00
H212   H     0.90021   0.75979   0.04338   0.00000  Uiso   1.00
H213   H     0.09838   0.05644   0.35493   0.00000  Uiso   1.00
H214   H     0.19679   0.34610   0.01527   0.00000  Uiso   1.00
H215   H     0.88123   0.26064   0.15364   0.00000  Uiso   1.00
H216   H     0.79758   0.12718   0.10930   0.00000  Uiso   1.00
H217   H     0.89156   0.26785   0.25706   0.00000  Uiso   1.00
H218   H     0.93823   0.40521   0.09599   0.00000  Uiso   1.00
H219   H     0.73056   0.95032   0.05796   0.00000  Uiso   1.00
H220   H     0.92874   0.24697   0.36952   0.00000  Uiso   1.00
H221   H     0.02714   0.53663   0.02985   0.00000  Uiso   1.00
O222   O     0.76393   0.76323   0.02121   0.00000  Uiso   1.00
O223   O     0.02394   0.15244   0.42996   0.00000  Uiso   1.00
O224   O     0.15305   0.53246   0.98433   0.00000  Uiso   1.00
N225   N     0.87176   0.82296   0.05289   0.00000  Uiso   1.00
N226   N     0.05704   0.10029   0.34417   0.00000  Uiso   1.00
N227   N     0.14905   0.37111   0.02663   0.00000  Uiso   1.00
N228   N     0.78048   0.92548   0.06073   0.00000  Uiso   1.00
N229   N     0.96575   0.20281   0.35202   0.00000  Uiso   1.00
N230   N     0.05776   0.47363   0.03447   0.00000  Uiso   1.00
C231   C     0.46603   0.91091   0.64051   0.00000  Uiso   1.00
C232   C     0.53304   0.95920   0.61827   0.00000  Uiso   1.00
C233   C     0.53853   0.05691   0.59521   0.00000  Uiso   1.00
C234   C     0.60448   0.08686   0.57731   0.00000  Uiso   1.00
C235   C     0.69967   0.17181   0.54205   0.00000  Uiso   1.00
C236   C     0.48198   0.88278   0.69855   0.00000  Uiso   1.00
C237   C     0.44454   0.91622   0.74299   0.00000  Uiso   1.00
C238   C     0.46751   0.88183   0.79268   0.00000  Uiso   1.00
C239   C     0.48340   0.84807   0.88205   0.00000  Uiso   1.00
C240   C     0.45663   0.80815   0.61103   0.00000  Uiso   1.00
C241   C     0.39786   0.77883   0.58189   0.00000  Uiso   1.00
C242   C     0.39948   0.68159   0.55790   0.00000  Uiso   1.00
C243   C     0.37600   0.53197   0.51138   0.00000  Uiso   1.00
C244   C     0.57338   0.79035   0.64974   0.00000  Uiso   1.00
C245   C     0.59135   0.89371   0.62329   0.00000  Uiso   1.00
C246   C     0.65730   0.92352   0.60542   0.00000  Uiso   1.00
C247   C     0.66290   0.02125   0.58233   0.00000  Uiso   1.00
C248   C     0.54029   0.81729   0.70357   0.00000  Uiso   1.00
C249   C     0.56331   0.78283   0.75320   0.00000  Uiso   1.00
C250   C     0.52592   0.81622   0.79770   0.00000  Uiso   1.00
C251   C     0.51494   0.74266   0.61604   0.00000  Uiso   1.00
C252   C     0.51664   0.64544   0.59210   0.00000  Uiso   1.00
C253   C     0.45789   0.61599   0.56292   0.00000  Uiso   1.00
H254   H     0.42063   0.96190   0.63661   0.00000  Uiso   1.00
H255   H     0.49340   0.10757   0.59134   0.00000  Uiso   1.00
H256   H     0.39942   0.96689   0.73910   0.00000  Uiso   1.00
H257   H     0.35275   0.82953   0.57802   0.00000  Uiso   1.00
H258   H     0.59979   0.24021   0.54338   0.00000  Uiso   1.00
H259   H     0.40162   0.94356   0.85493   0.00000  Uiso   1.00
H260   H     0.30321   0.65390   0.51527   0.00000  Uiso   1.00
H261   H     0.61877   0.73936   0.65364   0.00000  Uiso   1.00
H262   H     0.70242   0.87282   0.60930   0.00000  Uiso   1.00
H263   H     0.60844   0.73215   0.75706   0.00000  Uiso   1.00
H264   H     0.56177   0.59479   0.59599   0.00000  Uiso   1.00
H265   H     0.76944   0.04968   0.55796   0.00000  Uiso   1.00
H266   H     0.57126   0.75303   0.86952   0.00000  Uiso   1.00
H267   H     0.47286   0.46337   0.52985   0.00000  Uiso   1.00
O268   O     0.73607   0.23677   0.52121   0.00000  Uiso   1.00
O269   O     0.47606   0.84756   0.92996   0.00000  Uiso   1.00
O270   O     0.34695   0.46754   0.48433   0.00000  Uiso   1.00
N271   N     0.62824   0.17704   0.55289   0.00000  Uiso   1.00
N272   N     0.44296   0.89971   0.84417   0.00000  Uiso   1.00
N273   N     0.35095   0.62889   0.52663   0.00000  Uiso   1.00
N274   N     0.71952   0.07452   0.56073   0.00000  Uiso   1.00
N275   N     0.53425   0.79719   0.85202   0.00000  Uiso   1.00
N276   N     0.44224   0.52637   0.53447   0.00000  Uiso   1.00
C277   C     0.96603   0.58909   0.35949   0.00000  Uiso   1.00
C278   C     0.03304   0.54080   0.38173   0.00000  Uiso   1.00
C279   C     0.03853   0.44309   0.40479   0.00000  Uiso   1.00
C280   C     0.10448   0.41314   0.42269   0.00000  Uiso   1.00
C281   C     0.19967   0.32819   0.45795   0.00000  Uiso   1.00
C282   C     0.98198   0.61722   0.30145   0.00000  Uiso   1.00
C283   C     0.94454   0.58378   0.25701   0.00000  Uiso   1.00
C284   C     0.96751   0.61817   0.20732   0.00000  Uiso   1.00
C285   C     0.98340   0.65193   0.11795   0.00000  Uiso   1.00
C286   C     0.95663   0.69185   0.38897   0.00000  Uiso   1.00
C287   C     0.89786   0.72117   0.41811   0.00000  Uiso   1.00
C288   C     0.89948   0.81841   0.44210   0.00000  Uiso   1.00
C289   C     0.87600   0.96803   0.48862   0.00000  Uiso   1.00
C290   C     0.07338   0.70965   0.35026   0.00000  Uiso   1.00
C291   C     0.09135   0.60629   0.37671   0.00000  Uiso   1.00
C292   C     0.15730   0.57648   0.39458   0.00000  Uiso   1.00
C293   C     0.16290   0.47875   0.41767   0.00000  Uiso   1.00
C294   C     0.04029   0.68271   0.29643   0.00000  Uiso   1.00
C295   C     0.06331   0.71717   0.24680   0.00000  Uiso   1.00
C296   C     0.02592   0.68378   0.20230   0.00000  Uiso   1.00
C297   C     0.01494   0.75734   0.38396   0.00000  Uiso   1.00
C298   C     0.01664   0.85456   0.40790   0.00000  Uiso   1.00
C299   C     0.95789   0.88401   0.43708   0.00000  Uiso   1.00
H300   H     0.92063   0.53810   0.36339   0.00000  Uiso   1.00
H301   H     0.99340   0.39243   0.40866   0.00000  Uiso   1.00
H302   H     0.89942   0.53311   0.26090   0.00000  Uiso   1.00
H303   H     0.85275   0.67047   0.42198   0.00000  Uiso   1.00
H304   H     0.09979   0.25979   0.45662   0.00000  Uiso   1.00
H305   H     0.90162   0.55644   0.14507   0.00000  Uiso   1.00
H306   H     0.80321   0.84610   0.48473   0.00000  Uiso   1.00
H307   H     0.11877   0.76064   0.34636   0.00000  Uiso   1.00
H308   H     0.20242   0.62718   0.39070   0.00000  Uiso   1.00
H309   H     0.10844   0.76785   0.24294   0.00000  Uiso   1.00
H310   H     0.06177   0.90521   0.40401   0.00000  Uiso   1.00
H311   H     0.26944   0.45032   0.44204   0.00000  Uiso   1.00
H312   H     0.07126   0.74697   0.13048   0.00000  Uiso   1.00
H313   H     0.97286   0.03663   0.47015   0.00000  Uiso   1.00
O314   O     0.23607   0.26323   0.47879   0.00000  Uiso   1.00
O315   O     0.97606   0.65244   0.07004   0.00000  Uiso   1.00
O316   O     0.84695   0.03246   0.51567   0.00000  Uiso   1.00
N317   N     0.12824   0.32296   0.44711   0.00000  Uiso   1.00
N318   N     0.94296   0.60029   0.15583   0.00000  Uiso   1.00
N319   N     0.85095   0.87111   0.47337   0.00000  Uiso   1.00
N320   N     0.21952   0.42548   0.43927   0.00000  Uiso   1.00
N321   N     0.03425   0.70281   0.14798   0.00000  Uiso   1.00
N322   N     0.94224   0.97363   0.46553   0.00000  Uiso   1.00
C323   C     0.53397   0.41091   0.85949   0.00000  Uiso   1.00
C324   C     0.46696   0.45920   0.88173   0.00000  Uiso   1.00
C325   C     0.46147   0.55691   0.90479   0.00000  Uiso   1.00
C326   C     0.39552   0.58686   0.92269   0.00000  Uiso   1.00
C327   C     0.30033   0.67181   0.95795   0.00000  Uiso   1.00
C328   C     0.51802   0.38278   0.80145   0.00000  Uiso   1.00
C329   C     0.55546   0.41622   0.75701   0.00000  Uiso   1.00
C330   C     0.53249   0.38183   0.70732   0.00000  Uiso   1.00
C331   C     0.51660   0.34807   0.61795   0.00000  Uiso   1.00
C332   C     0.54337   0.30815   0.88897   0.00000  Uiso   1.00
C333   C     0.60214   0.27883   0.91811   0.00000  Uiso   1.00
C334   C     0.60052   0.18159   0.94210   0.00000  Uiso   1.00
C335   C     0.62400   0.03197   0.98862   0.00000  Uiso   1.00
C336   C     0.42662   0.29035   0.85026   0.00000  Uiso   1.00
C337   C     0.40865   0.39371   0.87671   0.00000  Uiso   1.00
C338   C     0.34270   0.42352   0.89458   0.00000  Uiso   1.00
C339   C     0.33710   0.52125   0.91767   0.00000  Uiso   1.00
C340   C     0.45971   0.31729   0.79643   0.00000  Uiso   1.00
C341   C     0.43669   0.28283   0.74680   0.00000  Uiso   1.00
C342   C     0.47408   0.31622   0.70230   0.00000  Uiso   1.00
C343   C     0.48506   0.24266   0.88396   0.00000  Uiso   1.00
C344   C     0.48336   0.14544   0.90790   0.00000  Uiso   1.00
C345   C     0.54211   0.11599   0.93708   0.00000  Uiso   1.00
H346   H     0.57937   0.46190   0.86339   0.00000  Uiso   1.00
H347   H     0.50660   0.60757   0.90866   0.00000  Uiso   1.00
H348   H     0.60058   0.46689   0.76090   0.00000  Uiso   1.00
H349   H     0.64725   0.32953   0.92198   0.00000  Uiso   1.00
H350   H     0.40021   0.74021   0.95662   0.00000  Uiso   1.00
H351   H     0.59838   0.44356   0.64507   0.00000  Uiso   1.00
H352   H     0.69679   0.15390   0.98473   0.00000  Uiso   1.00
H353   H     0.38123   0.23936   0.84636   0.00000  Uiso   1.00
H354   H     0.29758   0.37282   0.89070   0.00000  Uiso   1.00
H355   H     0.39156   0.23215   0.74294   0.00000  Uiso   1.00
H356   H     0.43823   0.09479   0.90401   0.00000  Uiso   1.00
H357   H     0.23056   0.54968   0.94204   0.00000  Uiso   1.00
H358   H     0.42874   0.25303   0.63048   0.00000  Uiso   1.00
H359   H     0.52714   0.96337   0.97015   0.00000  Uiso   1.00
O360   O     0.26393   0.73677   0.97879   0.00000  Uiso   1.00
O361   O     0.52394   0.34756   0.57004   0.00000  Uiso   1.00
O362   O     0.65305   0.96754   0.01567   0.00000  Uiso   1.00
N363   N     0.37176   0.67704   0.94711   0.00000  Uiso   1.00
N364   N     0.55704   0.39971   0.65583   0.00000  Uiso   1.00
N365   N     0.64905   0.12889   0.97337   0.00000  Uiso   1.00
N366   N     0.28048   0.57452   0.93927   0.00000  Uiso   1.00
N367   N     0.46575   0.29719   0.64798   0.00000  Uiso   1.00
N368   N     0.55776   0.02637   0.96553   0.00000  Uiso   1.00
