data_job_01374
_audit_creation_date              2018-12-19
_audit_creation_method            'Materials Studio'
_symmetry_space_group_name_H-M    'P1'
_symmetry_Int_Tables_number       1
_symmetry_cell_setting            triclinic
loop_
_symmetry_equiv_pos_as_xyz
  x,y,z
_cell_length_a                    12.1837
_cell_length_b                    12.1837
_cell_length_c                    17.4878
_cell_angle_alpha                 90.0000
_cell_angle_beta                  90.0000
_cell_angle_gamma                 90.0000
loop_
_atom_site_label
_atom_site_type_symbol
_atom_site_fract_x
_atom_site_fract_y
_atom_site_fract_z
_atom_site_U_iso_or_equiv
_atom_site_adp_type
_atom_site_occupancy
C1     C     0.09531   0.73876   0.41152   0.00000  Uiso   1.00
C2     C     0.19127   0.71484   0.46497   0.00000  Uiso   1.00
C3     C     0.18977   0.72468   0.54402   0.00000  Uiso   1.00
C4     C     0.28596   0.69894   0.58262   0.00000  Uiso   1.00
C5     C     0.42064   0.66707   0.67156   0.00000  Uiso   1.00
C6     C     0.13675   0.82413   0.35466   0.00000  Uiso   1.00
C7     C     0.08941   0.92585   0.34096   0.00000  Uiso   1.00
C8     C     0.13971   0.99211   0.28670   0.00000  Uiso   1.00
C9     C     0.18970   0.12988   0.20434   0.00000  Uiso   1.00
C10    C     0.07681   0.63401   0.36557   0.00000  Uiso   1.00
C11    C     0.97906   0.57590   0.36102   0.00000  Uiso   1.00
C12    C     0.97889   0.48210   0.31593   0.00000  Uiso   1.00
C13    C     0.93582   0.32469   0.25051   0.00000  Uiso   1.00
C14    C     0.26881   0.67555   0.33949   0.00000  Uiso   1.00
C15    C     0.28550   0.68051   0.42584   0.00000  Uiso   1.00
C16    C     0.38172   0.65475   0.46434   0.00000  Uiso   1.00
C17    C     0.38037   0.66454   0.54343   0.00000  Uiso   1.00
C18    C     0.23098   0.78980   0.31554   0.00000  Uiso   1.00
C19    C     0.28136   0.85592   0.26128   0.00000  Uiso   1.00
C20    C     0.23411   0.95772   0.24751   0.00000  Uiso   1.00
C21    C     0.17105   0.59968   0.32645   0.00000  Uiso   1.00
C22    C     0.17102   0.50596   0.28135   0.00000  Uiso   1.00
C23    C     0.07330   0.44771   0.27674   0.00000  Uiso   1.00
H24    H     0.02195   0.76550   0.44197   0.00000  Uiso   1.00
H25    H     0.11683   0.75126   0.57427   0.00000  Uiso   1.00
H26    H     0.01648   0.95239   0.37124   0.00000  Uiso   1.00
H27    H     0.90616   0.60249   0.39130   0.00000  Uiso   1.00
H28    H     0.26360   0.72037   0.70370   0.00000  Uiso   1.00
H29    H     0.05198   0.14446   0.27558   0.00000  Uiso   1.00
H30    H     0.81934   0.40662   0.31788   0.00000  Uiso   1.00
H31    H     0.34218   0.64883   0.30904   0.00000  Uiso   1.00
H32    H     0.45464   0.62818   0.43405   0.00000  Uiso   1.00
H33    H     0.35428   0.82932   0.23101   0.00000  Uiso   1.00
H34    H     0.24396   0.47942   0.25108   0.00000  Uiso   1.00
H35    H     0.53777   0.62049   0.58989   0.00000  Uiso   1.00
H36    H     0.32615   0.04458   0.16176   0.00000  Uiso   1.00
H37    H     0.09352   0.30673   0.20407   0.00000  Uiso   1.00
O38    O     0.46890   0.65899   0.73143   0.00000  Uiso   1.00
O39    O     0.19124   0.21537   0.16973   0.00000  Uiso   1.00
O40    O     0.88604   0.24734   0.22525   0.00000  Uiso   1.00
N41    N     0.31268   0.69968   0.65976   0.00000  Uiso   1.00
N42    N     0.11484   0.09618   0.25950   0.00000  Uiso   1.00
N43    N     0.89734   0.40638   0.29904   0.00000  Uiso   1.00
N44    N     0.46022   0.64593   0.59852   0.00000  Uiso   1.00
N45    N     0.26237   0.04243   0.19826   0.00000  Uiso   1.00
N46    N     0.04487   0.35263   0.23780   0.00000  Uiso   1.00
C47    C     0.90469   0.26124   0.91152   0.00000  Uiso   1.00
C48    C     0.80873   0.28516   0.96497   0.00000  Uiso   1.00
C49    C     0.81023   0.27532   0.04402   0.00000  Uiso   1.00
C50    C     0.71404   0.30106   0.08262   0.00000  Uiso   1.00
C51    C     0.57936   0.33293   0.17156   0.00000  Uiso   1.00
C52    C     0.86325   0.17587   0.85466   0.00000  Uiso   1.00
C53    C     0.91059   0.07415   0.84096   0.00000  Uiso   1.00
C54    C     0.86029   0.00789   0.78670   0.00000  Uiso   1.00
C55    C     0.81030   0.87012   0.70434   0.00000  Uiso   1.00
C56    C     0.92319   0.36599   0.86557   0.00000  Uiso   1.00
C57    C     0.02094   0.42410   0.86102   0.00000  Uiso   1.00
C58    C     0.02111   0.51790   0.81593   0.00000  Uiso   1.00
C59    C     0.06418   0.67531   0.75051   0.00000  Uiso   1.00
C60    C     0.73119   0.32445   0.83949   0.00000  Uiso   1.00
C61    C     0.71450   0.31949   0.92584   0.00000  Uiso   1.00
C62    C     0.61828   0.34525   0.96434   0.00000  Uiso   1.00
C63    C     0.61963   0.33546   0.04343   0.00000  Uiso   1.00
C64    C     0.76902   0.21020   0.81554   0.00000  Uiso   1.00
C65    C     0.71864   0.14408   0.76128   0.00000  Uiso   1.00
C66    C     0.76589   0.04228   0.74751   0.00000  Uiso   1.00
C67    C     0.82895   0.40032   0.82645   0.00000  Uiso   1.00
C68    C     0.82898   0.49404   0.78135   0.00000  Uiso   1.00
C69    C     0.92670   0.55229   0.77674   0.00000  Uiso   1.00
H70    H     0.97805   0.23450   0.94197   0.00000  Uiso   1.00
H71    H     0.88317   0.24874   0.07427   0.00000  Uiso   1.00
H72    H     0.98352   0.04761   0.87124   0.00000  Uiso   1.00
H73    H     0.09384   0.39751   0.89130   0.00000  Uiso   1.00
H74    H     0.73640   0.27963   0.20370   0.00000  Uiso   1.00
H75    H     0.94802   0.85554   0.77558   0.00000  Uiso   1.00
H76    H     0.18066   0.59338   0.81788   0.00000  Uiso   1.00
H77    H     0.65782   0.35117   0.80904   0.00000  Uiso   1.00
H78    H     0.54536   0.37182   0.93405   0.00000  Uiso   1.00
H79    H     0.64572   0.17068   0.73101   0.00000  Uiso   1.00
H80    H     0.75604   0.52058   0.75108   0.00000  Uiso   1.00
H81    H     0.46223   0.37951   0.08989   0.00000  Uiso   1.00
H82    H     0.67385   0.95542   0.66176   0.00000  Uiso   1.00
H83    H     0.90648   0.69327   0.70407   0.00000  Uiso   1.00
O84    O     0.53110   0.34101   0.23143   0.00000  Uiso   1.00
O85    O     0.80876   0.78463   0.66973   0.00000  Uiso   1.00
O86    O     0.11396   0.75266   0.72525   0.00000  Uiso   1.00
N87    N     0.68732   0.30032   0.15976   0.00000  Uiso   1.00
N88    N     0.88516   0.90382   0.75950   0.00000  Uiso   1.00
N89    N     0.10266   0.59362   0.79904   0.00000  Uiso   1.00
N90    N     0.53978   0.35407   0.09852   0.00000  Uiso   1.00
N91    N     0.73763   0.95757   0.69826   0.00000  Uiso   1.00
N92    N     0.95513   0.64737   0.73780   0.00000  Uiso   1.00
C93    C     0.26124   0.09531   0.66152   0.00000  Uiso   1.00
C94    C     0.28516   0.19127   0.71497   0.00000  Uiso   1.00
C95    C     0.27532   0.18977   0.79402   0.00000  Uiso   1.00
C96    C     0.30106   0.28596   0.83262   0.00000  Uiso   1.00
C97    C     0.33293   0.42064   0.92156   0.00000  Uiso   1.00
C98    C     0.17587   0.13675   0.60466   0.00000  Uiso   1.00
C99    C     0.07415   0.08941   0.59096   0.00000  Uiso   1.00
C100   C     0.00789   0.13971   0.53670   0.00000  Uiso   1.00
C101   C     0.87012   0.18970   0.45434   0.00000  Uiso   1.00
C102   C     0.36599   0.07681   0.61557   0.00000  Uiso   1.00
C103   C     0.42410   0.97906   0.61102   0.00000  Uiso   1.00
C104   C     0.51790   0.97889   0.56593   0.00000  Uiso   1.00
C105   C     0.67531   0.93582   0.50051   0.00000  Uiso   1.00
C106   C     0.32445   0.26881   0.58949   0.00000  Uiso   1.00
C107   C     0.31949   0.28550   0.67584   0.00000  Uiso   1.00
C108   C     0.34525   0.38172   0.71434   0.00000  Uiso   1.00
C109   C     0.33546   0.38037   0.79343   0.00000  Uiso   1.00
C110   C     0.21020   0.23098   0.56554   0.00000  Uiso   1.00
C111   C     0.14408   0.28136   0.51128   0.00000  Uiso   1.00
C112   C     0.04228   0.23411   0.49751   0.00000  Uiso   1.00
C113   C     0.40032   0.17105   0.57645   0.00000  Uiso   1.00
C114   C     0.49404   0.17102   0.53135   0.00000  Uiso   1.00
C115   C     0.55229   0.07330   0.52674   0.00000  Uiso   1.00
H116   H     0.23450   0.02195   0.69197   0.00000  Uiso   1.00
H117   H     0.24874   0.11683   0.82427   0.00000  Uiso   1.00
H118   H     0.04761   0.01648   0.62124   0.00000  Uiso   1.00
H119   H     0.39751   0.90616   0.64130   0.00000  Uiso   1.00
H120   H     0.27963   0.26360   0.95370   0.00000  Uiso   1.00
H121   H     0.85554   0.05198   0.52558   0.00000  Uiso   1.00
H122   H     0.59338   0.81934   0.56788   0.00000  Uiso   1.00
H123   H     0.35117   0.34218   0.55904   0.00000  Uiso   1.00
H124   H     0.37182   0.45464   0.68405   0.00000  Uiso   1.00
H125   H     0.17068   0.35428   0.48101   0.00000  Uiso   1.00
H126   H     0.52058   0.24396   0.50108   0.00000  Uiso   1.00
H127   H     0.37951   0.53777   0.83989   0.00000  Uiso   1.00
H128   H     0.95542   0.32615   0.41176   0.00000  Uiso   1.00
H129   H     0.69327   0.09352   0.45407   0.00000  Uiso   1.00
O130   O     0.34101   0.46890   0.98143   0.00000  Uiso   1.00
O131   O     0.78463   0.19124   0.41973   0.00000  Uiso   1.00
O132   O     0.75266   0.88604   0.47525   0.00000  Uiso   1.00
N133   N     0.30032   0.31268   0.90976   0.00000  Uiso   1.00
N134   N     0.90382   0.11484   0.50950   0.00000  Uiso   1.00
N135   N     0.59362   0.89734   0.54904   0.00000  Uiso   1.00
N136   N     0.35407   0.46022   0.84852   0.00000  Uiso   1.00
N137   N     0.95757   0.26237   0.44826   0.00000  Uiso   1.00
N138   N     0.64737   0.04487   0.48780   0.00000  Uiso   1.00
C139   C     0.73876   0.90469   0.16152   0.00000  Uiso   1.00
C140   C     0.71484   0.80873   0.21497   0.00000  Uiso   1.00
C141   C     0.72468   0.81023   0.29402   0.00000  Uiso   1.00
C142   C     0.69894   0.71404   0.33262   0.00000  Uiso   1.00
C143   C     0.66707   0.57936   0.42156   0.00000  Uiso   1.00
C144   C     0.82413   0.86325   0.10466   0.00000  Uiso   1.00
C145   C     0.92585   0.91059   0.09096   0.00000  Uiso   1.00
C146   C     0.99211   0.86029   0.03670   0.00000  Uiso   1.00
C147   C     0.12988   0.81030   0.95434   0.00000  Uiso   1.00
C148   C     0.63401   0.92319   0.11557   0.00000  Uiso   1.00
C149   C     0.57590   0.02094   0.11102   0.00000  Uiso   1.00
C150   C     0.48210   0.02111   0.06593   0.00000  Uiso   1.00
C151   C     0.32469   0.06418   0.00051   0.00000  Uiso   1.00
C152   C     0.67555   0.73119   0.08949   0.00000  Uiso   1.00
C153   C     0.68051   0.71450   0.17584   0.00000  Uiso   1.00
C154   C     0.65475   0.61828   0.21434   0.00000  Uiso   1.00
C155   C     0.66454   0.61963   0.29343   0.00000  Uiso   1.00
C156   C     0.78980   0.76902   0.06554   0.00000  Uiso   1.00
C157   C     0.85592   0.71864   0.01128   0.00000  Uiso   1.00
C158   C     0.95772   0.76589   0.99751   0.00000  Uiso   1.00
C159   C     0.59968   0.82895   0.07645   0.00000  Uiso   1.00
C160   C     0.50596   0.82898   0.03135   0.00000  Uiso   1.00
C161   C     0.44771   0.92670   0.02674   0.00000  Uiso   1.00
H162   H     0.76550   0.97805   0.19197   0.00000  Uiso   1.00
H163   H     0.75126   0.88317   0.32427   0.00000  Uiso   1.00
H164   H     0.95239   0.98352   0.12124   0.00000  Uiso   1.00
H165   H     0.60249   0.09384   0.14130   0.00000  Uiso   1.00
H166   H     0.72037   0.73640   0.45370   0.00000  Uiso   1.00
H167   H     0.14446   0.94802   0.02558   0.00000  Uiso   1.00
H168   H     0.40662   0.18066   0.06788   0.00000  Uiso   1.00
H169   H     0.64883   0.65782   0.05904   0.00000  Uiso   1.00
H170   H     0.62818   0.54536   0.18405   0.00000  Uiso   1.00
H171   H     0.82932   0.64572   0.98101   0.00000  Uiso   1.00
H172   H     0.47942   0.75604   0.00108   0.00000  Uiso   1.00
H173   H     0.62049   0.46223   0.33989   0.00000  Uiso   1.00
H174   H     0.04458   0.67385   0.91176   0.00000  Uiso   1.00
H175   H     0.30673   0.90648   0.95407   0.00000  Uiso   1.00
O176   O     0.65899   0.53110   0.48143   0.00000  Uiso   1.00
O177   O     0.21537   0.80876   0.91973   0.00000  Uiso   1.00
O178   O     0.24734   0.11396   0.97525   0.00000  Uiso   1.00
N179   N     0.69968   0.68732   0.40976   0.00000  Uiso   1.00
N180   N     0.09618   0.88516   0.00950   0.00000  Uiso   1.00
N181   N     0.40638   0.10266   0.04904   0.00000  Uiso   1.00
N182   N     0.64593   0.53978   0.34852   0.00000  Uiso   1.00
N183   N     0.04243   0.73763   0.94826   0.00000  Uiso   1.00
N184   N     0.35263   0.95513   0.98780   0.00000  Uiso   1.00
