data_job_03900
_audit_creation_date              2018-12-19
_audit_creation_method            'Materials Studio'
_symmetry_space_group_name_H-M    'P1'
_symmetry_Int_Tables_number       1
_symmetry_cell_setting            triclinic
loop_
_symmetry_equiv_pos_as_xyz
  x,y,z
_cell_length_a                    11.1592
_cell_length_b                    33.3175
_cell_length_c                    8.0736
_cell_angle_alpha                 90.0000
_cell_angle_beta                  108.1075
_cell_angle_gamma                 90.0000
loop_
_atom_site_label
_atom_site_type_symbol
_atom_site_fract_x
_atom_site_fract_y
_atom_site_fract_z
_atom_site_U_iso_or_equiv
_atom_site_adp_type
_atom_site_occupancy
C1     C     0.23886   0.58063   0.48791   0.00000  Uiso   1.00
C2     C     0.09618   0.58609   0.43202   0.00000  Uiso   1.00
C3     C     0.02065   0.58188   0.53886   0.00000  Uiso   1.00
C4     C     0.89219   0.58812   0.46297   0.00000  Uiso   1.00
C5     C     0.67838   0.59504   0.40300   0.00000  Uiso   1.00
C6     C     0.26397   0.54877   0.36714   0.00000  Uiso   1.00
C7     C     0.32954   0.51320   0.41945   0.00000  Uiso   1.00
C8     C     0.34234   0.48803   0.28894   0.00000  Uiso   1.00
C9     C     0.38911   0.43703   0.12826   0.00000  Uiso   1.00
C10    C     0.29214   0.61973   0.44198   0.00000  Uiso   1.00
C11    C     0.38142   0.64382   0.55719   0.00000  Uiso   1.00
C12    C     0.41796   0.67839   0.48967   0.00000  Uiso   1.00
C13    C     0.50847   0.73757   0.44518   0.00000  Uiso   1.00
C14    C     0.14502   0.59917   0.16311   0.00000  Uiso   1.00
C15    C     0.04521   0.59616   0.25560   0.00000  Uiso   1.00
C16    C     0.91683   0.60240   0.17952   0.00000  Uiso   1.00
C17    C     0.84113   0.59821   0.28624   0.00000  Uiso   1.00
C18    C     0.21300   0.55884   0.19073   0.00000  Uiso   1.00
C19    C     0.22572   0.53372   0.06011   0.00000  Uiso   1.00
C20    C     0.29128   0.49812   0.11220   0.00000  Uiso   1.00
C21    C     0.24117   0.62980   0.26556   0.00000  Uiso   1.00
C22    C     0.27759   0.66434   0.19785   0.00000  Uiso   1.00
C23    C     0.36690   0.68847   0.31294   0.00000  Uiso   1.00
H24    H     0.27855   0.57279   0.62525   0.00000  Uiso   1.00
H25    H     0.06013   0.57409   0.67538   0.00000  Uiso   1.00
H26    H     0.36898   0.50542   0.55598   0.00000  Uiso   1.00
H27    H     0.42084   0.63602   0.69370   0.00000  Uiso   1.00
H28    H     0.79549   0.57996   0.65314   0.00000  Uiso   1.00
H29    H     0.44676   0.43517   0.40140   0.00000  Uiso   1.00
H30    H     0.55613   0.71056   0.69180   0.00000  Uiso   1.00
H31    H     0.10534   0.60701   0.02576   0.00000  Uiso   1.00
H32    H     0.87741   0.61019   0.04300   0.00000  Uiso   1.00
H33    H     0.18626   0.54152   0.92360   0.00000  Uiso   1.00
H34    H     0.23813   0.67212   0.06132   0.00000  Uiso   1.00
H35    H     0.64719   0.60926   0.13988   0.00000  Uiso   1.00
H36    H     0.29846   0.46447   0.88813   0.00000  Uiso   1.00
H37    H     0.40782   0.73987   0.17853   0.00000  Uiso   1.00
O38    O     0.57452   0.59607   0.41865   0.00000  Uiso   1.00
O39    O     0.42898   0.40612   0.08837   0.00000  Uiso   1.00
O40    O     0.57246   0.76743   0.46938   0.00000  Uiso   1.00
N41    N     0.79187   0.58642   0.52999   0.00000  Uiso   1.00
N42    N     0.40075   0.45106   0.29462   0.00000  Uiso   1.00
N43    N     0.50302   0.70852   0.56612   0.00000  Uiso   1.00
N44    N     0.71207   0.60219   0.25380   0.00000  Uiso   1.00
N45    N     0.32095   0.46682   0.01844   0.00000  Uiso   1.00
N46    N     0.42322   0.72429   0.28993   0.00000  Uiso   1.00
C47    C     0.76114   0.08063   0.01209   0.00000  Uiso   1.00
C48    C     0.90382   0.08609   0.06798   0.00000  Uiso   1.00
C49    C     0.97935   0.08188   0.96114   0.00000  Uiso   1.00
C50    C     0.10781   0.08812   0.03703   0.00000  Uiso   1.00
C51    C     0.32162   0.09504   0.09700   0.00000  Uiso   1.00
C52    C     0.73603   0.04877   0.13286   0.00000  Uiso   1.00
C53    C     0.67046   0.01320   0.08055   0.00000  Uiso   1.00
C54    C     0.65766   0.98803   0.21106   0.00000  Uiso   1.00
C55    C     0.61089   0.93703   0.37174   0.00000  Uiso   1.00
C56    C     0.70786   0.11973   0.05802   0.00000  Uiso   1.00
C57    C     0.61858   0.14382   0.94281   0.00000  Uiso   1.00
C58    C     0.58204   0.17839   0.01033   0.00000  Uiso   1.00
C59    C     0.49153   0.23757   0.05482   0.00000  Uiso   1.00
C60    C     0.85498   0.09917   0.33689   0.00000  Uiso   1.00
C61    C     0.95479   0.09616   0.24440   0.00000  Uiso   1.00
C62    C     0.08317   0.10240   0.32048   0.00000  Uiso   1.00
C63    C     0.15887   0.09821   0.21376   0.00000  Uiso   1.00
C64    C     0.78700   0.05884   0.30927   0.00000  Uiso   1.00
C65    C     0.77428   0.03372   0.43989   0.00000  Uiso   1.00
C66    C     0.70872   0.99812   0.38780   0.00000  Uiso   1.00
C67    C     0.75883   0.12980   0.23444   0.00000  Uiso   1.00
C68    C     0.72241   0.16434   0.30215   0.00000  Uiso   1.00
C69    C     0.63310   0.18847   0.18706   0.00000  Uiso   1.00
H70    H     0.72145   0.07279   0.87475   0.00000  Uiso   1.00
H71    H     0.93987   0.07409   0.82462   0.00000  Uiso   1.00
H72    H     0.63102   0.00542   0.94402   0.00000  Uiso   1.00
H73    H     0.57916   0.13602   0.80630   0.00000  Uiso   1.00
H74    H     0.20451   0.07996   0.84686   0.00000  Uiso   1.00
H75    H     0.55324   0.93517   0.09860   0.00000  Uiso   1.00
H76    H     0.44387   0.21056   0.80820   0.00000  Uiso   1.00
H77    H     0.89466   0.10701   0.47424   0.00000  Uiso   1.00
H78    H     0.12259   0.11019   0.45700   0.00000  Uiso   1.00
H79    H     0.81374   0.04152   0.57640   0.00000  Uiso   1.00
H80    H     0.76187   0.17212   0.43868   0.00000  Uiso   1.00
H81    H     0.35281   0.10926   0.36012   0.00000  Uiso   1.00
H82    H     0.70154   0.96447   0.61187   0.00000  Uiso   1.00
H83    H     0.59218   0.23987   0.32147   0.00000  Uiso   1.00
O84    O     0.42548   0.09607   0.08135   0.00000  Uiso   1.00
O85    O     0.57102   0.90612   0.41163   0.00000  Uiso   1.00
O86    O     0.42754   0.26743   0.03062   0.00000  Uiso   1.00
N87    N     0.20813   0.08642   0.97001   0.00000  Uiso   1.00
N88    N     0.59925   0.95106   0.20538   0.00000  Uiso   1.00
N89    N     0.49698   0.20852   0.93388   0.00000  Uiso   1.00
N90    N     0.28793   0.10219   0.24620   0.00000  Uiso   1.00
N91    N     0.67905   0.96682   0.48156   0.00000  Uiso   1.00
N92    N     0.57678   0.22429   0.21007   0.00000  Uiso   1.00
C93    C     0.76114   0.41937   0.51209   0.00000  Uiso   1.00
C94    C     0.90382   0.41391   0.56798   0.00000  Uiso   1.00
C95    C     0.97935   0.41812   0.46114   0.00000  Uiso   1.00
C96    C     0.10781   0.41188   0.53703   0.00000  Uiso   1.00
C97    C     0.32162   0.40496   0.59700   0.00000  Uiso   1.00
C98    C     0.73603   0.45123   0.63286   0.00000  Uiso   1.00
C99    C     0.67046   0.48680   0.58055   0.00000  Uiso   1.00
C100   C     0.65766   0.51197   0.71106   0.00000  Uiso   1.00
C101   C     0.61089   0.56297   0.87174   0.00000  Uiso   1.00
C102   C     0.70786   0.38027   0.55802   0.00000  Uiso   1.00
C103   C     0.61858   0.35618   0.44281   0.00000  Uiso   1.00
C104   C     0.58204   0.32161   0.51033   0.00000  Uiso   1.00
C105   C     0.49153   0.26243   0.55482   0.00000  Uiso   1.00
C106   C     0.85498   0.40083   0.83689   0.00000  Uiso   1.00
C107   C     0.95479   0.40384   0.74440   0.00000  Uiso   1.00
C108   C     0.08317   0.39760   0.82048   0.00000  Uiso   1.00
C109   C     0.15887   0.40179   0.71376   0.00000  Uiso   1.00
C110   C     0.78700   0.44116   0.80927   0.00000  Uiso   1.00
C111   C     0.77428   0.46628   0.93989   0.00000  Uiso   1.00
C112   C     0.70872   0.50188   0.88780   0.00000  Uiso   1.00
C113   C     0.75883   0.37020   0.73444   0.00000  Uiso   1.00
C114   C     0.72241   0.33566   0.80215   0.00000  Uiso   1.00
C115   C     0.63310   0.31153   0.68706   0.00000  Uiso   1.00
H116   H     0.72145   0.42721   0.37475   0.00000  Uiso   1.00
H117   H     0.93987   0.42591   0.32462   0.00000  Uiso   1.00
H118   H     0.63102   0.49458   0.44402   0.00000  Uiso   1.00
H119   H     0.57916   0.36398   0.30630   0.00000  Uiso   1.00
H120   H     0.20451   0.42004   0.34686   0.00000  Uiso   1.00
H121   H     0.55324   0.56483   0.59860   0.00000  Uiso   1.00
H122   H     0.44387   0.28944   0.30820   0.00000  Uiso   1.00
H123   H     0.89466   0.39299   0.97424   0.00000  Uiso   1.00
H124   H     0.12259   0.38981   0.95700   0.00000  Uiso   1.00
H125   H     0.81374   0.45848   0.07640   0.00000  Uiso   1.00
H126   H     0.76187   0.32788   0.93868   0.00000  Uiso   1.00
H127   H     0.35281   0.39074   0.86012   0.00000  Uiso   1.00
H128   H     0.70154   0.53553   0.11187   0.00000  Uiso   1.00
H129   H     0.59218   0.26013   0.82147   0.00000  Uiso   1.00
O130   O     0.42548   0.40393   0.58135   0.00000  Uiso   1.00
O131   O     0.57102   0.59388   0.91163   0.00000  Uiso   1.00
O132   O     0.42754   0.23257   0.53062   0.00000  Uiso   1.00
N133   N     0.20813   0.41358   0.47001   0.00000  Uiso   1.00
N134   N     0.59925   0.54894   0.70538   0.00000  Uiso   1.00
N135   N     0.49698   0.29148   0.43388   0.00000  Uiso   1.00
N136   N     0.28793   0.39781   0.74620   0.00000  Uiso   1.00
N137   N     0.67905   0.53318   0.98156   0.00000  Uiso   1.00
N138   N     0.57678   0.27571   0.71007   0.00000  Uiso   1.00
C139   C     0.23886   0.91937   0.98791   0.00000  Uiso   1.00
C140   C     0.09618   0.91391   0.93202   0.00000  Uiso   1.00
C141   C     0.02065   0.91812   0.03886   0.00000  Uiso   1.00
C142   C     0.89219   0.91188   0.96297   0.00000  Uiso   1.00
C143   C     0.67838   0.90496   0.90300   0.00000  Uiso   1.00
C144   C     0.26397   0.95123   0.86714   0.00000  Uiso   1.00
C145   C     0.32954   0.98680   0.91945   0.00000  Uiso   1.00
C146   C     0.34234   0.01197   0.78894   0.00000  Uiso   1.00
C147   C     0.38911   0.06297   0.62826   0.00000  Uiso   1.00
C148   C     0.29214   0.88027   0.94198   0.00000  Uiso   1.00
C149   C     0.38142   0.85618   0.05719   0.00000  Uiso   1.00
C150   C     0.41796   0.82161   0.98967   0.00000  Uiso   1.00
C151   C     0.50847   0.76243   0.94518   0.00000  Uiso   1.00
C152   C     0.14502   0.90083   0.66311   0.00000  Uiso   1.00
C153   C     0.04521   0.90384   0.75560   0.00000  Uiso   1.00
C154   C     0.91683   0.89760   0.67952   0.00000  Uiso   1.00
C155   C     0.84113   0.90179   0.78624   0.00000  Uiso   1.00
C156   C     0.21300   0.94116   0.69073   0.00000  Uiso   1.00
C157   C     0.22572   0.96628   0.56011   0.00000  Uiso   1.00
C158   C     0.29128   0.00188   0.61220   0.00000  Uiso   1.00
C159   C     0.24117   0.87020   0.76556   0.00000  Uiso   1.00
C160   C     0.27759   0.83566   0.69785   0.00000  Uiso   1.00
C161   C     0.36690   0.81153   0.81294   0.00000  Uiso   1.00
H162   H     0.27855   0.92721   0.12525   0.00000  Uiso   1.00
H163   H     0.06013   0.92591   0.17538   0.00000  Uiso   1.00
H164   H     0.36898   0.99458   0.05598   0.00000  Uiso   1.00
H165   H     0.42084   0.86398   0.19370   0.00000  Uiso   1.00
H166   H     0.79549   0.92004   0.15314   0.00000  Uiso   1.00
H167   H     0.44676   0.06483   0.90140   0.00000  Uiso   1.00
H168   H     0.55613   0.78944   0.19180   0.00000  Uiso   1.00
H169   H     0.10534   0.89299   0.52576   0.00000  Uiso   1.00
H170   H     0.87741   0.88981   0.54300   0.00000  Uiso   1.00
H171   H     0.18626   0.95848   0.42360   0.00000  Uiso   1.00
H172   H     0.23813   0.82788   0.56132   0.00000  Uiso   1.00
H173   H     0.64719   0.89074   0.63988   0.00000  Uiso   1.00
H174   H     0.29846   0.03553   0.38813   0.00000  Uiso   1.00
H175   H     0.40782   0.76013   0.67853   0.00000  Uiso   1.00
O176   O     0.57452   0.90393   0.91865   0.00000  Uiso   1.00
O177   O     0.42898   0.09388   0.58837   0.00000  Uiso   1.00
O178   O     0.57246   0.73257   0.96938   0.00000  Uiso   1.00
N179   N     0.79187   0.91358   0.02999   0.00000  Uiso   1.00
N180   N     0.40075   0.04894   0.79462   0.00000  Uiso   1.00
N181   N     0.50302   0.79148   0.06612   0.00000  Uiso   1.00
N182   N     0.71207   0.89781   0.75380   0.00000  Uiso   1.00
N183   N     0.32095   0.03318   0.51844   0.00000  Uiso   1.00
N184   N     0.42322   0.77571   0.78993   0.00000  Uiso   1.00
