data_job_05417
_audit_creation_date              2018-12-19
_audit_creation_method            'Materials Studio'
_symmetry_space_group_name_H-M    'P1'
_symmetry_Int_Tables_number       1
_symmetry_cell_setting            triclinic
loop_
_symmetry_equiv_pos_as_xyz
  x,y,z
_cell_length_a                    9.4186
_cell_length_b                    25.0122
_cell_length_c                    10.1851
_cell_angle_alpha                 90.0000
_cell_angle_beta                  90.0000
_cell_angle_gamma                 90.0000
loop_
_atom_site_label
_atom_site_type_symbol
_atom_site_fract_x
_atom_site_fract_y
_atom_site_fract_z
_atom_site_U_iso_or_equiv
_atom_site_adp_type
_atom_site_occupancy
C1     C     0.03145   0.65232   0.41631   0.00000  Uiso   1.00
C2     C     0.13612   0.62883   0.31772   0.00000  Uiso   1.00
C3     C     0.28299   0.63135   0.32659   0.00000  Uiso   1.00
C4     C     0.36008   0.60741   0.22637   0.00000  Uiso   1.00
C5     C     0.53287   0.57485   0.08925   0.00000  Uiso   1.00
C6     C     0.93578   0.68987   0.33831   0.00000  Uiso   1.00
C7     C     0.91420   0.74371   0.36452   0.00000  Uiso   1.00
C8     C     0.82262   0.77115   0.28164   0.00000  Uiso   1.00
C9     C     0.68430   0.83335   0.17655   0.00000  Uiso   1.00
C10    C     0.93727   0.60605   0.46012   0.00000  Uiso   1.00
C11    C     0.91691   0.58941   0.58874   0.00000  Uiso   1.00
C12    C     0.82656   0.54629   0.60841   0.00000  Uiso   1.00
C13    C     0.69056   0.47833   0.69245   0.00000  Uiso   1.00
C14    C     0.90715   0.60532   0.22254   0.00000  Uiso   1.00
C15    C     0.06860   0.60330   0.21247   0.00000  Uiso   1.00
C16    C     0.14548   0.57935   0.11221   0.00000  Uiso   1.00
C17    C     0.29244   0.58184   0.12093   0.00000  Uiso   1.00
C18    C     0.86826   0.66434   0.23307   0.00000  Uiso   1.00
C19    C     0.77668   0.69171   0.15013   0.00000  Uiso   1.00
C20    C     0.75498   0.74558   0.17620   0.00000  Uiso   1.00
C21    C     0.86976   0.58052   0.35487   0.00000  Uiso   1.00
C22    C     0.77940   0.53741   0.37435   0.00000  Uiso   1.00
C23    C     0.75892   0.52072   0.50297   0.00000  Uiso   1.00
H24    H     0.08400   0.67219   0.49825   0.00000  Uiso   1.00
H25    H     0.33520   0.65112   0.40805   0.00000  Uiso   1.00
H26    H     0.96645   0.76346   0.44598   0.00000  Uiso   1.00
H27    H     0.96918   0.60918   0.67016   0.00000  Uiso   1.00
H28    H     0.58393   0.61650   0.26161   0.00000  Uiso   1.00
H29    H     0.80637   0.85338   0.34161   0.00000  Uiso   1.00
H30    H     0.81210   0.52806   0.81434   0.00000  Uiso   1.00
H31    H     0.85458   0.58544   0.14060   0.00000  Uiso   1.00
H32    H     0.09320   0.55960   0.03077   0.00000  Uiso   1.00
H33    H     0.72445   0.67194   0.06870   0.00000  Uiso   1.00
H34    H     0.72718   0.51767   0.29288   0.00000  Uiso   1.00
H35    H     0.38751   0.54223   0.95539   0.00000  Uiso   1.00
H36    H     0.60994   0.77910   0.03540   0.00000  Uiso   1.00
H37    H     0.61569   0.45378   0.50812   0.00000  Uiso   1.00
O38    O     0.64683   0.56395   0.04268   0.00000  Uiso   1.00
O39    O     0.62668   0.87471   0.14766   0.00000  Uiso   1.00
O40    O     0.63421   0.44790   0.76787   0.00000  Uiso   1.00
N41    N     0.50495   0.60256   0.20463   0.00000  Uiso   1.00
N42    N     0.77800   0.82402   0.27941   0.00000  Uiso   1.00
N43    N     0.78333   0.51989   0.72138   0.00000  Uiso   1.00
N44    N     0.39926   0.56259   0.03985   0.00000  Uiso   1.00
N45    N     0.67231   0.78406   0.11464   0.00000  Uiso   1.00
N46    N     0.67764   0.47992   0.55660   0.00000  Uiso   1.00
C47    C     0.96855   0.34768   0.41631   0.00000  Uiso   1.00
C48    C     0.86388   0.37117   0.31772   0.00000  Uiso   1.00
C49    C     0.71701   0.36865   0.32659   0.00000  Uiso   1.00
C50    C     0.63992   0.39259   0.22637   0.00000  Uiso   1.00
C51    C     0.46713   0.42515   0.08925   0.00000  Uiso   1.00
C52    C     0.06422   0.31013   0.33831   0.00000  Uiso   1.00
C53    C     0.08580   0.25629   0.36452   0.00000  Uiso   1.00
C54    C     0.17738   0.22885   0.28164   0.00000  Uiso   1.00
C55    C     0.31570   0.16665   0.17655   0.00000  Uiso   1.00
C56    C     0.06273   0.39395   0.46012   0.00000  Uiso   1.00
C57    C     0.08309   0.41059   0.58874   0.00000  Uiso   1.00
C58    C     0.17344   0.45371   0.60841   0.00000  Uiso   1.00
C59    C     0.30944   0.52167   0.69245   0.00000  Uiso   1.00
C60    C     0.09285   0.39468   0.22254   0.00000  Uiso   1.00
C61    C     0.93140   0.39670   0.21247   0.00000  Uiso   1.00
C62    C     0.85452   0.42065   0.11221   0.00000  Uiso   1.00
C63    C     0.70756   0.41816   0.12093   0.00000  Uiso   1.00
C64    C     0.13174   0.33566   0.23307   0.00000  Uiso   1.00
C65    C     0.22332   0.30829   0.15013   0.00000  Uiso   1.00
C66    C     0.24502   0.25442   0.17620   0.00000  Uiso   1.00
C67    C     0.13024   0.41948   0.35487   0.00000  Uiso   1.00
C68    C     0.22060   0.46259   0.37435   0.00000  Uiso   1.00
C69    C     0.24108   0.47928   0.50297   0.00000  Uiso   1.00
H70    H     0.91600   0.32781   0.49825   0.00000  Uiso   1.00
H71    H     0.66480   0.34888   0.40805   0.00000  Uiso   1.00
H72    H     0.03355   0.23654   0.44598   0.00000  Uiso   1.00
H73    H     0.03082   0.39082   0.67016   0.00000  Uiso   1.00
H74    H     0.41607   0.38350   0.26161   0.00000  Uiso   1.00
H75    H     0.19363   0.14662   0.34161   0.00000  Uiso   1.00
H76    H     0.18790   0.47194   0.81434   0.00000  Uiso   1.00
H77    H     0.14542   0.41456   0.14060   0.00000  Uiso   1.00
H78    H     0.90680   0.44040   0.03077   0.00000  Uiso   1.00
H79    H     0.27555   0.32806   0.06870   0.00000  Uiso   1.00
H80    H     0.27282   0.48233   0.29288   0.00000  Uiso   1.00
H81    H     0.61249   0.45777   0.95539   0.00000  Uiso   1.00
H82    H     0.39006   0.22090   0.03540   0.00000  Uiso   1.00
H83    H     0.38431   0.54622   0.50812   0.00000  Uiso   1.00
O84    O     0.35317   0.43605   0.04268   0.00000  Uiso   1.00
O85    O     0.37332   0.12529   0.14766   0.00000  Uiso   1.00
O86    O     0.36579   0.55210   0.76787   0.00000  Uiso   1.00
N87    N     0.49505   0.39744   0.20463   0.00000  Uiso   1.00
N88    N     0.22200   0.17598   0.27941   0.00000  Uiso   1.00
N89    N     0.21667   0.48011   0.72138   0.00000  Uiso   1.00
N90    N     0.60074   0.43741   0.03985   0.00000  Uiso   1.00
N91    N     0.32769   0.21594   0.11464   0.00000  Uiso   1.00
N92    N     0.32236   0.52008   0.55660   0.00000  Uiso   1.00
C93    C     0.46855   0.15232   0.58369   0.00000  Uiso   1.00
C94    C     0.36388   0.12883   0.68228   0.00000  Uiso   1.00
C95    C     0.21701   0.13135   0.67341   0.00000  Uiso   1.00
C96    C     0.13992   0.10741   0.77363   0.00000  Uiso   1.00
C97    C     0.96713   0.07485   0.91075   0.00000  Uiso   1.00
C98    C     0.56422   0.18987   0.66169   0.00000  Uiso   1.00
C99    C     0.58580   0.24371   0.63548   0.00000  Uiso   1.00
C100   C     0.67738   0.27115   0.71836   0.00000  Uiso   1.00
C101   C     0.81570   0.33335   0.82345   0.00000  Uiso   1.00
C102   C     0.56273   0.10605   0.53988   0.00000  Uiso   1.00
C103   C     0.58309   0.08941   0.41126   0.00000  Uiso   1.00
C104   C     0.67344   0.04629   0.39159   0.00000  Uiso   1.00
C105   C     0.80944   0.97833   0.30755   0.00000  Uiso   1.00
C106   C     0.59285   0.10532   0.77746   0.00000  Uiso   1.00
C107   C     0.43140   0.10330   0.78753   0.00000  Uiso   1.00
C108   C     0.35452   0.07935   0.88779   0.00000  Uiso   1.00
C109   C     0.20756   0.08184   0.87907   0.00000  Uiso   1.00
C110   C     0.63174   0.16434   0.76693   0.00000  Uiso   1.00
C111   C     0.72332   0.19171   0.84987   0.00000  Uiso   1.00
C112   C     0.74502   0.24558   0.82380   0.00000  Uiso   1.00
C113   C     0.63024   0.08052   0.64513   0.00000  Uiso   1.00
C114   C     0.72060   0.03741   0.62565   0.00000  Uiso   1.00
C115   C     0.74108   0.02072   0.49703   0.00000  Uiso   1.00
H116   H     0.41600   0.17219   0.50175   0.00000  Uiso   1.00
H117   H     0.16480   0.15112   0.59195   0.00000  Uiso   1.00
H118   H     0.53355   0.26346   0.55402   0.00000  Uiso   1.00
H119   H     0.53082   0.10918   0.32984   0.00000  Uiso   1.00
H120   H     0.91607   0.11650   0.73839   0.00000  Uiso   1.00
H121   H     0.69363   0.35338   0.65839   0.00000  Uiso   1.00
H122   H     0.68790   0.02806   0.18566   0.00000  Uiso   1.00
H123   H     0.64542   0.08544   0.85940   0.00000  Uiso   1.00
H124   H     0.40680   0.05960   0.96923   0.00000  Uiso   1.00
H125   H     0.77555   0.17194   0.93130   0.00000  Uiso   1.00
H126   H     0.77282   0.01767   0.70712   0.00000  Uiso   1.00
H127   H     0.11249   0.04223   0.04461   0.00000  Uiso   1.00
H128   H     0.89006   0.27910   0.96460   0.00000  Uiso   1.00
H129   H     0.88431   0.95378   0.49188   0.00000  Uiso   1.00
O130   O     0.85317   0.06395   0.95732   0.00000  Uiso   1.00
O131   O     0.87332   0.37471   0.85234   0.00000  Uiso   1.00
O132   O     0.86579   0.94790   0.23213   0.00000  Uiso   1.00
N133   N     0.99505   0.10256   0.79537   0.00000  Uiso   1.00
N134   N     0.72200   0.32402   0.72059   0.00000  Uiso   1.00
N135   N     0.71667   0.01989   0.27862   0.00000  Uiso   1.00
N136   N     0.10074   0.06259   0.96015   0.00000  Uiso   1.00
N137   N     0.82769   0.28406   0.88536   0.00000  Uiso   1.00
N138   N     0.82236   0.97992   0.44340   0.00000  Uiso   1.00
C139   C     0.53145   0.84768   0.58369   0.00000  Uiso   1.00
C140   C     0.63612   0.87117   0.68228   0.00000  Uiso   1.00
C141   C     0.78299   0.86865   0.67341   0.00000  Uiso   1.00
C142   C     0.86008   0.89259   0.77363   0.00000  Uiso   1.00
C143   C     0.03287   0.92515   0.91075   0.00000  Uiso   1.00
C144   C     0.43578   0.81013   0.66169   0.00000  Uiso   1.00
C145   C     0.41420   0.75629   0.63548   0.00000  Uiso   1.00
C146   C     0.32262   0.72885   0.71836   0.00000  Uiso   1.00
C147   C     0.18430   0.66665   0.82345   0.00000  Uiso   1.00
C148   C     0.43727   0.89395   0.53988   0.00000  Uiso   1.00
C149   C     0.41691   0.91059   0.41126   0.00000  Uiso   1.00
C150   C     0.32656   0.95371   0.39159   0.00000  Uiso   1.00
C151   C     0.19056   0.02167   0.30755   0.00000  Uiso   1.00
C152   C     0.40715   0.89468   0.77746   0.00000  Uiso   1.00
C153   C     0.56860   0.89670   0.78753   0.00000  Uiso   1.00
C154   C     0.64548   0.92065   0.88779   0.00000  Uiso   1.00
C155   C     0.79244   0.91816   0.87907   0.00000  Uiso   1.00
C156   C     0.36826   0.83566   0.76693   0.00000  Uiso   1.00
C157   C     0.27668   0.80829   0.84987   0.00000  Uiso   1.00
C158   C     0.25498   0.75442   0.82380   0.00000  Uiso   1.00
C159   C     0.36976   0.91948   0.64513   0.00000  Uiso   1.00
C160   C     0.27940   0.96259   0.62565   0.00000  Uiso   1.00
C161   C     0.25892   0.97928   0.49703   0.00000  Uiso   1.00
H162   H     0.58400   0.82781   0.50175   0.00000  Uiso   1.00
H163   H     0.83520   0.84888   0.59195   0.00000  Uiso   1.00
H164   H     0.46645   0.73654   0.55402   0.00000  Uiso   1.00
H165   H     0.46918   0.89082   0.32984   0.00000  Uiso   1.00
H166   H     0.08393   0.88350   0.73839   0.00000  Uiso   1.00
H167   H     0.30637   0.64662   0.65839   0.00000  Uiso   1.00
H168   H     0.31210   0.97194   0.18566   0.00000  Uiso   1.00
H169   H     0.35458   0.91456   0.85940   0.00000  Uiso   1.00
H170   H     0.59320   0.94040   0.96923   0.00000  Uiso   1.00
H171   H     0.22445   0.82806   0.93130   0.00000  Uiso   1.00
H172   H     0.22718   0.98233   0.70712   0.00000  Uiso   1.00
H173   H     0.88751   0.95777   0.04461   0.00000  Uiso   1.00
H174   H     0.10994   0.72090   0.96460   0.00000  Uiso   1.00
H175   H     0.11569   0.04622   0.49188   0.00000  Uiso   1.00
O176   O     0.14683   0.93605   0.95732   0.00000  Uiso   1.00
O177   O     0.12668   0.62529   0.85234   0.00000  Uiso   1.00
O178   O     0.13421   0.05210   0.23213   0.00000  Uiso   1.00
N179   N     0.00495   0.89744   0.79537   0.00000  Uiso   1.00
N180   N     0.27800   0.67598   0.72059   0.00000  Uiso   1.00
N181   N     0.28333   0.98011   0.27862   0.00000  Uiso   1.00
N182   N     0.89926   0.93741   0.96015   0.00000  Uiso   1.00
N183   N     0.17231   0.71594   0.88536   0.00000  Uiso   1.00
N184   N     0.17764   0.02008   0.44340   0.00000  Uiso   1.00
