data_job_06282
_audit_creation_date              2018-12-19
_audit_creation_method            'Materials Studio'
_symmetry_space_group_name_H-M    'P1'
_symmetry_Int_Tables_number       1
_symmetry_cell_setting            triclinic
loop_
_symmetry_equiv_pos_as_xyz
  x,y,z
_cell_length_a                    16.1461
_cell_length_b                    16.1347
_cell_length_c                    16.1249
_cell_angle_alpha                 93.9081
_cell_angle_beta                  93.9291
_cell_angle_gamma                 93.9528
loop_
_atom_site_label
_atom_site_type_symbol
_atom_site_fract_x
_atom_site_fract_y
_atom_site_fract_z
_atom_site_U_iso_or_equiv
_atom_site_adp_type
_atom_site_occupancy
C1     C     0.70274   0.07932   0.61531   0.00000  Uiso   1.00
C2     C     0.77520   0.14220   0.64547   0.00000  Uiso   1.00
C3     C     0.85844   0.13317   0.63326   0.00000  Uiso   1.00
C4     C     0.91525   0.19770   0.66570   0.00000  Uiso   1.00
C5     C     0.03165   0.28452   0.70601   0.00000  Uiso   1.00
C6     C     0.65815   0.05907   0.69262   0.00000  Uiso   1.00
C7     C     0.64297   0.98013   0.72004   0.00000  Uiso   1.00
C8     C     0.60124   0.97469   0.79218   0.00000  Uiso   1.00
C9     C     0.53587   0.93243   0.90565   0.00000  Uiso   1.00
C10    C     0.64259   0.12624   0.56222   0.00000  Uiso   1.00
C11    C     0.61430   0.10378   0.48000   0.00000  Uiso   1.00
C12    C     0.55945   0.15488   0.44235   0.00000  Uiso   1.00
C13    C     0.46992   0.21693   0.35336   0.00000  Uiso   1.00
C14    C     0.65561   0.20999   0.69464   0.00000  Uiso   1.00
C15    C     0.74959   0.21317   0.68856   0.00000  Uiso   1.00
C16    C     0.80630   0.27774   0.72103   0.00000  Uiso   1.00
C17    C     0.88961   0.26881   0.70887   0.00000  Uiso   1.00
C18    C     0.63255   0.13004   0.73571   0.00000  Uiso   1.00
C19    C     0.59082   0.12470   0.80782   0.00000  Uiso   1.00
C20    C     0.57559   0.04579   0.83535   0.00000  Uiso   1.00
C21    C     0.61699   0.19722   0.60531   0.00000  Uiso   1.00
C22    C     0.56216   0.24836   0.56778   0.00000  Uiso   1.00
C23    C     0.53380   0.22599   0.48552   0.00000  Uiso   1.00
H24    H     0.72267   0.02406   0.58176   0.00000  Uiso   1.00
H25    H     0.87823   0.07823   0.59991   0.00000  Uiso   1.00
H26    H     0.66278   0.92522   0.68668   0.00000  Uiso   1.00
H27    H     0.63413   0.04886   0.44668   0.00000  Uiso   1.00
H28    H     0.03940   0.16957   0.63906   0.00000  Uiso   1.00
H29    H     0.58510   0.84694   0.82200   0.00000  Uiso   1.00
H30    H     0.52467   0.10764   0.31591   0.00000  Uiso   1.00
H31    H     0.63568   0.26525   0.72820   0.00000  Uiso   1.00
H32    H     0.78647   0.33266   0.75437   0.00000  Uiso   1.00
H33    H     0.57102   0.17964   0.84114   0.00000  Uiso   1.00
H34    H     0.54236   0.30328   0.60115   0.00000  Uiso   1.00
H35    H     0.96493   0.37607   0.76443   0.00000  Uiso   1.00
H36    H     0.51062   0.05343   0.94737   0.00000  Uiso   1.00
H37    H     0.45019   0.31414   0.44128   0.00000  Uiso   1.00
O38    O     0.10293   0.31280   0.71635   0.00000  Uiso   1.00
O39    O     0.50689   0.88951   0.95635   0.00000  Uiso   1.00
O40    O     0.42761   0.23156   0.29237   0.00000  Uiso   1.00
N41    N     0.00118   0.20893   0.66496   0.00000  Uiso   1.00
N42    N     0.57645   0.90728   0.83600   0.00000  Uiso   1.00
N43    N     0.51993   0.15101   0.36286   0.00000  Uiso   1.00
N44    N     0.96111   0.32004   0.73242   0.00000  Uiso   1.00
N45    N     0.53637   0.01840   0.90346   0.00000  Uiso   1.00
N46    N     0.47986   0.26213   0.43032   0.00000  Uiso   1.00
C47    C     0.61565   0.70256   0.07927   0.00000  Uiso   1.00
C48    C     0.64580   0.77505   0.14216   0.00000  Uiso   1.00
C49    C     0.63362   0.85835   0.13309   0.00000  Uiso   1.00
C50    C     0.66606   0.91518   0.19765   0.00000  Uiso   1.00
C51    C     0.70636   0.03164   0.28448   0.00000  Uiso   1.00
C52    C     0.69284   0.65795   0.05903   0.00000  Uiso   1.00
C53    C     0.72021   0.64280   0.98006   0.00000  Uiso   1.00
C54    C     0.79224   0.60105   0.97463   0.00000  Uiso   1.00
C55    C     0.90554   0.53567   0.93239   0.00000  Uiso   1.00
C56    C     0.56262   0.64234   0.12624   0.00000  Uiso   1.00
C57    C     0.48050   0.61403   0.10376   0.00000  Uiso   1.00
C58    C     0.44290   0.55912   0.15491   0.00000  Uiso   1.00
C59    C     0.35402   0.46948   0.21702   0.00000  Uiso   1.00
C60    C     0.69490   0.65536   0.21005   0.00000  Uiso   1.00
C61    C     0.68885   0.74940   0.21320   0.00000  Uiso   1.00
C62    C     0.72130   0.80613   0.27778   0.00000  Uiso   1.00
C63    C     0.70918   0.88950   0.26881   0.00000  Uiso   1.00
C64    C     0.73589   0.63231   0.13006   0.00000  Uiso   1.00
C65    C     0.80789   0.59058   0.12475   0.00000  Uiso   1.00
C66    C     0.83536   0.57537   0.04579   0.00000  Uiso   1.00
C67    C     0.60567   0.61670   0.19727   0.00000  Uiso   1.00
C68    C     0.56819   0.56181   0.24846   0.00000  Uiso   1.00
C69    C     0.48602   0.53343   0.22607   0.00000  Uiso   1.00
H70    H     0.58214   0.72252   0.02397   0.00000  Uiso   1.00
H71    H     0.60032   0.87817   0.07811   0.00000  Uiso   1.00
H72    H     0.68688   0.66264   0.92510   0.00000  Uiso   1.00
H73    H     0.44721   0.63388   0.04879   0.00000  Uiso   1.00
H74    H     0.63947   0.03943   0.16945   0.00000  Uiso   1.00
H75    H     0.82199   0.58496   0.84682   0.00000  Uiso   1.00
H76    H     0.31660   0.52431   0.10764   0.00000  Uiso   1.00
H77    H     0.72842   0.63539   0.26535   0.00000  Uiso   1.00
H78    H     0.75461   0.78627   0.33274   0.00000  Uiso   1.00
H79    H     0.84118   0.57074   0.17973   0.00000  Uiso   1.00
H80    H     0.60151   0.54198   0.30342   0.00000  Uiso   1.00
H81    H     0.76471   0.96484   0.37612   0.00000  Uiso   1.00
H82    H     0.94722   0.51036   0.05348   0.00000  Uiso   1.00
H83    H     0.44184   0.44972   0.31430   0.00000  Uiso   1.00
O84    O     0.71671   0.10296   0.31275   0.00000  Uiso   1.00
O85    O     0.95615   0.50669   0.88946   0.00000  Uiso   1.00
O86    O     0.29310   0.42713   0.23166   0.00000  Uiso   1.00
N87    N     0.66534   0.00117   0.20885   0.00000  Uiso   1.00
N88    N     0.83599   0.57627   0.90720   0.00000  Uiso   1.00
N89    N     0.36350   0.51956   0.15104   0.00000  Uiso   1.00
N90    N     0.73273   0.96103   0.32005   0.00000  Uiso   1.00
N91    N     0.90337   0.53614   0.01841   0.00000  Uiso   1.00
N92    N     0.43089   0.47942   0.26225   0.00000  Uiso   1.00
C93    C     0.07937   0.61539   0.70235   0.00000  Uiso   1.00
C94    C     0.14221   0.64555   0.77487   0.00000  Uiso   1.00
C95    C     0.13316   0.63333   0.85823   0.00000  Uiso   1.00
C96    C     0.19766   0.66577   0.91509   0.00000  Uiso   1.00
C97    C     0.28441   0.70607   0.03161   0.00000  Uiso   1.00
C98    C     0.05916   0.69265   0.65768   0.00000  Uiso   1.00
C99    C     0.98030   0.72003   0.64250   0.00000  Uiso   1.00
C100   C     0.97489   0.79213   0.60070   0.00000  Uiso   1.00
C101   C     0.93271   0.90553   0.53523   0.00000  Uiso   1.00
C102   C     0.12625   0.56236   0.64211   0.00000  Uiso   1.00
C103   C     0.10378   0.48019   0.61382   0.00000  Uiso   1.00
C104   C     0.15484   0.44259   0.55889   0.00000  Uiso   1.00
C105   C     0.21682   0.35368   0.46925   0.00000  Uiso   1.00
C106   C     0.20999   0.69473   0.65510   0.00000  Uiso   1.00
C107   C     0.21315   0.68864   0.74921   0.00000  Uiso   1.00
C108   C     0.27768   0.72111   0.80596   0.00000  Uiso   1.00
C109   C     0.26873   0.70894   0.88939   0.00000  Uiso   1.00
C110   C     0.13011   0.73575   0.63202   0.00000  Uiso   1.00
C111   C     0.12481   0.80782   0.59023   0.00000  Uiso   1.00
C112   C     0.04596   0.83530   0.57499   0.00000  Uiso   1.00
C113   C     0.19719   0.60545   0.61645   0.00000  Uiso   1.00
C114   C     0.24829   0.56797   0.56155   0.00000  Uiso   1.00
C115   C     0.22591   0.48576   0.53318   0.00000  Uiso   1.00
H116   H     0.02414   0.58184   0.72232   0.00000  Uiso   1.00
H117   H     0.07825   0.59998   0.87807   0.00000  Uiso   1.00
H118   H     0.92541   0.68667   0.66236   0.00000  Uiso   1.00
H119   H     0.04887   0.44686   0.63369   0.00000  Uiso   1.00
H120   H     0.16952   0.63912   0.03942   0.00000  Uiso   1.00
H121   H     0.84724   0.82189   0.58457   0.00000  Uiso   1.00
H122   H     0.10758   0.31620   0.52411   0.00000  Uiso   1.00
H123   H     0.26522   0.72829   0.63512   0.00000  Uiso   1.00
H124   H     0.33257   0.75446   0.78608   0.00000  Uiso   1.00
H125   H     0.17973   0.84115   0.57038   0.00000  Uiso   1.00
H126   H     0.30319   0.60134   0.54171   0.00000  Uiso   1.00
H127   H     0.37593   0.76450   0.96477   0.00000  Uiso   1.00
H128   H     0.05365   0.94727   0.50991   0.00000  Uiso   1.00
H129   H     0.31400   0.44159   0.44945   0.00000  Uiso   1.00
O130   O     0.31266   0.71641   0.10297   0.00000  Uiso   1.00
O131   O     0.88985   0.95618   0.50621   0.00000  Uiso   1.00
O132   O     0.23141   0.29274   0.42690   0.00000  Uiso   1.00
N133   N     0.20886   0.66502   0.00113   0.00000  Uiso   1.00
N134   N     0.90755   0.83591   0.57588   0.00000  Uiso   1.00
N135   N     0.15094   0.36314   0.51934   0.00000  Uiso   1.00
N136   N     0.31993   0.73249   0.96096   0.00000  Uiso   1.00
N137   N     0.01862   0.90337   0.53571   0.00000  Uiso   1.00
N138   N     0.26201   0.43061   0.47917   0.00000  Uiso   1.00
C139   C     0.29726   0.92068   0.38469   0.00000  Uiso   1.00
C140   C     0.22480   0.85780   0.35453   0.00000  Uiso   1.00
C141   C     0.14156   0.86683   0.36674   0.00000  Uiso   1.00
C142   C     0.08475   0.80230   0.33430   0.00000  Uiso   1.00
C143   C     0.96835   0.71548   0.29399   0.00000  Uiso   1.00
C144   C     0.34185   0.94093   0.30738   0.00000  Uiso   1.00
C145   C     0.35703   0.01987   0.27996   0.00000  Uiso   1.00
C146   C     0.39876   0.02531   0.20782   0.00000  Uiso   1.00
C147   C     0.46413   0.06757   0.09435   0.00000  Uiso   1.00
C148   C     0.35741   0.87376   0.43778   0.00000  Uiso   1.00
C149   C     0.38570   0.89622   0.52000   0.00000  Uiso   1.00
C150   C     0.44055   0.84511   0.55765   0.00000  Uiso   1.00
C151   C     0.53008   0.78307   0.64664   0.00000  Uiso   1.00
C152   C     0.34439   0.79001   0.30536   0.00000  Uiso   1.00
C153   C     0.25041   0.78683   0.31144   0.00000  Uiso   1.00
C154   C     0.19370   0.72226   0.27897   0.00000  Uiso   1.00
C155   C     0.11039   0.73119   0.29113   0.00000  Uiso   1.00
C156   C     0.36745   0.86996   0.26429   0.00000  Uiso   1.00
C157   C     0.40918   0.87530   0.19218   0.00000  Uiso   1.00
C158   C     0.42441   0.95421   0.16465   0.00000  Uiso   1.00
C159   C     0.38301   0.80278   0.39469   0.00000  Uiso   1.00
C160   C     0.43784   0.75164   0.43222   0.00000  Uiso   1.00
C161   C     0.46620   0.77401   0.51448   0.00000  Uiso   1.00
H162   H     0.27733   0.97594   0.41824   0.00000  Uiso   1.00
H163   H     0.12177   0.92177   0.40009   0.00000  Uiso   1.00
H164   H     0.33722   0.07478   0.31332   0.00000  Uiso   1.00
H165   H     0.36587   0.95114   0.55332   0.00000  Uiso   1.00
H166   H     0.96060   0.83043   0.36094   0.00000  Uiso   1.00
H167   H     0.41490   0.15306   0.17800   0.00000  Uiso   1.00
H168   H     0.47533   0.89236   0.68409   0.00000  Uiso   1.00
H169   H     0.36432   0.73475   0.27181   0.00000  Uiso   1.00
H170   H     0.21353   0.66734   0.24563   0.00000  Uiso   1.00
H171   H     0.42898   0.82036   0.15886   0.00000  Uiso   1.00
H172   H     0.45764   0.69672   0.39885   0.00000  Uiso   1.00
H173   H     0.03507   0.62393   0.23557   0.00000  Uiso   1.00
H174   H     0.48938   0.94657   0.05263   0.00000  Uiso   1.00
H175   H     0.54981   0.68586   0.55872   0.00000  Uiso   1.00
O176   O     0.89707   0.68720   0.28365   0.00000  Uiso   1.00
O177   O     0.49311   0.11049   0.04365   0.00000  Uiso   1.00
O178   O     0.57239   0.76845   0.70763   0.00000  Uiso   1.00
N179   N     0.99882   0.79107   0.33504   0.00000  Uiso   1.00
N180   N     0.42355   0.09272   0.16400   0.00000  Uiso   1.00
N181   N     0.48007   0.84899   0.63714   0.00000  Uiso   1.00
N182   N     0.03889   0.67996   0.26758   0.00000  Uiso   1.00
N183   N     0.46363   0.98160   0.09654   0.00000  Uiso   1.00
N184   N     0.52014   0.73787   0.56968   0.00000  Uiso   1.00
C185   C     0.38435   0.29744   0.92073   0.00000  Uiso   1.00
C186   C     0.35420   0.22495   0.85784   0.00000  Uiso   1.00
C187   C     0.36638   0.14165   0.86691   0.00000  Uiso   1.00
C188   C     0.33394   0.08482   0.80235   0.00000  Uiso   1.00
C189   C     0.29364   0.96836   0.71552   0.00000  Uiso   1.00
C190   C     0.30716   0.34205   0.94097   0.00000  Uiso   1.00
C191   C     0.27979   0.35720   0.01994   0.00000  Uiso   1.00
C192   C     0.20776   0.39895   0.02537   0.00000  Uiso   1.00
C193   C     0.09446   0.46433   0.06761   0.00000  Uiso   1.00
C194   C     0.43738   0.35766   0.87376   0.00000  Uiso   1.00
C195   C     0.51950   0.38597   0.89624   0.00000  Uiso   1.00
C196   C     0.55710   0.44088   0.84509   0.00000  Uiso   1.00
C197   C     0.64598   0.53052   0.78298   0.00000  Uiso   1.00
C198   C     0.30510   0.34464   0.78995   0.00000  Uiso   1.00
C199   C     0.31115   0.25060   0.78681   0.00000  Uiso   1.00
C200   C     0.27870   0.19387   0.72222   0.00000  Uiso   1.00
C201   C     0.29082   0.11050   0.73119   0.00000  Uiso   1.00
C202   C     0.26411   0.36769   0.86994   0.00000  Uiso   1.00
C203   C     0.19211   0.40942   0.87526   0.00000  Uiso   1.00
C204   C     0.16464   0.42463   0.95421   0.00000  Uiso   1.00
C205   C     0.39433   0.38330   0.80273   0.00000  Uiso   1.00
C206   C     0.43181   0.43819   0.75155   0.00000  Uiso   1.00
C207   C     0.51398   0.46657   0.77393   0.00000  Uiso   1.00
H208   H     0.41786   0.27748   0.97603   0.00000  Uiso   1.00
H209   H     0.39968   0.12183   0.92189   0.00000  Uiso   1.00
H210   H     0.31312   0.33736   0.07490   0.00000  Uiso   1.00
H211   H     0.55279   0.36612   0.95121   0.00000  Uiso   1.00
H212   H     0.36053   0.96057   0.83055   0.00000  Uiso   1.00
H213   H     0.17801   0.41504   0.15318   0.00000  Uiso   1.00
H214   H     0.68340   0.47569   0.89236   0.00000  Uiso   1.00
H215   H     0.27158   0.36461   0.73465   0.00000  Uiso   1.00
H216   H     0.24539   0.21373   0.66726   0.00000  Uiso   1.00
H217   H     0.15882   0.42926   0.82027   0.00000  Uiso   1.00
H218   H     0.39849   0.45802   0.69658   0.00000  Uiso   1.00
H219   H     0.23529   0.03516   0.62388   0.00000  Uiso   1.00
H220   H     0.05278   0.48964   0.94652   0.00000  Uiso   1.00
H221   H     0.55816   0.55028   0.68570   0.00000  Uiso   1.00
O222   O     0.28329   0.89704   0.68725   0.00000  Uiso   1.00
O223   O     0.04385   0.49331   0.11054   0.00000  Uiso   1.00
O224   O     0.70690   0.57287   0.76834   0.00000  Uiso   1.00
N225   N     0.33466   0.99883   0.79115   0.00000  Uiso   1.00
N226   N     0.16401   0.42373   0.09280   0.00000  Uiso   1.00
N227   N     0.63650   0.48044   0.84896   0.00000  Uiso   1.00
N228   N     0.26727   0.03897   0.67995   0.00000  Uiso   1.00
N229   N     0.09663   0.46386   0.98159   0.00000  Uiso   1.00
N230   N     0.56911   0.52058   0.73776   0.00000  Uiso   1.00
C231   C     0.92063   0.38461   0.29765   0.00000  Uiso   1.00
C232   C     0.85779   0.35445   0.22513   0.00000  Uiso   1.00
C233   C     0.86684   0.36667   0.14177   0.00000  Uiso   1.00
C234   C     0.80234   0.33423   0.08491   0.00000  Uiso   1.00
C235   C     0.71559   0.29393   0.96839   0.00000  Uiso   1.00
C236   C     0.94084   0.30735   0.34232   0.00000  Uiso   1.00
C237   C     0.01970   0.27997   0.35750   0.00000  Uiso   1.00
C238   C     0.02511   0.20787   0.39930   0.00000  Uiso   1.00
C239   C     0.06729   0.09447   0.46477   0.00000  Uiso   1.00
C240   C     0.87375   0.43764   0.35789   0.00000  Uiso   1.00
C241   C     0.89622   0.51981   0.38618   0.00000  Uiso   1.00
C242   C     0.84516   0.55741   0.44111   0.00000  Uiso   1.00
C243   C     0.78318   0.64632   0.53075   0.00000  Uiso   1.00
C244   C     0.79001   0.30527   0.34490   0.00000  Uiso   1.00
C245   C     0.78685   0.31136   0.25079   0.00000  Uiso   1.00
C246   C     0.72232   0.27889   0.19404   0.00000  Uiso   1.00
C247   C     0.73127   0.29106   0.11061   0.00000  Uiso   1.00
C248   C     0.86989   0.26425   0.36798   0.00000  Uiso   1.00
C249   C     0.87519   0.19218   0.40977   0.00000  Uiso   1.00
C250   C     0.95404   0.16470   0.42501   0.00000  Uiso   1.00
C251   C     0.80281   0.39455   0.38355   0.00000  Uiso   1.00
C252   C     0.75171   0.43203   0.43845   0.00000  Uiso   1.00
C253   C     0.77409   0.51424   0.46682   0.00000  Uiso   1.00
H254   H     0.97586   0.41815   0.27768   0.00000  Uiso   1.00
H255   H     0.92175   0.40002   0.12193   0.00000  Uiso   1.00
H256   H     0.07459   0.31333   0.33764   0.00000  Uiso   1.00
H257   H     0.95113   0.55314   0.36631   0.00000  Uiso   1.00
H258   H     0.83048   0.36088   0.96058   0.00000  Uiso   1.00
H259   H     0.15276   0.17811   0.41543   0.00000  Uiso   1.00
H260   H     0.89242   0.68380   0.47589   0.00000  Uiso   1.00
H261   H     0.73478   0.27171   0.36488   0.00000  Uiso   1.00
H262   H     0.66743   0.24554   0.21392   0.00000  Uiso   1.00
H263   H     0.82027   0.15885   0.42962   0.00000  Uiso   1.00
H264   H     0.69681   0.39866   0.45829   0.00000  Uiso   1.00
H265   H     0.62407   0.23550   0.03523   0.00000  Uiso   1.00
H266   H     0.94635   0.05273   0.49009   0.00000  Uiso   1.00
H267   H     0.68600   0.55841   0.55055   0.00000  Uiso   1.00
O268   O     0.68734   0.28359   0.89703   0.00000  Uiso   1.00
O269   O     0.11015   0.04382   0.49379   0.00000  Uiso   1.00
O270   O     0.76859   0.70726   0.57310   0.00000  Uiso   1.00
N271   N     0.79114   0.33498   0.99887   0.00000  Uiso   1.00
N272   N     0.09245   0.16409   0.42412   0.00000  Uiso   1.00
N273   N     0.84906   0.63686   0.48066   0.00000  Uiso   1.00
N274   N     0.68007   0.26751   0.03904   0.00000  Uiso   1.00
N275   N     0.98138   0.09663   0.46429   0.00000  Uiso   1.00
N276   N     0.73799   0.56939   0.52083   0.00000  Uiso   1.00
