data_job_02150
_audit_creation_date              2018-12-19
_audit_creation_method            'Materials Studio'
_symmetry_space_group_name_H-M    'P1'
_symmetry_Int_Tables_number       1
_symmetry_cell_setting            triclinic
loop_
_symmetry_equiv_pos_as_xyz
  x,y,z
_cell_length_a                    12.1151
_cell_length_b                    24.0105
_cell_length_c                    9.6528
_cell_angle_alpha                 90.0000
_cell_angle_beta                  104.4746
_cell_angle_gamma                 90.0000
loop_
_atom_site_label
_atom_site_type_symbol
_atom_site_fract_x
_atom_site_fract_y
_atom_site_fract_z
_atom_site_U_iso_or_equiv
_atom_site_adp_type
_atom_site_occupancy
C1     C     0.55500   0.81526   0.74098   0.00000  Uiso   1.00
C2     C     0.58047   0.86177   0.85202   0.00000  Uiso   1.00
C3     C     0.58225   0.85638   0.99571   0.00000  Uiso   1.00
C4     C     0.60736   0.90387   0.07975   0.00000  Uiso   1.00
C5     C     0.64344   0.96833   0.26092   0.00000  Uiso   1.00
C6     C     0.45541   0.83577   0.62194   0.00000  Uiso   1.00
C7     C     0.35206   0.80852   0.57216   0.00000  Uiso   1.00
C8     C     0.27190   0.83413   0.46250   0.00000  Uiso   1.00
C9     C     0.11386   0.85821   0.28640   0.00000  Uiso   1.00
C10    C     0.65747   0.81262   0.67617   0.00000  Uiso   1.00
C11    C     0.72400   0.76590   0.67195   0.00000  Uiso   1.00
C12    C     0.81395   0.77201   0.60792   0.00000  Uiso   1.00
C13    C     0.96963   0.76014   0.51602   0.00000  Uiso   1.00
C14    C     0.59642   0.90919   0.63472   0.00000  Uiso   1.00
C15    C     0.60297   0.91279   0.79430   0.00000  Uiso   1.00
C16    C     0.62809   0.96030   0.87814   0.00000  Uiso   1.00
C17    C     0.62991   0.95498   0.02193   0.00000  Uiso   1.00
C18    C     0.47791   0.88679   0.56422   0.00000  Uiso   1.00
C19    C     0.39789   0.91244   0.45460   0.00000  Uiso   1.00
C20    C     0.29444   0.88524   0.40468   0.00000  Uiso   1.00
C21    C     0.67998   0.86364   0.61845   0.00000  Uiso   1.00
C22    C     0.76984   0.86982   0.55440   0.00000  Uiso   1.00
C23    C     0.83649   0.82312   0.55009   0.00000  Uiso   1.00
H24    H     0.53747   0.77554   0.78591   0.00000  Uiso   1.00
H25    H     0.56482   0.81689   0.04033   0.00000  Uiso   1.00
H26    H     0.33467   0.76904   0.61684   0.00000  Uiso   1.00
H27    H     0.70656   0.72642   0.71663   0.00000  Uiso   1.00
H28    H     0.60504   0.88523   0.29694   0.00000  Uiso   1.00
H29    H     0.11976   0.78433   0.40396   0.00000  Uiso   1.00
H30    H     0.90395   0.69446   0.61437   0.00000  Uiso   1.00
H31    H     0.61394   0.94891   0.58978   0.00000  Uiso   1.00
H32    H     0.64550   0.99978   0.83345   0.00000  Uiso   1.00
H33    H     0.41534   0.95192   0.40996   0.00000  Uiso   1.00
H34    H     0.78722   0.90931   0.50974   0.00000  Uiso   1.00
H35    H     0.67051   0.03367   0.12902   0.00000  Uiso   1.00
H36    H     0.18523   0.93276   0.23603   0.00000  Uiso   1.00
H37    H     0.96942   0.84290   0.44645   0.00000  Uiso   1.00
O38    O     0.65711   0.98979   0.37680   0.00000  Uiso   1.00
O39    O     0.02046   0.85740   0.20522   0.00000  Uiso   1.00
O40    O     0.04930   0.73950   0.48129   0.00000  Uiso   1.00
N41    N     0.61614   0.91319   0.22398   0.00000  Uiso   1.00
N42    N     0.16243   0.81885   0.38912   0.00000  Uiso   1.00
N43    N     0.89556   0.73483   0.58580   0.00000  Uiso   1.00
N44    N     0.65137   0.99306   0.13363   0.00000  Uiso   1.00
N45    N     0.19766   0.89872   0.29876   0.00000  Uiso   1.00
N46    N     0.93079   0.81470   0.49545   0.00000  Uiso   1.00
C47    C     0.44500   0.31526   0.75902   0.00000  Uiso   1.00
C48    C     0.41953   0.36177   0.64798   0.00000  Uiso   1.00
C49    C     0.41775   0.35638   0.50429   0.00000  Uiso   1.00
C50    C     0.39264   0.40387   0.42025   0.00000  Uiso   1.00
C51    C     0.35656   0.46833   0.23908   0.00000  Uiso   1.00
C52    C     0.54459   0.33577   0.87806   0.00000  Uiso   1.00
C53    C     0.64794   0.30852   0.92784   0.00000  Uiso   1.00
C54    C     0.72810   0.33413   0.03750   0.00000  Uiso   1.00
C55    C     0.88614   0.35821   0.21360   0.00000  Uiso   1.00
C56    C     0.34253   0.31262   0.82383   0.00000  Uiso   1.00
C57    C     0.27600   0.26590   0.82805   0.00000  Uiso   1.00
C58    C     0.18605   0.27201   0.89208   0.00000  Uiso   1.00
C59    C     0.03037   0.26014   0.98398   0.00000  Uiso   1.00
C60    C     0.40358   0.40919   0.86528   0.00000  Uiso   1.00
C61    C     0.39703   0.41279   0.70570   0.00000  Uiso   1.00
C62    C     0.37191   0.46030   0.62186   0.00000  Uiso   1.00
C63    C     0.37009   0.45498   0.47807   0.00000  Uiso   1.00
C64    C     0.52209   0.38679   0.93578   0.00000  Uiso   1.00
C65    C     0.60211   0.41244   0.04540   0.00000  Uiso   1.00
C66    C     0.70556   0.38524   0.09532   0.00000  Uiso   1.00
C67    C     0.32002   0.36364   0.88155   0.00000  Uiso   1.00
C68    C     0.23016   0.36982   0.94560   0.00000  Uiso   1.00
C69    C     0.16351   0.32312   0.94991   0.00000  Uiso   1.00
H70    H     0.46253   0.27554   0.71409   0.00000  Uiso   1.00
H71    H     0.43518   0.31689   0.45967   0.00000  Uiso   1.00
H72    H     0.66533   0.26904   0.88316   0.00000  Uiso   1.00
H73    H     0.29344   0.22642   0.78337   0.00000  Uiso   1.00
H74    H     0.39496   0.38523   0.20306   0.00000  Uiso   1.00
H75    H     0.88024   0.28433   0.09604   0.00000  Uiso   1.00
H76    H     0.09605   0.19446   0.88563   0.00000  Uiso   1.00
H77    H     0.38606   0.44891   0.91022   0.00000  Uiso   1.00
H78    H     0.35450   0.49978   0.66655   0.00000  Uiso   1.00
H79    H     0.58466   0.45192   0.09004   0.00000  Uiso   1.00
H80    H     0.21278   0.40931   0.99026   0.00000  Uiso   1.00
H81    H     0.32949   0.53367   0.37098   0.00000  Uiso   1.00
H82    H     0.81477   0.43276   0.26397   0.00000  Uiso   1.00
H83    H     0.03058   0.34290   0.05355   0.00000  Uiso   1.00
O84    O     0.34289   0.48979   0.12320   0.00000  Uiso   1.00
O85    O     0.97954   0.35740   0.29478   0.00000  Uiso   1.00
O86    O     0.95070   0.23950   0.01871   0.00000  Uiso   1.00
N87    N     0.38386   0.41319   0.27602   0.00000  Uiso   1.00
N88    N     0.83757   0.31885   0.11088   0.00000  Uiso   1.00
N89    N     0.10444   0.23483   0.91420   0.00000  Uiso   1.00
N90    N     0.34863   0.49306   0.36637   0.00000  Uiso   1.00
N91    N     0.80234   0.39872   0.20124   0.00000  Uiso   1.00
N92    N     0.06921   0.31470   0.00455   0.00000  Uiso   1.00
C93    C     0.44500   0.18474   0.25902   0.00000  Uiso   1.00
C94    C     0.41953   0.13823   0.14798   0.00000  Uiso   1.00
C95    C     0.41775   0.14362   0.00429   0.00000  Uiso   1.00
C96    C     0.39264   0.09613   0.92025   0.00000  Uiso   1.00
C97    C     0.35656   0.03167   0.73908   0.00000  Uiso   1.00
C98    C     0.54459   0.16423   0.37806   0.00000  Uiso   1.00
C99    C     0.64794   0.19148   0.42784   0.00000  Uiso   1.00
C100   C     0.72810   0.16587   0.53750   0.00000  Uiso   1.00
C101   C     0.88614   0.14179   0.71360   0.00000  Uiso   1.00
C102   C     0.34253   0.18738   0.32383   0.00000  Uiso   1.00
C103   C     0.27600   0.23410   0.32805   0.00000  Uiso   1.00
C104   C     0.18605   0.22799   0.39208   0.00000  Uiso   1.00
C105   C     0.03037   0.23986   0.48398   0.00000  Uiso   1.00
C106   C     0.40358   0.09081   0.36528   0.00000  Uiso   1.00
C107   C     0.39703   0.08721   0.20570   0.00000  Uiso   1.00
C108   C     0.37191   0.03970   0.12186   0.00000  Uiso   1.00
C109   C     0.37009   0.04502   0.97807   0.00000  Uiso   1.00
C110   C     0.52209   0.11321   0.43578   0.00000  Uiso   1.00
C111   C     0.60211   0.08756   0.54540   0.00000  Uiso   1.00
C112   C     0.70556   0.11476   0.59532   0.00000  Uiso   1.00
C113   C     0.32002   0.13636   0.38155   0.00000  Uiso   1.00
C114   C     0.23016   0.13018   0.44560   0.00000  Uiso   1.00
C115   C     0.16351   0.17688   0.44991   0.00000  Uiso   1.00
H116   H     0.46253   0.22446   0.21409   0.00000  Uiso   1.00
H117   H     0.43518   0.18311   0.95967   0.00000  Uiso   1.00
H118   H     0.66533   0.23096   0.38316   0.00000  Uiso   1.00
H119   H     0.29344   0.27358   0.28337   0.00000  Uiso   1.00
H120   H     0.39496   0.11477   0.70306   0.00000  Uiso   1.00
H121   H     0.88024   0.21567   0.59604   0.00000  Uiso   1.00
H122   H     0.09605   0.30554   0.38563   0.00000  Uiso   1.00
H123   H     0.38606   0.05109   0.41022   0.00000  Uiso   1.00
H124   H     0.35450   0.00022   0.16655   0.00000  Uiso   1.00
H125   H     0.58466   0.04808   0.59004   0.00000  Uiso   1.00
H126   H     0.21278   0.09069   0.49026   0.00000  Uiso   1.00
H127   H     0.32949   0.96633   0.87098   0.00000  Uiso   1.00
H128   H     0.81477   0.06724   0.76397   0.00000  Uiso   1.00
H129   H     0.03058   0.15710   0.55355   0.00000  Uiso   1.00
O130   O     0.34289   0.01021   0.62320   0.00000  Uiso   1.00
O131   O     0.97954   0.14260   0.79478   0.00000  Uiso   1.00
O132   O     0.95070   0.26050   0.51871   0.00000  Uiso   1.00
N133   N     0.38386   0.08681   0.77602   0.00000  Uiso   1.00
N134   N     0.83757   0.18115   0.61088   0.00000  Uiso   1.00
N135   N     0.10444   0.26517   0.41420   0.00000  Uiso   1.00
N136   N     0.34863   0.00694   0.86637   0.00000  Uiso   1.00
N137   N     0.80234   0.10128   0.70124   0.00000  Uiso   1.00
N138   N     0.06921   0.18530   0.50455   0.00000  Uiso   1.00
C139   C     0.55500   0.68474   0.24098   0.00000  Uiso   1.00
C140   C     0.58047   0.63823   0.35202   0.00000  Uiso   1.00
C141   C     0.58225   0.64362   0.49571   0.00000  Uiso   1.00
C142   C     0.60736   0.59613   0.57975   0.00000  Uiso   1.00
C143   C     0.64344   0.53167   0.76092   0.00000  Uiso   1.00
C144   C     0.45541   0.66423   0.12194   0.00000  Uiso   1.00
C145   C     0.35206   0.69148   0.07216   0.00000  Uiso   1.00
C146   C     0.27190   0.66587   0.96250   0.00000  Uiso   1.00
C147   C     0.11386   0.64179   0.78640   0.00000  Uiso   1.00
C148   C     0.65747   0.68738   0.17617   0.00000  Uiso   1.00
C149   C     0.72400   0.73410   0.17195   0.00000  Uiso   1.00
C150   C     0.81395   0.72799   0.10792   0.00000  Uiso   1.00
C151   C     0.96963   0.73986   0.01602   0.00000  Uiso   1.00
C152   C     0.59642   0.59081   0.13472   0.00000  Uiso   1.00
C153   C     0.60297   0.58721   0.29430   0.00000  Uiso   1.00
C154   C     0.62809   0.53970   0.37814   0.00000  Uiso   1.00
C155   C     0.62991   0.54502   0.52193   0.00000  Uiso   1.00
C156   C     0.47791   0.61321   0.06422   0.00000  Uiso   1.00
C157   C     0.39789   0.58756   0.95460   0.00000  Uiso   1.00
C158   C     0.29444   0.61476   0.90468   0.00000  Uiso   1.00
C159   C     0.67998   0.63636   0.11845   0.00000  Uiso   1.00
C160   C     0.76984   0.63018   0.05440   0.00000  Uiso   1.00
C161   C     0.83649   0.67688   0.05009   0.00000  Uiso   1.00
H162   H     0.53747   0.72446   0.28591   0.00000  Uiso   1.00
H163   H     0.56482   0.68311   0.54033   0.00000  Uiso   1.00
H164   H     0.33467   0.73096   0.11684   0.00000  Uiso   1.00
H165   H     0.70656   0.77358   0.21663   0.00000  Uiso   1.00
H166   H     0.60504   0.61477   0.79694   0.00000  Uiso   1.00
H167   H     0.11976   0.71567   0.90396   0.00000  Uiso   1.00
H168   H     0.90395   0.80554   0.11437   0.00000  Uiso   1.00
H169   H     0.61394   0.55109   0.08978   0.00000  Uiso   1.00
H170   H     0.64550   0.50022   0.33345   0.00000  Uiso   1.00
H171   H     0.41534   0.54808   0.90996   0.00000  Uiso   1.00
H172   H     0.78722   0.59069   0.00974   0.00000  Uiso   1.00
H173   H     0.67051   0.46633   0.62902   0.00000  Uiso   1.00
H174   H     0.18523   0.56724   0.73603   0.00000  Uiso   1.00
H175   H     0.96942   0.65710   0.94645   0.00000  Uiso   1.00
O176   O     0.65711   0.51021   0.87680   0.00000  Uiso   1.00
O177   O     0.02046   0.64260   0.70522   0.00000  Uiso   1.00
O178   O     0.04930   0.76050   0.98129   0.00000  Uiso   1.00
N179   N     0.61614   0.58681   0.72398   0.00000  Uiso   1.00
N180   N     0.16243   0.68115   0.88912   0.00000  Uiso   1.00
N181   N     0.89556   0.76517   0.08580   0.00000  Uiso   1.00
N182   N     0.65137   0.50694   0.63363   0.00000  Uiso   1.00
N183   N     0.19766   0.60128   0.79876   0.00000  Uiso   1.00
N184   N     0.93079   0.68530   0.99545   0.00000  Uiso   1.00
