data_job_06613
_audit_creation_date              2018-12-19
_audit_creation_method            'Materials Studio'
_symmetry_space_group_name_H-M    'P1'
_symmetry_Int_Tables_number       1
_symmetry_cell_setting            triclinic
loop_
_symmetry_equiv_pos_as_xyz
  x,y,z
_cell_length_a                    18.8658
_cell_length_b                    21.1591
_cell_length_c                    20.6911
_cell_angle_alpha                 108.3970
_cell_angle_beta                  89.2359
_cell_angle_gamma                 84.5520
loop_
_atom_site_label
_atom_site_type_symbol
_atom_site_fract_x
_atom_site_fract_y
_atom_site_fract_z
_atom_site_U_iso_or_equiv
_atom_site_adp_type
_atom_site_occupancy
C1     C     0.26745   0.80837   0.59804   0.00000  Uiso   1.00
C2     C     0.22329   0.74947   0.57158   0.00000  Uiso   1.00
C3     C     0.16066   0.74093   0.60231   0.00000  Uiso   1.00
C4     C     0.12828   0.68365   0.57011   0.00000  Uiso   1.00
C5     C     0.05529   0.59933   0.53829   0.00000  Uiso   1.00
C6     C     0.34230   0.77814   0.60561   0.00000  Uiso   1.00
C7     C     0.37973   0.79372   0.66494   0.00000  Uiso   1.00
C8     C     0.44753   0.76058   0.66138   0.00000  Uiso   1.00
C9     C     0.55931   0.72081   0.68238   0.00000  Uiso   1.00
C10    C     0.27366   0.83820   0.54031   0.00000  Uiso   1.00
C11    C     0.25340   0.90428   0.54474   0.00000  Uiso   1.00
C12    C     0.26344   0.92171   0.48620   0.00000  Uiso   1.00
C13    C     0.26866   0.97518   0.40580   0.00000  Uiso   1.00
C14    C     0.32131   0.72184   0.48623   0.00000  Uiso   1.00
C15    C     0.25255   0.70247   0.51085   0.00000  Uiso   1.00
C16    C     0.22026   0.64519   0.47860   0.00000  Uiso   1.00
C17    C     0.15759   0.63657   0.50927   0.00000  Uiso   1.00
C18    C     0.37156   0.73114   0.54488   0.00000  Uiso   1.00
C19    C     0.43932   0.69798   0.54123   0.00000  Uiso   1.00
C20    C     0.47684   0.71350   0.60054   0.00000  Uiso   1.00
C21    C     0.30292   0.79120   0.47958   0.00000  Uiso   1.00
C22    C     0.31299   0.80854   0.42103   0.00000  Uiso   1.00
C23    C     0.29275   0.87463   0.42536   0.00000  Uiso   1.00
H24    H     0.24467   0.84497   0.64533   0.00000  Uiso   1.00
H25    H     0.13804   0.77731   0.64931   0.00000  Uiso   1.00
H26    H     0.35707   0.83010   0.71193   0.00000  Uiso   1.00
H27    H     0.23077   0.94064   0.59174   0.00000  Uiso   1.00
H28    H     0.03274   0.68157   0.62696   0.00000  Uiso   1.00
H29    H     0.49459   0.79288   0.75899   0.00000  Uiso   1.00
H30    H     0.22824   0.02598   0.50555   0.00000  Uiso   1.00
H31    H     0.34409   0.68525   0.43895   0.00000  Uiso   1.00
H32    H     0.24291   0.60883   0.43160   0.00000  Uiso   1.00
H33    H     0.46194   0.66161   0.49423   0.00000  Uiso   1.00
H34    H     0.33564   0.77215   0.37404   0.00000  Uiso   1.00
H35    H     0.11785   0.54482   0.45026   0.00000  Uiso   1.00
H36    H     0.57971   0.65614   0.58230   0.00000  Uiso   1.00
H37    H     0.31336   0.88923   0.32885   0.00000  Uiso   1.00
O38    O     0.00696   0.56580   0.53751   0.00000  Uiso   1.00
O39    O     0.61289   0.71185   0.71074   0.00000  Uiso   1.00
O40    O     0.26345   0.01766   0.37823   0.00000  Uiso   1.00
N41    N     0.06665   0.65988   0.58637   0.00000  Uiso   1.00
N42    N     0.49844   0.76394   0.70982   0.00000  Uiso   1.00
N43    N     0.24945   0.98187   0.47288   0.00000  Uiso   1.00
N44    N     0.11245   0.58630   0.49129   0.00000  Uiso   1.00
N45    N     0.54424   0.69036   0.61474   0.00000  Uiso   1.00
N46    N     0.29525   0.90829   0.37780   0.00000  Uiso   1.00
C47    C     0.40857   0.43788   0.73344   0.00000  Uiso   1.00
C48    C     0.40110   0.42297   0.65692   0.00000  Uiso   1.00
C49    C     0.44029   0.37205   0.60611   0.00000  Uiso   1.00
C50    C     0.42549   0.36671   0.53915   0.00000  Uiso   1.00
C51    C     0.42184   0.33689   0.42269   0.00000  Uiso   1.00
C52    C     0.42419   0.51075   0.76107   0.00000  Uiso   1.00
C53    C     0.48277   0.53362   0.79784   0.00000  Uiso   1.00
C54    C     0.48740   0.60217   0.81856   0.00000  Uiso   1.00
C55    C     0.51956   0.70863   0.86384   0.00000  Uiso   1.00
C56    C     0.33467   0.43547   0.76277   0.00000  Uiso   1.00
C57    C     0.31799   0.39506   0.80098   0.00000  Uiso   1.00
C58    C     0.24724   0.40024   0.82314   0.00000  Uiso   1.00
C59    C     0.14042   0.38982   0.87106   0.00000  Uiso   1.00
C60    C     0.31261   0.51894   0.70489   0.00000  Uiso   1.00
C61    C     0.34898   0.46701   0.64142   0.00000  Uiso   1.00
C62    C     0.33411   0.46174   0.57452   0.00000  Uiso   1.00
C63    C     0.37327   0.41081   0.52361   0.00000  Uiso   1.00
C64    C     0.37206   0.55478   0.74557   0.00000  Uiso   1.00
C65    C     0.37660   0.62331   0.76625   0.00000  Uiso   1.00
C66    C     0.43518   0.64629   0.80303   0.00000  Uiso   1.00
C67    C     0.28254   0.47950   0.74726   0.00000  Uiso   1.00
C68    C     0.21181   0.48475   0.76938   0.00000  Uiso   1.00
C69    C     0.19502   0.44435   0.80761   0.00000  Uiso   1.00
H70    H     0.44916   0.40360   0.74552   0.00000  Uiso   1.00
H71    H     0.48063   0.33798   0.61813   0.00000  Uiso   1.00
H72    H     0.52310   0.49954   0.80983   0.00000  Uiso   1.00
H73    H     0.35834   0.36099   0.81297   0.00000  Uiso   1.00
H74    H     0.49255   0.28467   0.47005   0.00000  Uiso   1.00
H75    H     0.58209   0.62532   0.87429   0.00000  Uiso   1.00
H76    H     0.23466   0.33317   0.88090   0.00000  Uiso   1.00
H77    H     0.27202   0.55323   0.69282   0.00000  Uiso   1.00
H78    H     0.29377   0.49582   0.56253   0.00000  Uiso   1.00
H79    H     0.33625   0.65737   0.75424   0.00000  Uiso   1.00
H80    H     0.17149   0.51883   0.75737   0.00000  Uiso   1.00
H81    H     0.34089   0.41278   0.42493   0.00000  Uiso   1.00
H82    H     0.43044   0.75343   0.82918   0.00000  Uiso   1.00
H83    H     0.08301   0.46128   0.83578   0.00000  Uiso   1.00
O84    O     0.43424   0.30828   0.36273   0.00000  Uiso   1.00
O85    O     0.55171   0.75519   0.89310   0.00000  Uiso   1.00
O86    O     0.09589   0.37190   0.90176   0.00000  Uiso   1.00
N87    N     0.45386   0.32269   0.47731   0.00000  Uiso   1.00
N88    N     0.53759   0.64117   0.85525   0.00000  Uiso   1.00
N89    N     0.21277   0.36805   0.86144   0.00000  Uiso   1.00
N90    N     0.37226   0.39163   0.45303   0.00000  Uiso   1.00
N91    N     0.45598   0.71011   0.83097   0.00000  Uiso   1.00
N92    N     0.13117   0.43699   0.83716   0.00000  Uiso   1.00
C93    C     0.56019   0.73805   0.27363   0.00000  Uiso   1.00
C94    C     0.49576   0.69872   0.25417   0.00000  Uiso   1.00
C95    C     0.47019   0.67574   0.18919   0.00000  Uiso   1.00
C96    C     0.41058   0.64075   0.18193   0.00000  Uiso   1.00
C97    C     0.31552   0.58148   0.14324   0.00000  Uiso   1.00
C98    C     0.53324   0.80267   0.32972   0.00000  Uiso   1.00
C99    C     0.53920   0.86708   0.32825   0.00000  Uiso   1.00
C100   C     0.51115   0.91960   0.38459   0.00000  Uiso   1.00
C101   C     0.47432   0.02170   0.46320   0.00000  Uiso   1.00
C102   C     0.61017   0.69818   0.30735   0.00000  Uiso   1.00
C103   C     0.68081   0.67476   0.28710   0.00000  Uiso   1.00
C104   C     0.71753   0.63931   0.32461   0.00000  Uiso   1.00
C105   C     0.80013   0.57919   0.36850   0.00000  Uiso   1.00
C106   C     0.49979   0.71678   0.37628   0.00000  Uiso   1.00
C107   C     0.46296   0.68717   0.30993   0.00000  Uiso   1.00
C108   C     0.40337   0.65221   0.30276   0.00000  Uiso   1.00
C109   C     0.37772   0.62918   0.23778   0.00000  Uiso   1.00
C110   C     0.50044   0.79112   0.38547   0.00000  Uiso   1.00
C111   C     0.47238   0.84355   0.44182   0.00000  Uiso   1.00
C112   C     0.47828   0.90803   0.44044   0.00000  Uiso   1.00
C113   C     0.57736   0.68663   0.36310   0.00000  Uiso   1.00
C114   C     0.61398   0.65122   0.40066   0.00000  Uiso   1.00
C115   C     0.68466   0.62774   0.38046   0.00000  Uiso   1.00
H116   H     0.58573   0.74704   0.23023   0.00000  Uiso   1.00
H117   H     0.49559   0.68469   0.14606   0.00000  Uiso   1.00
H118   H     0.56459   0.87600   0.28510   0.00000  Uiso   1.00
H119   H     0.70618   0.68370   0.24395   0.00000  Uiso   1.00
H120   H     0.38118   0.61050   0.07734   0.00000  Uiso   1.00
H121   H     0.52669   0.01388   0.37053   0.00000  Uiso   1.00
H122   H     0.82525   0.60838   0.28375   0.00000  Uiso   1.00
H123   H     0.47425   0.70779   0.41969   0.00000  Uiso   1.00
H124   H     0.37799   0.64328   0.34591   0.00000  Uiso   1.00
H125   H     0.44700   0.83459   0.48496   0.00000  Uiso   1.00
H126   H     0.58858   0.64229   0.44380   0.00000  Uiso   1.00
H127   H     0.28573   0.57689   0.23954   0.00000  Uiso   1.00
H128   H     0.43125   0.98028   0.53274   0.00000  Uiso   1.00
H129   H     0.72980   0.57477   0.44595   0.00000  Uiso   1.00
O130   O     0.27213   0.55198   0.10650   0.00000  Uiso   1.00
O131   O     0.46306   0.08121   0.49116   0.00000  Uiso   1.00
O132   O     0.85475   0.54920   0.37730   0.00000  Uiso   1.00
N133   N     0.37193   0.61143   0.12563   0.00000  Uiso   1.00
N134   N     0.50797   0.98857   0.39975   0.00000  Uiso   1.00
N135   N     0.78710   0.60948   0.31862   0.00000  Uiso   1.00
N136   N     0.32057   0.59334   0.21292   0.00000  Uiso   1.00
N137   N     0.45661   0.97049   0.48703   0.00000  Uiso   1.00
N138   N     0.73574   0.59139   0.40591   0.00000  Uiso   1.00
C139   C     0.76154   0.25027   0.32659   0.00000  Uiso   1.00
C140   C     0.75363   0.20675   0.25320   0.00000  Uiso   1.00
C141   C     0.69586   0.21189   0.21368   0.00000  Uiso   1.00
C142   C     0.69879   0.16744   0.14773   0.00000  Uiso   1.00
C143   C     0.67762   0.10715   0.03764   0.00000  Uiso   1.00
C144   C     0.83111   0.28157   0.32671   0.00000  Uiso   1.00
C145   C     0.83848   0.34963   0.34901   0.00000  Uiso   1.00
C146   C     0.90664   0.36815   0.34496   0.00000  Uiso   1.00
C147   C     0.00576   0.42403   0.34905   0.00000  Uiso   1.00
C148   C     0.77384   0.20213   0.36775   0.00000  Uiso   1.00
C149   C     0.73308   0.20339   0.42456   0.00000  Uiso   1.00
C150   C     0.75303   0.15504   0.45507   0.00000  Uiso   1.00
C151   C     0.76323   0.08757   0.52287   0.00000  Uiso   1.00
C152   C     0.86948   0.16216   0.27976   0.00000  Uiso   1.00
C153   C     0.81226   0.15889   0.22777   0.00000  Uiso   1.00
C154   C     0.81528   0.11441   0.16187   0.00000  Uiso   1.00
C155   C     0.75753   0.11949   0.12225   0.00000  Uiso   1.00
C156   C     0.88974   0.23372   0.30128   0.00000  Uiso   1.00
C157   C     0.95790   0.25214   0.29720   0.00000  Uiso   1.00
C158   C     0.96538   0.32021   0.31948   0.00000  Uiso   1.00
C159   C     0.83247   0.15427   0.34231   0.00000  Uiso   1.00
C160   C     0.85250   0.10591   0.37274   0.00000  Uiso   1.00
C161   C     0.81177   0.10709   0.42959   0.00000  Uiso   1.00
H162   H     0.71589   0.28754   0.34639   0.00000  Uiso   1.00
H163   H     0.65050   0.24894   0.23338   0.00000  Uiso   1.00
H164   H     0.79310   0.38665   0.36870   0.00000  Uiso   1.00
H165   H     0.68771   0.24043   0.44423   0.00000  Uiso   1.00
H166   H     0.60387   0.18506   0.09686   0.00000  Uiso   1.00
H167   H     0.90455   0.47543   0.38221   0.00000  Uiso   1.00
H168   H     0.68231   0.16711   0.54148   0.00000  Uiso   1.00
H169   H     0.91512   0.12490   0.25995   0.00000  Uiso   1.00
H170   H     0.86066   0.07738   0.14220   0.00000  Uiso   1.00
H171   H     0.00326   0.21509   0.27752   0.00000  Uiso   1.00
H172   H     0.89787   0.06888   0.35305   0.00000  Uiso   1.00
H173   H     0.77444   0.04582   0.02285   0.00000  Uiso   1.00
H174   H     0.07513   0.33619   0.30820   0.00000  Uiso   1.00
H175   H     0.85289   0.02786   0.46747   0.00000  Uiso   1.00
O176   O     0.64974   0.08713   0.98394   0.00000  Uiso   1.00
O177   O     0.04423   0.46808   0.35832   0.00000  Uiso   1.00
O178   O     0.75266   0.06356   0.56728   0.00000  Uiso   1.00
N179   N     0.65148   0.15881   0.09561   0.00000  Uiso   1.00
N180   N     0.93260   0.43028   0.36238   0.00000  Uiso   1.00
N181   N     0.72484   0.14204   0.51130   0.00000  Uiso   1.00
N182   N     0.74326   0.08388   0.05578   0.00000  Uiso   1.00
N183   N     0.02439   0.35535   0.32256   0.00000  Uiso   1.00
N184   N     0.81662   0.06711   0.47148   0.00000  Uiso   1.00
C185   C     0.93516   0.27953   0.85438   0.00000  Uiso   1.00
C186   C     0.92524   0.22189   0.78990   0.00000  Uiso   1.00
C187   C     0.96886   0.20227   0.73095   0.00000  Uiso   1.00
C188   C     0.95078   0.14833   0.67755   0.00000  Uiso   1.00
C189   C     0.94445   0.06385   0.57661   0.00000  Uiso   1.00
C190   C     0.93939   0.24927   0.91223   0.00000  Uiso   1.00
C191   C     0.99490   0.25266   0.95614   0.00000  Uiso   1.00
C192   C     0.98872   0.22178   0.00572   0.00000  Uiso   1.00
C193   C     0.00434   0.17984   0.09473   0.00000  Uiso   1.00
C194   C     0.86569   0.32570   0.86787   0.00000  Uiso   1.00
C195   C     0.85923   0.39337   0.87450   0.00000  Uiso   1.00
C196   C     0.79100   0.42684   0.88676   0.00000  Uiso   1.00
C197   C     0.69219   0.50357   0.90690   0.00000  Uiso   1.00
C198   C     0.82546   0.21865   0.86437   0.00000  Uiso   1.00
C199   C     0.86566   0.18883   0.79532   0.00000  Uiso   1.00
C200   C     0.84750   0.13491   0.74200   0.00000  Uiso   1.00
C201   C     0.89108   0.11521   0.68298   0.00000  Uiso   1.00
C202   C     0.87981   0.21620   0.91765   0.00000  Uiso   1.00
C203   C     0.87354   0.18531   0.96719   0.00000  Uiso   1.00
C204   C     0.92903   0.18865   0.01116   0.00000  Uiso   1.00
C205   C     0.80610   0.29263   0.87329   0.00000  Uiso   1.00
C206   C     0.73787   0.32601   0.88555   0.00000  Uiso   1.00
C207   C     0.73131   0.39371   0.89220   0.00000  Uiso   1.00
H208   H     0.98155   0.30527   0.85016   0.00000  Uiso   1.00
H209   H     0.01497   0.22786   0.72678   0.00000  Uiso   1.00
H210   H     0.04100   0.27826   0.95193   0.00000  Uiso   1.00
H211   H     0.90535   0.41894   0.87030   0.00000  Uiso   1.00
H212   H     0.02576   0.12745   0.59238   0.00000  Uiso   1.00
H213   H     0.08064   0.23373   0.06715   0.00000  Uiso   1.00
H214   H     0.79460   0.53038   0.89502   0.00000  Uiso   1.00
H215   H     0.77907   0.19291   0.86859   0.00000  Uiso   1.00
H216   H     0.80138   0.10933   0.74621   0.00000  Uiso   1.00
H217   H     0.82742   0.15973   0.97137   0.00000  Uiso   1.00
H218   H     0.69177   0.30041   0.88974   0.00000  Uiso   1.00
H219   H     0.85241   0.03124   0.60815   0.00000  Uiso   1.00
H220   H     0.90729   0.13753   0.08293   0.00000  Uiso   1.00
H221   H     0.62124   0.43417   0.91080   0.00000  Uiso   1.00
O222   O     0.95743   0.02638   0.51944   0.00000  Uiso   1.00
O223   O     0.02942   0.16583   0.14233   0.00000  Uiso   1.00
O224   O     0.65414   0.55502   0.91650   0.00000  Uiso   1.00
N225   N     0.98190   0.11628   0.61288   0.00000  Uiso   1.00
N226   N     0.03321   0.21564   0.05676   0.00000  Uiso   1.00
N227   N     0.76578   0.49299   0.89585   0.00000  Uiso   1.00
N228   N     0.88862   0.06451   0.62137   0.00000  Uiso   1.00
N229   N     0.93993   0.16387   0.06525   0.00000  Uiso   1.00
N230   N     0.67250   0.44122   0.90434   0.00000  Uiso   1.00
C231   C     0.01635   0.84405   0.18435   0.00000  Uiso   1.00
C232   C     0.93696   0.85303   0.17243   0.00000  Uiso   1.00
C233   C     0.88888   0.80678   0.17041   0.00000  Uiso   1.00
C234   C     0.81854   0.82442   0.15889   0.00000  Uiso   1.00
C235   C     0.69852   0.82899   0.14181   0.00000  Uiso   1.00
C236   C     0.03013   0.90350   0.24572   0.00000  Uiso   1.00
C237   C     0.06039   0.89969   0.30533   0.00000  Uiso   1.00
C238   C     0.06849   0.95984   0.35550   0.00000  Uiso   1.00
C239   C     0.09317   0.04277   0.45220   0.00000  Uiso   1.00
C240   C     0.05494   0.85346   0.12333   0.00000  Uiso   1.00
C241   C     0.10609   0.80758   0.08004   0.00000  Uiso   1.00
C242   C     0.13509   0.82559   0.02717   0.00000  Uiso   1.00
C243   C     0.19830   0.83082   0.93384   0.00000  Uiso   1.00
C244   C     0.97694   0.95763   0.16747   0.00000  Uiso   1.00
C245   C     0.91555   0.91472   0.16326   0.00000  Uiso   1.00
C246   C     0.84527   0.93244   0.15174   0.00000  Uiso   1.00
C247   C     0.79710   0.88623   0.14970   0.00000  Uiso   1.00
C248   C     0.00872   0.96519   0.23656   0.00000  Uiso   1.00
C249   C     0.01678   0.02536   0.28666   0.00000  Uiso   1.00
C250   C     0.04705   0.02164   0.34632   0.00000  Uiso   1.00
C251   C     0.03354   0.91515   0.11416   0.00000  Uiso   1.00
C252   C     0.06248   0.93324   0.06136   0.00000  Uiso   1.00
C253   C     0.11365   0.88740   0.01799   0.00000  Uiso   1.00
H254   H     0.03302   0.79602   0.19149   0.00000  Uiso   1.00
H255   H     0.90547   0.75904   0.17751   0.00000  Uiso   1.00
H256   H     0.07696   0.85195   0.31240   0.00000  Uiso   1.00
H257   H     0.12264   0.75984   0.08715   0.00000  Uiso   1.00
H258   H     0.75461   0.74526   0.15800   0.00000  Uiso   1.00
H259   H     0.11623   0.94115   0.44242   0.00000  Uiso   1.00
H260   H     0.21256   0.74694   0.96742   0.00000  Uiso   1.00
H261   H     0.96027   0.00566   0.16034   0.00000  Uiso   1.00
H262   H     0.82872   0.98018   0.14465   0.00000  Uiso   1.00
H263   H     0.00022   0.07309   0.27954   0.00000  Uiso   1.00
H264   H     0.04590   0.98099   0.05429   0.00000  Uiso   1.00
H265   H     0.69232   0.92475   0.13133   0.00000  Uiso   1.00
H266   H     0.05395   0.12064   0.41575   0.00000  Uiso   1.00
H267   H     0.15027   0.92642   0.94075   0.00000  Uiso   1.00
O268   O     0.63824   0.81447   0.13493   0.00000  Uiso   1.00
O269   O     0.11268   0.07147   0.50807   0.00000  Uiso   1.00
O270   O     0.23907   0.81666   0.88488   0.00000  Uiso   1.00
N271   N     0.75800   0.79099   0.15386   0.00000  Uiso   1.00
N272   N     0.09609   0.97414   0.41978   0.00000  Uiso   1.00
N273   N     0.18617   0.79257   0.97571   0.00000  Uiso   1.00
N274   N     0.72449   0.88757   0.13951   0.00000  Uiso   1.00
N275   N     0.06257   0.07072   0.40543   0.00000  Uiso   1.00
N276   N     0.15265   0.88915   0.96136   0.00000  Uiso   1.00
C277   C     0.71711   0.43905   0.55442   0.00000  Uiso   1.00
C278   C     0.75158   0.50095   0.59498   0.00000  Uiso   1.00
C279   C     0.81680   0.51870   0.57867   0.00000  Uiso   1.00
C280   C     0.83902   0.57725   0.62227   0.00000  Uiso   1.00
C281   C     0.89885   0.66740   0.67645   0.00000  Uiso   1.00
C282   C     0.64391   0.46466   0.53698   0.00000  Uiso   1.00
C283   C     0.61861   0.45189   0.47190   0.00000  Uiso   1.00
C284   C     0.55019   0.47988   0.46668   0.00000  Uiso   1.00
C285   C     0.44284   0.51366   0.43081   0.00000  Uiso   1.00
C286   C     0.70339   0.40116   0.60422   0.00000  Uiso   1.00
C287   C     0.72808   0.33499   0.59567   0.00000  Uiso   1.00
C288   C     0.70972   0.30952   0.64704   0.00000  Uiso   1.00
C289   C     0.69473   0.24470   0.71557   0.00000  Uiso   1.00
C290   C     0.64058   0.51146   0.66086   0.00000  Uiso   1.00
C291   C     0.71001   0.54028   0.65280   0.00000  Uiso   1.00
C292   C     0.73214   0.59882   0.69644   0.00000  Uiso   1.00
C293   C     0.79739   0.61665   0.68019   0.00000  Uiso   1.00
C294   C     0.60234   0.50399   0.59479   0.00000  Uiso   1.00
C295   C     0.53394   0.53201   0.58966   0.00000  Uiso   1.00
C296   C     0.50855   0.51929   0.52459   0.00000  Uiso   1.00
C297   C     0.66182   0.44049   0.66203   0.00000  Uiso   1.00
C298   C     0.64342   0.41511   0.71343   0.00000  Uiso   1.00
C299   C     0.66808   0.34892   0.70496   0.00000  Uiso   1.00
H300   H     0.74947   0.40842   0.50940   0.00000  Uiso   1.00
H301   H     0.84895   0.48825   0.53392   0.00000  Uiso   1.00
H302   H     0.65079   0.42144   0.42717   0.00000  Uiso   1.00
H303   H     0.76024   0.30457   0.55092   0.00000  Uiso   1.00
H304   H     0.94091   0.59411   0.58659   0.00000  Uiso   1.00
H305   H     0.52306   0.45323   0.36150   0.00000  Uiso   1.00
H306   H     0.75387   0.20677   0.62244   0.00000  Uiso   1.00
H307   H     0.60822   0.54209   0.70587   0.00000  Uiso   1.00
H308   H     0.69996   0.62925   0.74117   0.00000  Uiso   1.00
H309   H     0.50179   0.56244   0.63442   0.00000  Uiso   1.00
H310   H     0.61125   0.44557   0.75816   0.00000  Uiso   1.00
H311   H     0.81998   0.70855   0.75480   0.00000  Uiso   1.00
H312   H     0.40212   0.56767   0.52970   0.00000  Uiso   1.00
H313   H     0.63294   0.32121   0.79065   0.00000  Uiso   1.00
O314   O     0.94333   0.70627   0.69036   0.00000  Uiso   1.00
O315   O     0.39512   0.52142   0.39505   0.00000  Uiso   1.00
O316   O     0.69795   0.19808   0.73741   0.00000  Uiso   1.00
N317   N     0.89987   0.60908   0.62134   0.00000  Uiso   1.00
N318   N     0.50920   0.47737   0.41089   0.00000  Uiso   1.00
N319   N     0.72498   0.24694   0.65485   0.00000  Uiso   1.00
N320   N     0.83479   0.67066   0.71185   0.00000  Uiso   1.00
N321   N     0.44413   0.53895   0.50140   0.00000  Uiso   1.00
N322   N     0.65991   0.30852   0.74536   0.00000  Uiso   1.00
C323   C     0.36009   0.00261   0.14734   0.00000  Uiso   1.00
C324   C     0.41728   0.03487   0.19437   0.00000  Uiso   1.00
C325   C     0.41310   0.10127   0.23543   0.00000  Uiso   1.00
C326   C     0.47104   0.12106   0.27475   0.00000  Uiso   1.00
C327   C     0.55071   0.17798   0.34806   0.00000  Uiso   1.00
C328   C     0.34227   0.94324   0.16905   0.00000  Uiso   1.00
C329   C     0.27502   0.93260   0.18881   0.00000  Uiso   1.00
C330   C     0.26981   0.87525   0.20680   0.00000  Uiso   1.00
C331   C     0.23302   0.78990   0.24076   0.00000  Uiso   1.00
C332   C     0.39634   0.97289   0.07642   0.00000  Uiso   1.00
C333   C     0.37453   0.98716   0.01829   0.00000  Uiso   1.00
C334   C     0.41483   0.95476   0.95830   0.00000  Uiso   1.00
C335   C     0.46198   0.91544   0.84844   0.00000  Uiso   1.00
C336   C     0.47043   0.91966   0.14415   0.00000  Uiso   1.00
C337   C     0.47722   0.98981   0.19264   0.00000  Uiso   1.00
C338   C     0.53518   0.00950   0.23190   0.00000  Uiso   1.00
C339   C     0.53108   0.07592   0.27301   0.00000  Uiso   1.00
C340   C     0.40220   0.89819   0.16732   0.00000  Uiso   1.00
C341   C     0.39710   0.84083   0.18528   0.00000  Uiso   1.00
C342   C     0.32985   0.83011   0.20507   0.00000  Uiso   1.00
C343   C     0.45627   0.92783   0.07469   0.00000  Uiso   1.00
C344   C     0.49661   0.89539   0.01477   0.00000  Uiso   1.00
C345   C     0.47487   0.90962   0.95657   0.00000  Uiso   1.00
H346   H     0.31343   0.03769   0.14869   0.00000  Uiso   1.00
H347   H     0.36671   0.13612   0.23676   0.00000  Uiso   1.00
H348   H     0.22865   0.96748   0.19014   0.00000  Uiso   1.00
H349   H     0.32815   0.02203   0.01965   0.00000  Uiso   1.00
H350   H     0.45219   0.22538   0.33366   0.00000  Uiso   1.00
H351   H     0.16108   0.86977   0.23533   0.00000  Uiso   1.00
H352   H     0.37089   0.98481   0.87583   0.00000  Uiso   1.00
H353   H     0.51709   0.88458   0.14281   0.00000  Uiso   1.00
H354   H     0.58155   0.97462   0.23056   0.00000  Uiso   1.00
H355   H     0.44349   0.80598   0.18393   0.00000  Uiso   1.00
H356   H     0.54299   0.86053   0.01345   0.00000  Uiso   1.00
H357   H     0.62657   0.09430   0.32863   0.00000  Uiso   1.00
H358   H     0.33545   0.73869   0.23029   0.00000  Uiso   1.00
H359   H     0.54527   0.85373   0.87080   0.00000  Uiso   1.00
O360   O     0.57809   0.22183   0.38899   0.00000  Uiso   1.00
O361   O     0.19616   0.75528   0.25997   0.00000  Uiso   1.00
O362   O     0.47143   0.90621   0.78832   0.00000  Uiso   1.00
N363   N     0.48439   0.18218   0.32042   0.00000  Uiso   1.00
N364   N     0.21222   0.84971   0.22850   0.00000  Uiso   1.00
N365   N     0.40837   0.95725   0.89239   0.00000  Uiso   1.00
N366   N     0.57822   0.11164   0.31771   0.00000  Uiso   1.00
N367   N     0.30605   0.77918   0.22579   0.00000  Uiso   1.00
N368   N     0.50220   0.88671   0.88969   0.00000  Uiso   1.00
C369   C     0.01027   0.62269   0.91089   0.00000  Uiso   1.00
C370   C     0.09102   0.62156   0.91483   0.00000  Uiso   1.00
C371   C     0.13158   0.60306   0.96265   0.00000  Uiso   1.00
C372   C     0.20469   0.60539   0.95762   0.00000  Uiso   1.00
C373   C     0.32530   0.60055   0.97148   0.00000  Uiso   1.00
C374   C     0.99667   0.57809   0.83927   0.00000  Uiso   1.00
C375   C     0.95791   0.52305   0.82358   0.00000  Uiso   1.00
C376   C     0.95158   0.48879   0.75494   0.00000  Uiso   1.00
C377   C     0.92568   0.41649   0.65150   0.00000  Uiso   1.00
C378   C     0.98266   0.69379   0.91415   0.00000  Uiso   1.00
C379   C     0.93209   0.73602   0.96139   0.00000  Uiso   1.00
C380   C     0.91396   0.79916   0.95578   0.00000  Uiso   1.00
C381   C     0.86630   0.90650   0.96860   0.00000  Uiso   1.00
C382   C     0.06796   0.65972   0.81690   0.00000  Uiso   1.00
C383   C     0.12235   0.64168   0.86378   0.00000  Uiso   1.00
C384   C     0.19541   0.64404   0.85867   0.00000  Uiso   1.00
C385   C     0.23608   0.62555   0.90648   0.00000  Uiso   1.00
C386   C     0.02801   0.59820   0.78822   0.00000  Uiso   1.00
C387   C     0.02173   0.56402   0.71959   0.00000  Uiso   1.00
C388   C     0.98297   0.50894   0.70380   0.00000  Uiso   1.00
C389   C     0.01399   0.71390   0.86310   0.00000  Uiso   1.00
C390   C     0.99593   0.77699   0.85741   0.00000  Uiso   1.00
C391   C     0.94535   0.81932   0.90464   0.00000  Uiso   1.00
H392   H     0.98587   0.60702   0.95063   0.00000  Uiso   1.00
H393   H     0.10731   0.58749   0.00215   0.00000  Uiso   1.00
H394   H     0.93366   0.50750   0.86309   0.00000  Uiso   1.00
H395   H     0.90786   0.72043   0.00089   0.00000  Uiso   1.00
H396   H     0.25578   0.57468   0.03674   0.00000  Uiso   1.00
H397   H     0.88959   0.40602   0.74353   0.00000  Uiso   1.00
H398   H     0.83518   0.85504   0.03411   0.00000  Uiso   1.00
H399   H     0.09236   0.67539   0.77716   0.00000  Uiso   1.00
H400   H     0.21964   0.65961   0.81916   0.00000  Uiso   1.00
H401   H     0.04599   0.57961   0.68010   0.00000  Uiso   1.00
H402   H     0.02019   0.79255   0.81790   0.00000  Uiso   1.00
H403   H     0.34695   0.63321   0.88822   0.00000  Uiso   1.00
H404   H     0.98076   0.46455   0.59501   0.00000  Uiso   1.00
H405   H     0.92635   0.91357   0.88559   0.00000  Uiso   1.00
O406   O     0.38318   0.59231   0.99322   0.00000  Uiso   1.00
O407   O     0.90274   0.37104   0.60855   0.00000  Uiso   1.00
O408   O     0.83136   0.96015   0.98978   0.00000  Uiso   1.00
N409   N     0.25976   0.59064   0.99603   0.00000  Uiso   1.00
N410   N     0.91741   0.43294   0.72190   0.00000  Uiso   1.00
N411   N     0.86653   0.85273   0.99355   0.00000  Uiso   1.00
N412   N     0.30882   0.62213   0.91611   0.00000  Uiso   1.00
N413   N     0.96647   0.46443   0.64198   0.00000  Uiso   1.00
N414   N     0.91559   0.88423   0.91363   0.00000  Uiso   1.00
C415   C     0.37031   0.06245   0.77958   0.00000  Uiso   1.00
C416   C     0.38756   0.10471   0.85104   0.00000  Uiso   1.00
C417   C     0.45134   0.09873   0.88230   0.00000  Uiso   1.00
C418   C     0.45662   0.14209   0.94787   0.00000  Uiso   1.00
C419   C     0.49199   0.20046   0.05382   0.00000  Uiso   1.00
C420   C     0.30285   0.03091   0.78808   0.00000  Uiso   1.00
C421   C     0.29541   0.96286   0.76639   0.00000  Uiso   1.00
C422   C     0.22938   0.94409   0.77895   0.00000  Uiso   1.00
C423   C     0.13322   0.88787   0.78709   0.00000  Uiso   1.00
C424   C     0.34921   0.11178   0.74134   0.00000  Uiso   1.00
C425   C     0.38075   0.11173   0.68033   0.00000  Uiso   1.00
C426   C     0.35373   0.16105   0.65353   0.00000  Uiso   1.00
C427   C     0.32956   0.23040   0.58911   0.00000  Uiso   1.00
C428   C     0.26626   0.15010   0.84045   0.00000  Uiso   1.00
C429   C     0.33104   0.15232   0.88410   0.00000  Uiso   1.00
C430   C     0.33622   0.19571   0.94964   0.00000  Uiso   1.00
C431   C     0.40001   0.18979   0.98099   0.00000  Uiso   1.00
C432   C     0.24634   0.07851   0.82114   0.00000  Uiso   1.00
C433   C     0.18029   0.05984   0.83373   0.00000  Uiso   1.00
C434   C     0.17276   0.99179   0.81207   0.00000  Uiso   1.00
C435   C     0.29270   0.15939   0.77440   0.00000  Uiso   1.00
C436   C     0.26563   0.20871   0.74768   0.00000  Uiso   1.00
C437   C     0.29711   0.20874   0.68665   0.00000  Uiso   1.00
H438   H     0.41431   0.02538   0.75384   0.00000  Uiso   1.00
H439   H     0.49507   0.06187   0.85670   0.00000  Uiso   1.00
H440   H     0.33916   0.92603   0.74080   0.00000  Uiso   1.00
H441   H     0.42448   0.07488   0.65477   0.00000  Uiso   1.00
H442   H     0.55967   0.12331   0.98533   0.00000  Uiso   1.00
H443   H     0.23092   0.83689   0.74092   0.00000  Uiso   1.00
H444   H     0.41083   0.15076   0.55950   0.00000  Uiso   1.00
H445   H     0.22226   0.18717   0.86619   0.00000  Uiso   1.00
H446   H     0.29248   0.23254   0.97521   0.00000  Uiso   1.00
H447   H     0.13657   0.09670   0.85931   0.00000  Uiso   1.00
H448   H     0.22189   0.24555   0.77328   0.00000  Uiso   1.00
H449   H     0.39524   0.26183   0.08152   0.00000  Uiso   1.00
H450   H     0.06649   0.97540   0.83711   0.00000  Uiso   1.00
H451   H     0.24641   0.28928   0.65569   0.00000  Uiso   1.00
O452   O     0.52711   0.21949   0.10313   0.00000  Uiso   1.00
O453   O     0.09579   0.84371   0.78246   0.00000  Uiso   1.00
O454   O     0.33184   0.25550   0.54444   0.00000  Uiso   1.00
N455   N     0.51134   0.14970   0.99300   0.00000  Uiso   1.00
N456   N     0.20398   0.88190   0.76450   0.00000  Uiso   1.00
N457   N     0.37217   0.17534   0.59488   0.00000  Uiso   1.00
N458   N     0.42286   0.22423   0.04476   0.00000  Uiso   1.00
N459   N     0.11550   0.95644   0.81626   0.00000  Uiso   1.00
N460   N     0.28370   0.24987   0.64664   0.00000  Uiso   1.00
C461   C     0.90610   0.76523   0.46997   0.00000  Uiso   1.00
C462   C     0.92770   0.81169   0.53786   0.00000  Uiso   1.00
C463   C     0.90780   0.80955   0.60189   0.00000  Uiso   1.00
C464   C     0.93311   0.85639   0.65774   0.00000  Uiso   1.00
C465   C     0.95999   0.92136   0.76437   0.00000  Uiso   1.00
C466   C     0.87022   0.81058   0.43282   0.00000  Uiso   1.00
C467   C     0.80199   0.80749   0.40853   0.00000  Uiso   1.00
C468   C     0.77892   0.85339   0.37595   0.00000  Uiso   1.00
C469   C     0.71658   0.91660   0.31946   0.00000  Uiso   1.00
C470   C     0.97542   0.73305   0.42918   0.00000  Uiso   1.00
C471   C     0.99564   0.66479   0.40180   0.00000  Uiso   1.00
C472   C     0.06114   0.64542   0.36614   0.00000  Uiso   1.00
C473   C     0.16214   0.58826   0.30399   0.00000  Uiso   1.00
C474   C     0.98644   0.85223   0.45531   0.00000  Uiso   1.00
C475   C     0.97134   0.85894   0.52989   0.00000  Uiso   1.00
C476   C     0.99669   0.90580   0.58567   0.00000  Uiso   1.00
C477   C     0.97683   0.90373   0.64977   0.00000  Uiso   1.00
C478   C     0.91385   0.85783   0.42486   0.00000  Uiso   1.00
C479   C     0.89088   0.90374   0.39231   0.00000  Uiso   1.00
C480   C     0.82264   0.90073   0.36797   0.00000  Uiso   1.00
C481   C     0.01906   0.78030   0.42121   0.00000  Uiso   1.00
C482   C     0.08454   0.76104   0.38558   0.00000  Uiso   1.00
C483   C     0.10486   0.69275   0.35816   0.00000  Uiso   1.00
H484   H     0.87212   0.72845   0.47617   0.00000  Uiso   1.00
H485   H     0.87402   0.77298   0.60803   0.00000  Uiso   1.00
H486   H     0.76824   0.77092   0.41469   0.00000  Uiso   1.00
H487   H     0.96186   0.62824   0.40797   0.00000  Uiso   1.00
H488   H     0.89535   0.84320   0.75071   0.00000  Uiso   1.00
H489   H     0.67231   0.83884   0.34303   0.00000  Uiso   1.00
H490   H     0.08060   0.53797   0.32885   0.00000  Uiso   1.00
H491   H     0.02041   0.88901   0.44911   0.00000  Uiso   1.00
H492   H     0.03046   0.94236   0.57949   0.00000  Uiso   1.00
H493   H     0.92467   0.94030   0.38615   0.00000  Uiso   1.00
H494   H     0.11829   0.79762   0.37943   0.00000  Uiso   1.00
H495   H     0.02232   0.98068   0.72755   0.00000  Uiso   1.00
H496   H     0.79928   0.97632   0.31986   0.00000  Uiso   1.00
H497   H     0.20757   0.67544   0.30569   0.00000  Uiso   1.00
O498   O     0.96275   0.94415   0.82539   0.00000  Uiso   1.00
O499   O     0.67013   0.93842   0.29051   0.00000  Uiso   1.00
O500   O     0.20580   0.54368   0.27192   0.00000  Uiso   1.00
N501   N     0.92387   0.86823   0.72737   0.00000  Uiso   1.00
N502   N     0.71533   0.86416   0.34622   0.00000  Uiso   1.00
N503   N     0.09704   0.58287   0.33295   0.00000  Uiso   1.00
N504   N     0.99219   0.94220   0.71490   0.00000  Uiso   1.00
N505   N     0.78366   0.93813   0.33375   0.00000  Uiso   1.00
N506   N     0.16536   0.65684   0.32049   0.00000  Uiso   1.00
C507   C     0.48978   0.43133   0.04015   0.00000  Uiso   1.00
C508   C     0.55713   0.46598   0.06047   0.00000  Uiso   1.00
C509   C     0.56883   0.52855   0.05678   0.00000  Uiso   1.00
C510   C     0.63396   0.55145   0.07777   0.00000  Uiso   1.00
C511   C     0.73072   0.61107   0.10568   0.00000  Uiso   1.00
C512   C     0.51396   0.36382   0.98715   0.00000  Uiso   1.00
C513   C     0.48934   0.34049   0.92180   0.00000  Uiso   1.00
C514   C     0.51812   0.27738   0.88107   0.00000  Uiso   1.00
C515   C     0.54781   0.17837   0.79515   0.00000  Uiso   1.00
C516   C     0.46326   0.41582   0.10287   0.00000  Uiso   1.00
C517   C     0.39602   0.43619   0.13483   0.00000  Uiso   1.00
C518   C     0.38212   0.41684   0.19153   0.00000  Uiso   1.00
C519   C     0.33309   0.39857   0.28529   0.00000  Uiso   1.00
C520   C     0.58464   0.36075   0.08400   0.00000  Uiso   1.00
C521   C     0.60865   0.42764   0.08429   0.00000  Uiso   1.00
C522   C     0.67378   0.45045   0.10530   0.00000  Uiso   1.00
C523   C     0.68558   0.51304   0.10164   0.00000  Uiso   1.00
C524   C     0.56548   0.32548   0.01096   0.00000  Uiso   1.00
C525   C     0.59429   0.26239   0.97032   0.00000  Uiso   1.00
C526   C     0.56974   0.23897   0.90494   0.00000  Uiso   1.00
C527   C     0.51479   0.37748   0.12670   0.00000  Uiso   1.00
C528   C     0.50098   0.35809   0.18335   0.00000  Uiso   1.00
C529   C     0.43373   0.37843   0.21539   0.00000  Uiso   1.00
H530   H     0.44967   0.46118   0.02160   0.00000  Uiso   1.00
H531   H     0.52895   0.55820   0.03834   0.00000  Uiso   1.00
H532   H     0.44947   0.37016   0.90339   0.00000  Uiso   1.00
H533   H     0.35617   0.46585   0.11638   0.00000  Uiso   1.00
H534   H     0.63958   0.64885   0.06738   0.00000  Uiso   1.00
H535   H     0.47197   0.25236   0.78283   0.00000  Uiso   1.00
H536   H     0.27522   0.45413   0.23197   0.00000  Uiso   1.00
H537   H     0.62475   0.33090   0.10255   0.00000  Uiso   1.00
H538   H     0.71364   0.42077   0.12373   0.00000  Uiso   1.00
H539   H     0.63416   0.23274   0.98877   0.00000  Uiso   1.00
H540   H     0.54086   0.32843   0.20177   0.00000  Uiso   1.00
H541   H     0.78948   0.53731   0.13668   0.00000  Uiso   1.00
H542   H     0.62187   0.14081   0.85213   0.00000  Uiso   1.00
H543   H     0.42513   0.34259   0.30127   0.00000  Uiso   1.00
O544   O     0.76985   0.65454   0.11448   0.00000  Uiso   1.00
O545   O     0.54995   0.13436   0.74117   0.00000  Uiso   1.00
O546   O     0.29182   0.39909   0.33043   0.00000  Uiso   1.00
N547   N     0.66265   0.61027   0.08079   0.00000  Uiso   1.00
N548   N     0.50596   0.23958   0.81476   0.00000  Uiso   1.00
N549   N     0.32201   0.42821   0.23465   0.00000  Uiso   1.00
N550   N     0.74331   0.55025   0.11808   0.00000  Uiso   1.00
N551   N     0.58662   0.17956   0.85205   0.00000  Uiso   1.00
N552   N     0.40267   0.36819   0.27195   0.00000  Uiso   1.00
