data_job_06308
_audit_creation_date              2018-12-19
_audit_creation_method            'Materials Studio'
_symmetry_space_group_name_H-M    'P1'
_symmetry_Int_Tables_number       1
_symmetry_cell_setting            triclinic
loop_
_symmetry_equiv_pos_as_xyz
  x,y,z
_cell_length_a                    13.5308
_cell_length_b                    20.7888
_cell_length_c                    21.2832
_cell_angle_alpha                 115.7230
_cell_angle_beta                  77.2936
_cell_angle_gamma                 80.8819
loop_
_atom_site_label
_atom_site_type_symbol
_atom_site_fract_x
_atom_site_fract_y
_atom_site_fract_z
_atom_site_U_iso_or_equiv
_atom_site_adp_type
_atom_site_occupancy
C1     C     0.93713   0.30745   0.55720   0.00000  Uiso   1.00
C2     C     0.02826   0.23551   0.51442   0.00000  Uiso   1.00
C3     C     0.02353   0.16704   0.50863   0.00000  Uiso   1.00
C4     C     0.11550   0.10798   0.46697   0.00000  Uiso   1.00
C5     C     0.24282   0.99490   0.40583   0.00000  Uiso   1.00
C6     C     0.97666   0.36482   0.61161   0.00000  Uiso   1.00
C7     C     0.92854   0.40507   0.68753   0.00000  Uiso   1.00
C8     C     0.97707   0.45487   0.72768   0.00000  Uiso   1.00
C9     C     0.02424   0.54258   0.81743   0.00000  Uiso   1.00
C10    C     0.92418   0.33358   0.50192   0.00000  Uiso   1.00
C11    C     0.83192   0.34759   0.48564   0.00000  Uiso   1.00
C12    C     0.83626   0.37111   0.43345   0.00000  Uiso   1.00
C13    C     0.80194   0.41032   0.35290   0.00000  Uiso   1.00
C14    C     0.10888   0.32434   0.49350   0.00000  Uiso   1.00
C15    C     0.12155   0.24469   0.47982   0.00000  Uiso   1.00
C16    C     0.21355   0.18572   0.43815   0.00000  Uiso   1.00
C17    C     0.20896   0.11717   0.43230   0.00000  Uiso   1.00
C18    C     0.06995   0.37400   0.57701   0.00000  Uiso   1.00
C19    C     0.11856   0.42375   0.61706   0.00000  Uiso   1.00
C20    C     0.07053   0.46406   0.69302   0.00000  Uiso   1.00
C21    C     0.01747   0.34276   0.46732   0.00000  Uiso   1.00
C22    C     0.02195   0.36627   0.41516   0.00000  Uiso   1.00
C23    C     0.92972   0.38030   0.39879   0.00000  Uiso   1.00
H24    H     0.86451   0.30031   0.58414   0.00000  Uiso   1.00
H25    H     0.95132   0.15996   0.53542   0.00000  Uiso   1.00
H26    H     0.85634   0.39797   0.71429   0.00000  Uiso   1.00
H27    H     0.75975   0.34048   0.51242   0.00000  Uiso   1.00
H28    H     0.08873   0.00841   0.46617   0.00000  Uiso   1.00
H29    H     0.88843   0.51027   0.84333   0.00000  Uiso   1.00
H30    H     0.68474   0.38907   0.41765   0.00000  Uiso   1.00
H31    H     0.18151   0.33148   0.46656   0.00000  Uiso   1.00
H32    H     0.28573   0.19284   0.41139   0.00000  Uiso   1.00
H33    H     0.19074   0.43084   0.59026   0.00000  Uiso   1.00
H34    H     0.09415   0.37336   0.38840   0.00000  Uiso   1.00
H35    H     0.36014   0.03510   0.36550   0.00000  Uiso   1.00
H36    H     0.15985   0.53696   0.74267   0.00000  Uiso   1.00
H37    H     0.95615   0.41575   0.31699   0.00000  Uiso   1.00
O38    O     0.28728   0.93000   0.38168   0.00000  Uiso   1.00
O39    O     0.02449   0.58842   0.87650   0.00000  Uiso   1.00
O40    O     0.75725   0.42940   0.31802   0.00000  Uiso   1.00
N41    N     0.13830   0.03372   0.45004   0.00000  Uiso   1.00
N42    N     0.95104   0.50291   0.80266   0.00000  Uiso   1.00
N43    N     0.76060   0.38962   0.40470   0.00000  Uiso   1.00
N44    N     0.28434   0.04807   0.39587   0.00000  Uiso   1.00
N45    N     0.09709   0.51727   0.74849   0.00000  Uiso   1.00
N46    N     0.90664   0.40397   0.35054   0.00000  Uiso   1.00
C47    C     0.49444   0.43634   0.75336   0.00000  Uiso   1.00
C48    C     0.54425   0.48310   0.72436   0.00000  Uiso   1.00
C49    C     0.53530   0.48876   0.66311   0.00000  Uiso   1.00
C50    C     0.58678   0.53442   0.64560   0.00000  Uiso   1.00
C51    C     0.65530   0.60112   0.59412   0.00000  Uiso   1.00
C52    C     0.58532   0.38447   0.75554   0.00000  Uiso   1.00
C53    C     0.61088   0.30721   0.72052   0.00000  Uiso   1.00
C54    C     0.69692   0.26985   0.72927   0.00000  Uiso   1.00
C55    C     0.82915   0.18344   0.72625   0.00000  Uiso   1.00
C56    C     0.42732   0.49012   0.83349   0.00000  Uiso   1.00
C57    C     0.32004   0.50167   0.86403   0.00000  Uiso   1.00
C58    C     0.27307   0.55325   0.93841   0.00000  Uiso   1.00
C59    C     0.15998   0.63087   0.05642   0.00000  Uiso   1.00
C60    C     0.60178   0.50736   0.83117   0.00000  Uiso   1.00
C61    C     0.60255   0.52167   0.76662   0.00000  Uiso   1.00
C62    C     0.65406   0.56734   0.74920   0.00000  Uiso   1.00
C63    C     0.64519   0.57307   0.68794   0.00000  Uiso   1.00
C64    C     0.64362   0.42304   0.79781   0.00000  Uiso   1.00
C65    C     0.72964   0.38579   0.80662   0.00000  Uiso   1.00
C66    C     0.75533   0.30850   0.77162   0.00000  Uiso   1.00
C67    C     0.48562   0.52870   0.87576   0.00000  Uiso   1.00
C68    C     0.43880   0.58026   0.95012   0.00000  Uiso   1.00
C69    C     0.33148   0.59189   0.98075   0.00000  Uiso   1.00
H70    H     0.44905   0.40630   0.72045   0.00000  Uiso   1.00
H71    H     0.49018   0.45889   0.63041   0.00000  Uiso   1.00
H72    H     0.56574   0.27738   0.68783   0.00000  Uiso   1.00
H73    H     0.27495   0.47181   0.83130   0.00000  Uiso   1.00
H74    H     0.56152   0.53419   0.54921   0.00000  Uiso   1.00
H75    H     0.72083   0.15145   0.67029   0.00000  Uiso   1.00
H76    H     0.10763   0.56145   0.97284   0.00000  Uiso   1.00
H77    H     0.64717   0.53739   0.86408   0.00000  Uiso   1.00
H78    H     0.69917   0.59718   0.78192   0.00000  Uiso   1.00
H79    H     0.77474   0.41566   0.83933   0.00000  Uiso   1.00
H80    H     0.48395   0.61010   0.98281   0.00000  Uiso   1.00
H81    H     0.73116   0.64642   0.67217   0.00000  Uiso   1.00
H82    H     0.89045   0.26369   0.79326   0.00000  Uiso   1.00
H83    H     0.27726   0.67369   0.09580   0.00000  Uiso   1.00
O84    O     0.67700   0.62725   0.55404   0.00000  Uiso   1.00
O85    O     0.88598   0.12512   0.71290   0.00000  Uiso   1.00
O86    O     0.08149   0.66303   0.10984   0.00000  Uiso   1.00
N87    N     0.59429   0.55241   0.58943   0.00000  Uiso   1.00
N88    N     0.74324   0.19457   0.70262   0.00000  Uiso   1.00
N89    N     0.16996   0.57788   0.98549   0.00000  Uiso   1.00
N90    N     0.68557   0.61280   0.65560   0.00000  Uiso   1.00
N91    N     0.83452   0.25497   0.76879   0.00000  Uiso   1.00
N92    N     0.26124   0.63827   0.05166   0.00000  Uiso   1.00
C93    C     0.25081   0.24286   0.68445   0.00000  Uiso   1.00
C94    C     0.27087   0.27371   0.75834   0.00000  Uiso   1.00
C95    C     0.20229   0.33363   0.82430   0.00000  Uiso   1.00
C96    C     0.23520   0.35325   0.88578   0.00000  Uiso   1.00
C97    C     0.25146   0.40711   0.00117   0.00000  Uiso   1.00
C98    C     0.34375   0.24523   0.63078   0.00000  Uiso   1.00
C99    C     0.33645   0.28119   0.58948   0.00000  Uiso   1.00
C100   C     0.43071   0.27682   0.54358   0.00000  Uiso   1.00
C101   C     0.56012   0.28642   0.46089   0.00000  Uiso   1.00
C102   C     0.26144   0.16050   0.65868   0.00000  Uiso   1.00
C103   C     0.18494   0.12520   0.64082   0.00000  Uiso   1.00
C104   C     0.20992   0.04948   0.61839   0.00000  Uiso   1.00
C105   C     0.21152   0.92751   0.57902   0.00000  Uiso   1.00
C106   C     0.43120   0.17116   0.67635   0.00000  Uiso   1.00
C107   C     0.36885   0.23477   0.75393   0.00000  Uiso   1.00
C108   C     0.40187   0.25430   0.81533   0.00000  Uiso   1.00
C109   C     0.33335   0.31423   0.88137   0.00000  Uiso   1.00
C110   C     0.44172   0.20629   0.62638   0.00000  Uiso   1.00
C111   C     0.53602   0.20186   0.58052   0.00000  Uiso   1.00
C112   C     0.52887   0.23781   0.53917   0.00000  Uiso   1.00
C113   C     0.35942   0.12155   0.65428   0.00000  Uiso   1.00
C114   C     0.38452   0.04587   0.63186   0.00000  Uiso   1.00
C115   C     0.30807   0.01047   0.61398   0.00000  Uiso   1.00
H116   H     0.17454   0.27318   0.68787   0.00000  Uiso   1.00
H117   H     0.12648   0.36375   0.82768   0.00000  Uiso   1.00
H118   H     0.26062   0.31131   0.59289   0.00000  Uiso   1.00
H119   H     0.10913   0.15535   0.64423   0.00000  Uiso   1.00
H120   H     0.11643   0.44702   0.98073   0.00000  Uiso   1.00
H121   H     0.39926   0.33643   0.48566   0.00000  Uiso   1.00
H122   H     0.07983   0.00754   0.59391   0.00000  Uiso   1.00
H123   H     0.50748   0.14084   0.67292   0.00000  Uiso   1.00
H124   H     0.47769   0.22415   0.81191   0.00000  Uiso   1.00
H125   H     0.61183   0.17172   0.57712   0.00000  Uiso   1.00
H126   H     0.46035   0.01575   0.62846   0.00000  Uiso   1.00
H127   H     0.40149   0.33372   0.96794   0.00000  Uiso   1.00
H128   H     0.68432   0.22313   0.47286   0.00000  Uiso   1.00
H129   H     0.36489   0.89424   0.58111   0.00000  Uiso   1.00
O130   O     0.23337   0.44758   0.06603   0.00000  Uiso   1.00
O131   O     0.60443   0.30248   0.41650   0.00000  Uiso   1.00
O132   O     0.18534   0.87099   0.55853   0.00000  Uiso   1.00
N133   N     0.18760   0.40891   0.95865   0.00000  Uiso   1.00
N134   N     0.45202   0.30553   0.49579   0.00000  Uiso   1.00
N135   N     0.15339   0.99804   0.59698   0.00000  Uiso   1.00
N136   N     0.34098   0.34794   0.95176   0.00000  Uiso   1.00
N137   N     0.60541   0.24456   0.48891   0.00000  Uiso   1.00
N138   N     0.30678   0.93707   0.59009   0.00000  Uiso   1.00
C139   C     0.06287   0.69255   0.44280   0.00000  Uiso   1.00
C140   C     0.97174   0.76449   0.48558   0.00000  Uiso   1.00
C141   C     0.97647   0.83296   0.49137   0.00000  Uiso   1.00
C142   C     0.88450   0.89202   0.53303   0.00000  Uiso   1.00
C143   C     0.75718   0.00510   0.59417   0.00000  Uiso   1.00
C144   C     0.02334   0.63518   0.38839   0.00000  Uiso   1.00
C145   C     0.07146   0.59493   0.31247   0.00000  Uiso   1.00
C146   C     0.02293   0.54513   0.27232   0.00000  Uiso   1.00
C147   C     0.97576   0.45742   0.18257   0.00000  Uiso   1.00
C148   C     0.07582   0.66642   0.49808   0.00000  Uiso   1.00
C149   C     0.16808   0.65241   0.51436   0.00000  Uiso   1.00
C150   C     0.16374   0.62889   0.56655   0.00000  Uiso   1.00
C151   C     0.19806   0.58969   0.64710   0.00000  Uiso   1.00
C152   C     0.89112   0.67566   0.50650   0.00000  Uiso   1.00
C153   C     0.87845   0.75531   0.52018   0.00000  Uiso   1.00
C154   C     0.78645   0.81428   0.56185   0.00000  Uiso   1.00
C155   C     0.79104   0.88283   0.56770   0.00000  Uiso   1.00
C156   C     0.93005   0.62600   0.42299   0.00000  Uiso   1.00
C157   C     0.88144   0.57625   0.38294   0.00000  Uiso   1.00
C158   C     0.92947   0.53594   0.30698   0.00000  Uiso   1.00
C159   C     0.98253   0.65724   0.53268   0.00000  Uiso   1.00
C160   C     0.97805   0.63373   0.58484   0.00000  Uiso   1.00
C161   C     0.07029   0.61970   0.60121   0.00000  Uiso   1.00
H162   H     0.13549   0.69969   0.41586   0.00000  Uiso   1.00
H163   H     0.04868   0.84004   0.46458   0.00000  Uiso   1.00
H164   H     0.14366   0.60203   0.28571   0.00000  Uiso   1.00
H165   H     0.24025   0.65952   0.48758   0.00000  Uiso   1.00
H166   H     0.91127   0.99159   0.53383   0.00000  Uiso   1.00
H167   H     0.11157   0.48973   0.15667   0.00000  Uiso   1.00
H168   H     0.31526   0.61093   0.58235   0.00000  Uiso   1.00
H169   H     0.81849   0.66852   0.53344   0.00000  Uiso   1.00
H170   H     0.71427   0.80716   0.58861   0.00000  Uiso   1.00
H171   H     0.80926   0.56916   0.40974   0.00000  Uiso   1.00
H172   H     0.90585   0.62664   0.61160   0.00000  Uiso   1.00
H173   H     0.63986   0.96490   0.63450   0.00000  Uiso   1.00
H174   H     0.84015   0.46304   0.25733   0.00000  Uiso   1.00
H175   H     0.04385   0.58425   0.68301   0.00000  Uiso   1.00
O176   O     0.71272   0.07000   0.61832   0.00000  Uiso   1.00
O177   O     0.97551   0.41158   0.12350   0.00000  Uiso   1.00
O178   O     0.24275   0.57060   0.68198   0.00000  Uiso   1.00
N179   N     0.86170   0.96628   0.54997   0.00000  Uiso   1.00
N180   N     0.04896   0.49709   0.19734   0.00000  Uiso   1.00
N181   N     0.23940   0.61038   0.59530   0.00000  Uiso   1.00
N182   N     0.71566   0.95193   0.60413   0.00000  Uiso   1.00
N183   N     0.90291   0.48273   0.25151   0.00000  Uiso   1.00
N184   N     0.09336   0.59603   0.64946   0.00000  Uiso   1.00
C185   C     0.50556   0.56366   0.24664   0.00000  Uiso   1.00
C186   C     0.45575   0.51690   0.27564   0.00000  Uiso   1.00
C187   C     0.46470   0.51124   0.33689   0.00000  Uiso   1.00
C188   C     0.41322   0.46558   0.35440   0.00000  Uiso   1.00
C189   C     0.34470   0.39888   0.40589   0.00000  Uiso   1.00
C190   C     0.41468   0.61553   0.24446   0.00000  Uiso   1.00
C191   C     0.38912   0.69279   0.27948   0.00000  Uiso   1.00
C192   C     0.30308   0.73015   0.27073   0.00000  Uiso   1.00
C193   C     0.17085   0.81656   0.27375   0.00000  Uiso   1.00
C194   C     0.57268   0.50988   0.16651   0.00000  Uiso   1.00
C195   C     0.67996   0.49833   0.13597   0.00000  Uiso   1.00
C196   C     0.72693   0.44675   0.06159   0.00000  Uiso   1.00
C197   C     0.84002   0.36913   0.94358   0.00000  Uiso   1.00
C198   C     0.39822   0.49264   0.16883   0.00000  Uiso   1.00
C199   C     0.39745   0.47833   0.23338   0.00000  Uiso   1.00
C200   C     0.34594   0.43266   0.25080   0.00000  Uiso   1.00
C201   C     0.35482   0.42693   0.31206   0.00000  Uiso   1.00
C202   C     0.35638   0.57696   0.20219   0.00000  Uiso   1.00
C203   C     0.27036   0.61421   0.19338   0.00000  Uiso   1.00
C204   C     0.24467   0.69150   0.22838   0.00000  Uiso   1.00
C205   C     0.51438   0.47130   0.12424   0.00000  Uiso   1.00
C206   C     0.56120   0.41974   0.04988   0.00000  Uiso   1.00
C207   C     0.66853   0.40811   0.01925   0.00000  Uiso   1.00
H208   H     0.55095   0.59370   0.27955   0.00000  Uiso   1.00
H209   H     0.50982   0.54111   0.36959   0.00000  Uiso   1.00
H210   H     0.43426   0.72262   0.31217   0.00000  Uiso   1.00
H211   H     0.72505   0.52819   0.16870   0.00000  Uiso   1.00
H212   H     0.43848   0.46582   0.45079   0.00000  Uiso   1.00
H213   H     0.27917   0.84855   0.32971   0.00000  Uiso   1.00
H214   H     0.89237   0.43855   0.02716   0.00000  Uiso   1.00
H215   H     0.35283   0.46261   0.13592   0.00000  Uiso   1.00
H216   H     0.30083   0.40282   0.21808   0.00000  Uiso   1.00
H217   H     0.22526   0.58434   0.16067   0.00000  Uiso   1.00
H218   H     0.51606   0.38990   0.01719   0.00000  Uiso   1.00
H219   H     0.26884   0.35358   0.32783   0.00000  Uiso   1.00
H220   H     0.10955   0.73631   0.20674   0.00000  Uiso   1.00
H221   H     0.72274   0.32631   0.90420   0.00000  Uiso   1.00
O222   O     0.32300   0.37275   0.44596   0.00000  Uiso   1.00
O223   O     0.11402   0.87488   0.28710   0.00000  Uiso   1.00
O224   O     0.91851   0.33697   0.89016   0.00000  Uiso   1.00
N225   N     0.40571   0.44759   0.41057   0.00000  Uiso   1.00
N226   N     0.25676   0.80543   0.29738   0.00000  Uiso   1.00
N227   N     0.83004   0.42212   0.01451   0.00000  Uiso   1.00
N228   N     0.31443   0.38720   0.34440   0.00000  Uiso   1.00
N229   N     0.16548   0.74503   0.23121   0.00000  Uiso   1.00
N230   N     0.73876   0.36173   0.94834   0.00000  Uiso   1.00
C231   C     0.74919   0.75714   0.31555   0.00000  Uiso   1.00
C232   C     0.72913   0.72629   0.24166   0.00000  Uiso   1.00
C233   C     0.79771   0.66637   0.17570   0.00000  Uiso   1.00
C234   C     0.76480   0.64675   0.11422   0.00000  Uiso   1.00
C235   C     0.74854   0.59289   0.99883   0.00000  Uiso   1.00
C236   C     0.65625   0.75477   0.36922   0.00000  Uiso   1.00
C237   C     0.66355   0.71881   0.41052   0.00000  Uiso   1.00
C238   C     0.56929   0.72318   0.45642   0.00000  Uiso   1.00
C239   C     0.43988   0.71358   0.53911   0.00000  Uiso   1.00
C240   C     0.73856   0.83951   0.34132   0.00000  Uiso   1.00
C241   C     0.81506   0.87481   0.35918   0.00000  Uiso   1.00
C242   C     0.79008   0.95052   0.38161   0.00000  Uiso   1.00
C243   C     0.78848   0.07249   0.42098   0.00000  Uiso   1.00
C244   C     0.56880   0.82884   0.32365   0.00000  Uiso   1.00
C245   C     0.63115   0.76523   0.24607   0.00000  Uiso   1.00
C246   C     0.59813   0.74570   0.18467   0.00000  Uiso   1.00
C247   C     0.66665   0.68577   0.11863   0.00000  Uiso   1.00
C248   C     0.55828   0.79371   0.37362   0.00000  Uiso   1.00
C249   C     0.46398   0.79814   0.41948   0.00000  Uiso   1.00
C250   C     0.47113   0.76219   0.46083   0.00000  Uiso   1.00
C251   C     0.64059   0.87845   0.34572   0.00000  Uiso   1.00
C252   C     0.61548   0.95413   0.36814   0.00000  Uiso   1.00
C253   C     0.69193   0.98954   0.38602   0.00000  Uiso   1.00
H254   H     0.82546   0.72682   0.31213   0.00000  Uiso   1.00
H255   H     0.87352   0.63625   0.17232   0.00000  Uiso   1.00
H256   H     0.73938   0.68869   0.40711   0.00000  Uiso   1.00
H257   H     0.89087   0.84465   0.35577   0.00000  Uiso   1.00
H258   H     0.88357   0.55298   0.01927   0.00000  Uiso   1.00
H259   H     0.60074   0.66357   0.51434   0.00000  Uiso   1.00
H260   H     0.92017   0.99246   0.40609   0.00000  Uiso   1.00
H261   H     0.49252   0.85916   0.32708   0.00000  Uiso   1.00
H262   H     0.52231   0.77585   0.18809   0.00000  Uiso   1.00
H263   H     0.38817   0.82828   0.42288   0.00000  Uiso   1.00
H264   H     0.53966   0.98425   0.37154   0.00000  Uiso   1.00
H265   H     0.59851   0.66628   0.03206   0.00000  Uiso   1.00
H266   H     0.31568   0.77687   0.52714   0.00000  Uiso   1.00
H267   H     0.63511   0.10576   0.41889   0.00000  Uiso   1.00
O268   O     0.76663   0.55242   0.93397   0.00000  Uiso   1.00
O269   O     0.39557   0.69752   0.58350   0.00000  Uiso   1.00
O270   O     0.81466   0.12901   0.44147   0.00000  Uiso   1.00
N271   N     0.81240   0.59109   0.04135   0.00000  Uiso   1.00
N272   N     0.54798   0.69447   0.50421   0.00000  Uiso   1.00
N273   N     0.84661   0.00196   0.40302   0.00000  Uiso   1.00
N274   N     0.65902   0.65206   0.04824   0.00000  Uiso   1.00
N275   N     0.39459   0.75544   0.51109   0.00000  Uiso   1.00
N276   N     0.69322   0.06293   0.40991   0.00000  Uiso   1.00
