data_job_05775
_audit_creation_date              2018-12-19
_audit_creation_method            'Materials Studio'
_symmetry_space_group_name_H-M    'P1'
_symmetry_Int_Tables_number       1
_symmetry_cell_setting            triclinic
loop_
_symmetry_equiv_pos_as_xyz
  x,y,z
_cell_length_a                    24.3211
_cell_length_b                    18.0560
_cell_length_c                    14.3371
_cell_angle_alpha                 90.0000
_cell_angle_beta                  90.0000
_cell_angle_gamma                 90.0000
loop_
_atom_site_label
_atom_site_type_symbol
_atom_site_fract_x
_atom_site_fract_y
_atom_site_fract_z
_atom_site_U_iso_or_equiv
_atom_site_adp_type
_atom_site_occupancy
C1     C     0.11325   0.31381   0.44986   0.00000  Uiso   1.00
C2     C     0.06370   0.33988   0.50616   0.00000  Uiso   1.00
C3     C     0.02232   0.38625   0.47407   0.00000  Uiso   1.00
C4     C     0.98055   0.40362   0.53636   0.00000  Uiso   1.00
C5     C     0.90368   0.44840   0.60994   0.00000  Uiso   1.00
C6     C     0.16385   0.33678   0.50563   0.00000  Uiso   1.00
C7     C     0.20666   0.38053   0.47309   0.00000  Uiso   1.00
C8     C     0.24920   0.39529   0.53494   0.00000  Uiso   1.00
C9     C     0.32782   0.43521   0.60767   0.00000  Uiso   1.00
C10    C     0.11183   0.22941   0.45270   0.00000  Uiso   1.00
C11    C     0.11092   0.18288   0.37567   0.00000  Uiso   1.00
C12    C     0.10967   0.10723   0.39295   0.00000  Uiso   1.00
C13    C     0.10752   0.98044   0.38351   0.00000  Uiso   1.00
C14    C     0.11268   0.26220   0.61754   0.00000  Uiso   1.00
C15    C     0.06340   0.31184   0.59723   0.00000  Uiso   1.00
C16    C     0.02168   0.32915   0.65959   0.00000  Uiso   1.00
C17    C     0.98024   0.37554   0.62760   0.00000  Uiso   1.00
C18    C     0.16354   0.30875   0.59670   0.00000  Uiso   1.00
C19    C     0.20603   0.32344   0.65861   0.00000  Uiso   1.00
C20    C     0.24890   0.36721   0.62618   0.00000  Uiso   1.00
C21    C     0.11151   0.20137   0.54378   0.00000  Uiso   1.00
C22    C     0.11028   0.12578   0.56118   0.00000  Uiso   1.00
C23    C     0.10936   0.07915   0.48419   0.00000  Uiso   1.00
H24    H     0.11350   0.33563   0.37896   0.00000  Uiso   1.00
H25    H     0.02257   0.40794   0.40359   0.00000  Uiso   1.00
H26    H     0.20689   0.40221   0.40261   0.00000  Uiso   1.00
H27    H     0.11116   0.20459   0.30520   0.00000  Uiso   1.00
H28    H     0.92164   0.47576   0.47107   0.00000  Uiso   1.00
H29    H     0.31029   0.46367   0.46900   0.00000  Uiso   1.00
H30    H     0.10842   0.04695   0.26359   0.00000  Uiso   1.00
H31    H     0.11244   0.24037   0.68844   0.00000  Uiso   1.00
H32    H     0.02146   0.30745   0.73006   0.00000  Uiso   1.00
H33    H     0.20578   0.30173   0.72908   0.00000  Uiso   1.00
H34    H     0.11004   0.10411   0.63167   0.00000  Uiso   1.00
H35    H     0.92073   0.39421   0.73605   0.00000  Uiso   1.00
H36    H     0.30939   0.38212   0.73397   0.00000  Uiso   1.00
H37    H     0.10751   0.96539   0.52856   0.00000  Uiso   1.00
O38    O     0.86136   0.48085   0.62537   0.00000  Uiso   1.00
O39    O     0.37127   0.46498   0.62263   0.00000  Uiso   1.00
O40    O     0.10641   0.91825   0.35314   0.00000  Uiso   1.00
N41    N     0.93391   0.44735   0.52772   0.00000  Uiso   1.00
N42    N     0.29727   0.43606   0.52578   0.00000  Uiso   1.00
N43    N     0.10855   0.04646   0.33374   0.00000  Uiso   1.00
N44    N     0.93342   0.40346   0.67030   0.00000  Uiso   1.00
N45    N     0.29679   0.39217   0.66836   0.00000  Uiso   1.00
N46    N     0.10806   0.00257   0.47632   0.00000  Uiso   1.00
C47    C     0.38675   0.68619   0.44986   0.00000  Uiso   1.00
C48    C     0.43630   0.66012   0.50616   0.00000  Uiso   1.00
C49    C     0.47768   0.61375   0.47407   0.00000  Uiso   1.00
C50    C     0.51945   0.59638   0.53636   0.00000  Uiso   1.00
C51    C     0.59632   0.55160   0.60994   0.00000  Uiso   1.00
C52    C     0.33615   0.66322   0.50563   0.00000  Uiso   1.00
C53    C     0.29334   0.61947   0.47309   0.00000  Uiso   1.00
C54    C     0.25080   0.60471   0.53494   0.00000  Uiso   1.00
C55    C     0.17218   0.56479   0.60767   0.00000  Uiso   1.00
C56    C     0.38817   0.77059   0.45270   0.00000  Uiso   1.00
C57    C     0.38908   0.81712   0.37567   0.00000  Uiso   1.00
C58    C     0.39033   0.89277   0.39295   0.00000  Uiso   1.00
C59    C     0.39248   0.01956   0.38351   0.00000  Uiso   1.00
C60    C     0.38732   0.73780   0.61754   0.00000  Uiso   1.00
C61    C     0.43660   0.68816   0.59723   0.00000  Uiso   1.00
C62    C     0.47832   0.67085   0.65959   0.00000  Uiso   1.00
C63    C     0.51976   0.62446   0.62760   0.00000  Uiso   1.00
C64    C     0.33646   0.69125   0.59670   0.00000  Uiso   1.00
C65    C     0.29397   0.67656   0.65861   0.00000  Uiso   1.00
C66    C     0.25110   0.63279   0.62618   0.00000  Uiso   1.00
C67    C     0.38849   0.79863   0.54378   0.00000  Uiso   1.00
C68    C     0.38972   0.87422   0.56118   0.00000  Uiso   1.00
C69    C     0.39064   0.92085   0.48419   0.00000  Uiso   1.00
H70    H     0.38650   0.66437   0.37896   0.00000  Uiso   1.00
H71    H     0.47743   0.59206   0.40359   0.00000  Uiso   1.00
H72    H     0.29311   0.59779   0.40261   0.00000  Uiso   1.00
H73    H     0.38884   0.79541   0.30520   0.00000  Uiso   1.00
H74    H     0.57836   0.52424   0.47107   0.00000  Uiso   1.00
H75    H     0.18971   0.53633   0.46900   0.00000  Uiso   1.00
H76    H     0.39158   0.95305   0.26359   0.00000  Uiso   1.00
H77    H     0.38756   0.75963   0.68844   0.00000  Uiso   1.00
H78    H     0.47854   0.69255   0.73006   0.00000  Uiso   1.00
H79    H     0.29422   0.69827   0.72908   0.00000  Uiso   1.00
H80    H     0.38996   0.89589   0.63167   0.00000  Uiso   1.00
H81    H     0.57927   0.60579   0.73605   0.00000  Uiso   1.00
H82    H     0.19061   0.61788   0.73397   0.00000  Uiso   1.00
H83    H     0.39249   0.03461   0.52856   0.00000  Uiso   1.00
O84    O     0.63864   0.51915   0.62537   0.00000  Uiso   1.00
O85    O     0.12873   0.53502   0.62263   0.00000  Uiso   1.00
O86    O     0.39359   0.08175   0.35314   0.00000  Uiso   1.00
N87    N     0.56609   0.55265   0.52772   0.00000  Uiso   1.00
N88    N     0.20273   0.56394   0.52578   0.00000  Uiso   1.00
N89    N     0.39145   0.95354   0.33374   0.00000  Uiso   1.00
N90    N     0.56658   0.59654   0.67030   0.00000  Uiso   1.00
N91    N     0.20321   0.60783   0.66836   0.00000  Uiso   1.00
N92    N     0.39194   0.99743   0.47632   0.00000  Uiso   1.00
C93    C     0.38675   0.81381   0.05014   0.00000  Uiso   1.00
C94    C     0.43630   0.83988   0.99384   0.00000  Uiso   1.00
C95    C     0.47768   0.88625   0.02593   0.00000  Uiso   1.00
C96    C     0.51945   0.90362   0.96364   0.00000  Uiso   1.00
C97    C     0.59632   0.94840   0.89006   0.00000  Uiso   1.00
C98    C     0.33615   0.83678   0.99437   0.00000  Uiso   1.00
C99    C     0.29334   0.88053   0.02691   0.00000  Uiso   1.00
C100   C     0.25080   0.89529   0.96506   0.00000  Uiso   1.00
C101   C     0.17218   0.93521   0.89233   0.00000  Uiso   1.00
C102   C     0.38817   0.72941   0.04730   0.00000  Uiso   1.00
C103   C     0.38908   0.68288   0.12433   0.00000  Uiso   1.00
C104   C     0.39033   0.60723   0.10705   0.00000  Uiso   1.00
C105   C     0.39248   0.48044   0.11649   0.00000  Uiso   1.00
C106   C     0.38732   0.76220   0.88246   0.00000  Uiso   1.00
C107   C     0.43660   0.81184   0.90277   0.00000  Uiso   1.00
C108   C     0.47832   0.82915   0.84041   0.00000  Uiso   1.00
C109   C     0.51976   0.87554   0.87240   0.00000  Uiso   1.00
C110   C     0.33646   0.80875   0.90330   0.00000  Uiso   1.00
C111   C     0.29397   0.82344   0.84139   0.00000  Uiso   1.00
C112   C     0.25110   0.86721   0.87382   0.00000  Uiso   1.00
C113   C     0.38849   0.70137   0.95622   0.00000  Uiso   1.00
C114   C     0.38972   0.62578   0.93882   0.00000  Uiso   1.00
C115   C     0.39064   0.57915   0.01581   0.00000  Uiso   1.00
H116   H     0.38650   0.83563   0.12104   0.00000  Uiso   1.00
H117   H     0.47743   0.90794   0.09641   0.00000  Uiso   1.00
H118   H     0.29311   0.90221   0.09739   0.00000  Uiso   1.00
H119   H     0.38884   0.70459   0.19480   0.00000  Uiso   1.00
H120   H     0.57836   0.97576   0.02893   0.00000  Uiso   1.00
H121   H     0.18971   0.96367   0.03100   0.00000  Uiso   1.00
H122   H     0.39158   0.54695   0.23641   0.00000  Uiso   1.00
H123   H     0.38756   0.74037   0.81156   0.00000  Uiso   1.00
H124   H     0.47854   0.80745   0.76994   0.00000  Uiso   1.00
H125   H     0.29422   0.80173   0.77092   0.00000  Uiso   1.00
H126   H     0.38996   0.60411   0.86833   0.00000  Uiso   1.00
H127   H     0.57927   0.89421   0.76395   0.00000  Uiso   1.00
H128   H     0.19061   0.88212   0.76603   0.00000  Uiso   1.00
H129   H     0.39249   0.46539   0.97144   0.00000  Uiso   1.00
O130   O     0.63864   0.98085   0.87463   0.00000  Uiso   1.00
O131   O     0.12873   0.96498   0.87737   0.00000  Uiso   1.00
O132   O     0.39359   0.41825   0.14686   0.00000  Uiso   1.00
N133   N     0.56609   0.94735   0.97228   0.00000  Uiso   1.00
N134   N     0.20273   0.93606   0.97422   0.00000  Uiso   1.00
N135   N     0.39145   0.54646   0.16626   0.00000  Uiso   1.00
N136   N     0.56658   0.90346   0.82970   0.00000  Uiso   1.00
N137   N     0.20321   0.89217   0.83164   0.00000  Uiso   1.00
N138   N     0.39194   0.50257   0.02368   0.00000  Uiso   1.00
C139   C     0.11325   0.18619   0.05014   0.00000  Uiso   1.00
C140   C     0.06370   0.16012   0.99384   0.00000  Uiso   1.00
C141   C     0.02232   0.11375   0.02593   0.00000  Uiso   1.00
C142   C     0.98055   0.09638   0.96364   0.00000  Uiso   1.00
C143   C     0.90368   0.05160   0.89006   0.00000  Uiso   1.00
C144   C     0.16385   0.16322   0.99437   0.00000  Uiso   1.00
C145   C     0.20666   0.11947   0.02691   0.00000  Uiso   1.00
C146   C     0.24920   0.10471   0.96506   0.00000  Uiso   1.00
C147   C     0.32782   0.06479   0.89233   0.00000  Uiso   1.00
C148   C     0.11183   0.27059   0.04730   0.00000  Uiso   1.00
C149   C     0.11092   0.31712   0.12433   0.00000  Uiso   1.00
C150   C     0.10967   0.39277   0.10705   0.00000  Uiso   1.00
C151   C     0.10752   0.51956   0.11649   0.00000  Uiso   1.00
C152   C     0.11268   0.23780   0.88246   0.00000  Uiso   1.00
C153   C     0.06340   0.18816   0.90277   0.00000  Uiso   1.00
C154   C     0.02168   0.17085   0.84041   0.00000  Uiso   1.00
C155   C     0.98024   0.12446   0.87240   0.00000  Uiso   1.00
C156   C     0.16354   0.19125   0.90330   0.00000  Uiso   1.00
C157   C     0.20603   0.17656   0.84139   0.00000  Uiso   1.00
C158   C     0.24890   0.13279   0.87382   0.00000  Uiso   1.00
C159   C     0.11151   0.29863   0.95622   0.00000  Uiso   1.00
C160   C     0.11028   0.37422   0.93882   0.00000  Uiso   1.00
C161   C     0.10936   0.42085   0.01581   0.00000  Uiso   1.00
H162   H     0.11350   0.16437   0.12104   0.00000  Uiso   1.00
H163   H     0.02257   0.09206   0.09641   0.00000  Uiso   1.00
H164   H     0.20689   0.09779   0.09739   0.00000  Uiso   1.00
H165   H     0.11116   0.29541   0.19480   0.00000  Uiso   1.00
H166   H     0.92164   0.02424   0.02893   0.00000  Uiso   1.00
H167   H     0.31029   0.03633   0.03100   0.00000  Uiso   1.00
H168   H     0.10842   0.45305   0.23641   0.00000  Uiso   1.00
H169   H     0.11244   0.25963   0.81156   0.00000  Uiso   1.00
H170   H     0.02146   0.19255   0.76994   0.00000  Uiso   1.00
H171   H     0.20578   0.19827   0.77092   0.00000  Uiso   1.00
H172   H     0.11004   0.39589   0.86833   0.00000  Uiso   1.00
H173   H     0.92073   0.10579   0.76395   0.00000  Uiso   1.00
H174   H     0.30939   0.11788   0.76603   0.00000  Uiso   1.00
H175   H     0.10751   0.53461   0.97144   0.00000  Uiso   1.00
O176   O     0.86136   0.01915   0.87463   0.00000  Uiso   1.00
O177   O     0.37127   0.03502   0.87737   0.00000  Uiso   1.00
O178   O     0.10641   0.58175   0.14686   0.00000  Uiso   1.00
N179   N     0.93391   0.05265   0.97228   0.00000  Uiso   1.00
N180   N     0.29727   0.06394   0.97422   0.00000  Uiso   1.00
N181   N     0.10855   0.45354   0.16626   0.00000  Uiso   1.00
N182   N     0.93342   0.09654   0.82970   0.00000  Uiso   1.00
N183   N     0.29679   0.10783   0.83164   0.00000  Uiso   1.00
N184   N     0.10806   0.49743   0.02368   0.00000  Uiso   1.00
C185   C     0.88675   0.68619   0.55014   0.00000  Uiso   1.00
C186   C     0.93630   0.66012   0.49384   0.00000  Uiso   1.00
C187   C     0.97768   0.61375   0.52593   0.00000  Uiso   1.00
C188   C     0.01945   0.59638   0.46364   0.00000  Uiso   1.00
C189   C     0.09632   0.55160   0.39006   0.00000  Uiso   1.00
C190   C     0.83615   0.66322   0.49437   0.00000  Uiso   1.00
C191   C     0.79334   0.61947   0.52691   0.00000  Uiso   1.00
C192   C     0.75080   0.60471   0.46506   0.00000  Uiso   1.00
C193   C     0.67218   0.56479   0.39233   0.00000  Uiso   1.00
C194   C     0.88817   0.77059   0.54730   0.00000  Uiso   1.00
C195   C     0.88908   0.81712   0.62433   0.00000  Uiso   1.00
C196   C     0.89033   0.89277   0.60705   0.00000  Uiso   1.00
C197   C     0.89248   0.01956   0.61649   0.00000  Uiso   1.00
C198   C     0.88732   0.73780   0.38246   0.00000  Uiso   1.00
C199   C     0.93660   0.68816   0.40277   0.00000  Uiso   1.00
C200   C     0.97832   0.67085   0.34041   0.00000  Uiso   1.00
C201   C     0.01976   0.62446   0.37240   0.00000  Uiso   1.00
C202   C     0.83646   0.69125   0.40330   0.00000  Uiso   1.00
C203   C     0.79397   0.67656   0.34139   0.00000  Uiso   1.00
C204   C     0.75110   0.63279   0.37382   0.00000  Uiso   1.00
C205   C     0.88849   0.79863   0.45622   0.00000  Uiso   1.00
C206   C     0.88972   0.87422   0.43882   0.00000  Uiso   1.00
C207   C     0.89064   0.92085   0.51581   0.00000  Uiso   1.00
H208   H     0.88650   0.66437   0.62104   0.00000  Uiso   1.00
H209   H     0.97743   0.59206   0.59641   0.00000  Uiso   1.00
H210   H     0.79311   0.59779   0.59739   0.00000  Uiso   1.00
H211   H     0.88884   0.79541   0.69480   0.00000  Uiso   1.00
H212   H     0.07836   0.52424   0.52893   0.00000  Uiso   1.00
H213   H     0.68971   0.53633   0.53100   0.00000  Uiso   1.00
H214   H     0.89158   0.95305   0.73641   0.00000  Uiso   1.00
H215   H     0.88756   0.75963   0.31156   0.00000  Uiso   1.00
H216   H     0.97854   0.69255   0.26994   0.00000  Uiso   1.00
H217   H     0.79422   0.69827   0.27092   0.00000  Uiso   1.00
H218   H     0.88996   0.89589   0.36833   0.00000  Uiso   1.00
H219   H     0.07927   0.60579   0.26395   0.00000  Uiso   1.00
H220   H     0.69061   0.61788   0.26603   0.00000  Uiso   1.00
H221   H     0.89249   0.03461   0.47144   0.00000  Uiso   1.00
O222   O     0.13864   0.51915   0.37463   0.00000  Uiso   1.00
O223   O     0.62873   0.53502   0.37737   0.00000  Uiso   1.00
O224   O     0.89359   0.08175   0.64686   0.00000  Uiso   1.00
N225   N     0.06609   0.55265   0.47228   0.00000  Uiso   1.00
N226   N     0.70273   0.56394   0.47422   0.00000  Uiso   1.00
N227   N     0.89145   0.95354   0.66626   0.00000  Uiso   1.00
N228   N     0.06658   0.59654   0.32970   0.00000  Uiso   1.00
N229   N     0.70321   0.60783   0.33164   0.00000  Uiso   1.00
N230   N     0.89194   0.99743   0.52368   0.00000  Uiso   1.00
C231   C     0.61325   0.31381   0.55014   0.00000  Uiso   1.00
C232   C     0.56370   0.33988   0.49384   0.00000  Uiso   1.00
C233   C     0.52232   0.38625   0.52593   0.00000  Uiso   1.00
C234   C     0.48055   0.40362   0.46364   0.00000  Uiso   1.00
C235   C     0.40368   0.44840   0.39006   0.00000  Uiso   1.00
C236   C     0.66385   0.33678   0.49437   0.00000  Uiso   1.00
C237   C     0.70666   0.38053   0.52691   0.00000  Uiso   1.00
C238   C     0.74920   0.39529   0.46506   0.00000  Uiso   1.00
C239   C     0.82782   0.43521   0.39233   0.00000  Uiso   1.00
C240   C     0.61183   0.22941   0.54730   0.00000  Uiso   1.00
C241   C     0.61092   0.18288   0.62433   0.00000  Uiso   1.00
C242   C     0.60967   0.10723   0.60705   0.00000  Uiso   1.00
C243   C     0.60752   0.98044   0.61649   0.00000  Uiso   1.00
C244   C     0.61268   0.26220   0.38246   0.00000  Uiso   1.00
C245   C     0.56340   0.31184   0.40277   0.00000  Uiso   1.00
C246   C     0.52168   0.32915   0.34041   0.00000  Uiso   1.00
C247   C     0.48024   0.37554   0.37240   0.00000  Uiso   1.00
C248   C     0.66354   0.30875   0.40330   0.00000  Uiso   1.00
C249   C     0.70603   0.32344   0.34139   0.00000  Uiso   1.00
C250   C     0.74890   0.36721   0.37382   0.00000  Uiso   1.00
C251   C     0.61151   0.20137   0.45622   0.00000  Uiso   1.00
C252   C     0.61028   0.12578   0.43882   0.00000  Uiso   1.00
C253   C     0.60936   0.07915   0.51581   0.00000  Uiso   1.00
H254   H     0.61350   0.33563   0.62104   0.00000  Uiso   1.00
H255   H     0.52257   0.40794   0.59641   0.00000  Uiso   1.00
H256   H     0.70689   0.40221   0.59739   0.00000  Uiso   1.00
H257   H     0.61116   0.20459   0.69480   0.00000  Uiso   1.00
H258   H     0.42164   0.47576   0.52893   0.00000  Uiso   1.00
H259   H     0.81029   0.46367   0.53100   0.00000  Uiso   1.00
H260   H     0.60842   0.04695   0.73641   0.00000  Uiso   1.00
H261   H     0.61244   0.24037   0.31156   0.00000  Uiso   1.00
H262   H     0.52146   0.30745   0.26994   0.00000  Uiso   1.00
H263   H     0.70578   0.30173   0.27092   0.00000  Uiso   1.00
H264   H     0.61004   0.10411   0.36833   0.00000  Uiso   1.00
H265   H     0.42073   0.39421   0.26395   0.00000  Uiso   1.00
H266   H     0.80939   0.38212   0.26603   0.00000  Uiso   1.00
H267   H     0.60751   0.96539   0.47144   0.00000  Uiso   1.00
O268   O     0.36136   0.48085   0.37463   0.00000  Uiso   1.00
O269   O     0.87127   0.46498   0.37737   0.00000  Uiso   1.00
O270   O     0.60641   0.91825   0.64686   0.00000  Uiso   1.00
N271   N     0.43391   0.44735   0.47228   0.00000  Uiso   1.00
N272   N     0.79727   0.43606   0.47422   0.00000  Uiso   1.00
N273   N     0.60855   0.04646   0.66626   0.00000  Uiso   1.00
N274   N     0.43342   0.40346   0.32970   0.00000  Uiso   1.00
N275   N     0.79679   0.39217   0.33164   0.00000  Uiso   1.00
N276   N     0.60806   0.00257   0.52368   0.00000  Uiso   1.00
C277   C     0.61325   0.18619   0.94986   0.00000  Uiso   1.00
C278   C     0.56370   0.16012   0.00616   0.00000  Uiso   1.00
C279   C     0.52232   0.11375   0.97407   0.00000  Uiso   1.00
C280   C     0.48055   0.09638   0.03636   0.00000  Uiso   1.00
C281   C     0.40368   0.05160   0.10994   0.00000  Uiso   1.00
C282   C     0.66385   0.16322   0.00563   0.00000  Uiso   1.00
C283   C     0.70666   0.11947   0.97309   0.00000  Uiso   1.00
C284   C     0.74920   0.10471   0.03494   0.00000  Uiso   1.00
C285   C     0.82782   0.06479   0.10767   0.00000  Uiso   1.00
C286   C     0.61183   0.27059   0.95270   0.00000  Uiso   1.00
C287   C     0.61092   0.31712   0.87567   0.00000  Uiso   1.00
C288   C     0.60967   0.39277   0.89295   0.00000  Uiso   1.00
C289   C     0.60752   0.51956   0.88351   0.00000  Uiso   1.00
C290   C     0.61268   0.23780   0.11754   0.00000  Uiso   1.00
C291   C     0.56340   0.18816   0.09723   0.00000  Uiso   1.00
C292   C     0.52168   0.17085   0.15959   0.00000  Uiso   1.00
C293   C     0.48024   0.12446   0.12760   0.00000  Uiso   1.00
C294   C     0.66354   0.19125   0.09670   0.00000  Uiso   1.00
C295   C     0.70603   0.17656   0.15861   0.00000  Uiso   1.00
C296   C     0.74890   0.13279   0.12618   0.00000  Uiso   1.00
C297   C     0.61151   0.29863   0.04378   0.00000  Uiso   1.00
C298   C     0.61028   0.37422   0.06118   0.00000  Uiso   1.00
C299   C     0.60936   0.42085   0.98419   0.00000  Uiso   1.00
H300   H     0.61350   0.16437   0.87896   0.00000  Uiso   1.00
H301   H     0.52257   0.09206   0.90359   0.00000  Uiso   1.00
H302   H     0.70689   0.09779   0.90261   0.00000  Uiso   1.00
H303   H     0.61116   0.29541   0.80520   0.00000  Uiso   1.00
H304   H     0.42164   0.02424   0.97107   0.00000  Uiso   1.00
H305   H     0.81029   0.03633   0.96900   0.00000  Uiso   1.00
H306   H     0.60842   0.45305   0.76359   0.00000  Uiso   1.00
H307   H     0.61244   0.25963   0.18844   0.00000  Uiso   1.00
H308   H     0.52146   0.19255   0.23006   0.00000  Uiso   1.00
H309   H     0.70578   0.19827   0.22908   0.00000  Uiso   1.00
H310   H     0.61004   0.39589   0.13167   0.00000  Uiso   1.00
H311   H     0.42073   0.10579   0.23605   0.00000  Uiso   1.00
H312   H     0.80939   0.11788   0.23397   0.00000  Uiso   1.00
H313   H     0.60751   0.53461   0.02856   0.00000  Uiso   1.00
O314   O     0.36136   0.01915   0.12537   0.00000  Uiso   1.00
O315   O     0.87127   0.03502   0.12263   0.00000  Uiso   1.00
O316   O     0.60641   0.58175   0.85314   0.00000  Uiso   1.00
N317   N     0.43391   0.05265   0.02772   0.00000  Uiso   1.00
N318   N     0.79727   0.06394   0.02578   0.00000  Uiso   1.00
N319   N     0.60855   0.45354   0.83374   0.00000  Uiso   1.00
N320   N     0.43342   0.09654   0.17030   0.00000  Uiso   1.00
N321   N     0.79679   0.10783   0.16836   0.00000  Uiso   1.00
N322   N     0.60806   0.49743   0.97632   0.00000  Uiso   1.00
C323   C     0.88675   0.81381   0.94986   0.00000  Uiso   1.00
C324   C     0.93630   0.83988   0.00616   0.00000  Uiso   1.00
C325   C     0.97768   0.88625   0.97407   0.00000  Uiso   1.00
C326   C     0.01945   0.90362   0.03636   0.00000  Uiso   1.00
C327   C     0.09632   0.94840   0.10994   0.00000  Uiso   1.00
C328   C     0.83615   0.83678   0.00563   0.00000  Uiso   1.00
C329   C     0.79334   0.88053   0.97309   0.00000  Uiso   1.00
C330   C     0.75080   0.89529   0.03494   0.00000  Uiso   1.00
C331   C     0.67218   0.93521   0.10767   0.00000  Uiso   1.00
C332   C     0.88817   0.72941   0.95270   0.00000  Uiso   1.00
C333   C     0.88908   0.68288   0.87567   0.00000  Uiso   1.00
C334   C     0.89033   0.60723   0.89295   0.00000  Uiso   1.00
C335   C     0.89248   0.48044   0.88351   0.00000  Uiso   1.00
C336   C     0.88732   0.76220   0.11754   0.00000  Uiso   1.00
C337   C     0.93660   0.81184   0.09723   0.00000  Uiso   1.00
C338   C     0.97832   0.82915   0.15959   0.00000  Uiso   1.00
C339   C     0.01976   0.87554   0.12760   0.00000  Uiso   1.00
C340   C     0.83646   0.80875   0.09670   0.00000  Uiso   1.00
C341   C     0.79397   0.82344   0.15861   0.00000  Uiso   1.00
C342   C     0.75110   0.86721   0.12618   0.00000  Uiso   1.00
C343   C     0.88849   0.70137   0.04378   0.00000  Uiso   1.00
C344   C     0.88972   0.62578   0.06118   0.00000  Uiso   1.00
C345   C     0.89064   0.57915   0.98419   0.00000  Uiso   1.00
H346   H     0.88650   0.83563   0.87896   0.00000  Uiso   1.00
H347   H     0.97743   0.90794   0.90359   0.00000  Uiso   1.00
H348   H     0.79311   0.90221   0.90261   0.00000  Uiso   1.00
H349   H     0.88884   0.70459   0.80520   0.00000  Uiso   1.00
H350   H     0.07836   0.97576   0.97107   0.00000  Uiso   1.00
H351   H     0.68971   0.96367   0.96900   0.00000  Uiso   1.00
H352   H     0.89158   0.54695   0.76359   0.00000  Uiso   1.00
H353   H     0.88756   0.74037   0.18844   0.00000  Uiso   1.00
H354   H     0.97854   0.80745   0.23006   0.00000  Uiso   1.00
H355   H     0.79422   0.80173   0.22908   0.00000  Uiso   1.00
H356   H     0.88996   0.60411   0.13167   0.00000  Uiso   1.00
H357   H     0.07927   0.89421   0.23605   0.00000  Uiso   1.00
H358   H     0.69061   0.88212   0.23397   0.00000  Uiso   1.00
H359   H     0.89249   0.46539   0.02856   0.00000  Uiso   1.00
O360   O     0.13864   0.98085   0.12537   0.00000  Uiso   1.00
O361   O     0.62873   0.96498   0.12263   0.00000  Uiso   1.00
O362   O     0.89359   0.41825   0.85314   0.00000  Uiso   1.00
N363   N     0.06609   0.94735   0.02772   0.00000  Uiso   1.00
N364   N     0.70273   0.93606   0.02578   0.00000  Uiso   1.00
N365   N     0.89145   0.54646   0.83374   0.00000  Uiso   1.00
N366   N     0.06658   0.90346   0.17030   0.00000  Uiso   1.00
N367   N     0.70321   0.89217   0.16836   0.00000  Uiso   1.00
N368   N     0.89194   0.50257   0.97632   0.00000  Uiso   1.00
