data_job_03692
_audit_creation_date              2018-12-19
_audit_creation_method            'Materials Studio'
_symmetry_space_group_name_H-M    'P1'
_symmetry_Int_Tables_number       1
_symmetry_cell_setting            triclinic
loop_
_symmetry_equiv_pos_as_xyz
  x,y,z
_cell_length_a                    14.0337
_cell_length_b                    20.7649
_cell_length_c                    23.9166
_cell_angle_alpha                 90.0000
_cell_angle_beta                  77.1853
_cell_angle_gamma                 90.0000
loop_
_atom_site_label
_atom_site_type_symbol
_atom_site_fract_x
_atom_site_fract_y
_atom_site_fract_z
_atom_site_U_iso_or_equiv
_atom_site_adp_type
_atom_site_occupancy
C1     C     0.43793   0.28807   0.58364   0.00000  Uiso   1.00
C2     C     0.40694   0.33039   0.53868   0.00000  Uiso   1.00
C3     C     0.40851   0.31269   0.48253   0.00000  Uiso   1.00
C4     C     0.37726   0.35831   0.44811   0.00000  Uiso   1.00
C5     C     0.33400   0.41474   0.37508   0.00000  Uiso   1.00
C6     C     0.51671   0.32569   0.60449   0.00000  Uiso   1.00
C7     C     0.61057   0.30403   0.60368   0.00000  Uiso   1.00
C8     C     0.67171   0.34569   0.62466   0.00000  Uiso   1.00
C9     C     0.79885   0.39480   0.65384   0.00000  Uiso   1.00
C10    C     0.35021   0.28523   0.63430   0.00000  Uiso   1.00
C11    C     0.30408   0.22955   0.65857   0.00000  Uiso   1.00
C12    C     0.22506   0.23715   0.70466   0.00000  Uiso   1.00
C13    C     0.09368   0.22343   0.78013   0.00000  Uiso   1.00
C14    C     0.37964   0.40057   0.62237   0.00000  Uiso   1.00
C15    C     0.37528   0.39150   0.55971   0.00000  Uiso   1.00
C16    C     0.34402   0.43716   0.52537   0.00000  Uiso   1.00
C17    C     0.34554   0.41953   0.46918   0.00000  Uiso   1.00
C18    C     0.48506   0.38679   0.62552   0.00000  Uiso   1.00
C19    C     0.54607   0.42849   0.64652   0.00000  Uiso   1.00
C20    C     0.64000   0.40691   0.64573   0.00000  Uiso   1.00
C21    C     0.31855   0.34633   0.65533   0.00000  Uiso   1.00
C22    C     0.23959   0.35402   0.70140   0.00000  Uiso   1.00
C23    C     0.19334   0.29836   0.72573   0.00000  Uiso   1.00
H24    H     0.46259   0.24050   0.56727   0.00000  Uiso   1.00
H25    H     0.43303   0.26540   0.46627   0.00000  Uiso   1.00
H26    H     0.63505   0.25674   0.58740   0.00000  Uiso   1.00
H27    H     0.32860   0.18227   0.64228   0.00000  Uiso   1.00
H28    H     0.38632   0.31996   0.36355   0.00000  Uiso   1.00
H29    H     0.81228   0.30169   0.61899   0.00000  Uiso   1.00
H30    H     0.16609   0.14466   0.73472   0.00000  Uiso   1.00
H31    H     0.35499   0.44814   0.63874   0.00000  Uiso   1.00
H32    H     0.31952   0.48444   0.54166   0.00000  Uiso   1.00
H33    H     0.52154   0.47577   0.66279   0.00000  Uiso   1.00
H34    H     0.21510   0.40131   0.71767   0.00000  Uiso   1.00
H35    H     0.29420   0.49774   0.42474   0.00000  Uiso   1.00
H36    H     0.72016   0.47947   0.68018   0.00000  Uiso   1.00
H37    H     0.07397   0.32244   0.79590   0.00000  Uiso   1.00
O38    O     0.31890   0.42899   0.32899   0.00000  Uiso   1.00
O39    O     0.87773   0.40501   0.66412   0.00000  Uiso   1.00
O40    O     0.02995   0.19899   0.81594   0.00000  Uiso   1.00
N41    N     0.36949   0.35682   0.39128   0.00000  Uiso   1.00
N42    N     0.76774   0.33974   0.63009   0.00000  Uiso   1.00
N43    N     0.16362   0.19293   0.73829   0.00000  Uiso   1.00
N44    N     0.31992   0.45248   0.42421   0.00000  Uiso   1.00
N45    N     0.71817   0.43540   0.66302   0.00000  Uiso   1.00
N46    N     0.11405   0.28859   0.77122   0.00000  Uiso   1.00
C47    C     0.93793   0.78807   0.58364   0.00000  Uiso   1.00
C48    C     0.90694   0.83039   0.53868   0.00000  Uiso   1.00
C49    C     0.90851   0.81269   0.48253   0.00000  Uiso   1.00
C50    C     0.87726   0.85831   0.44811   0.00000  Uiso   1.00
C51    C     0.83400   0.91474   0.37508   0.00000  Uiso   1.00
C52    C     0.01671   0.82569   0.60449   0.00000  Uiso   1.00
C53    C     0.11057   0.80403   0.60368   0.00000  Uiso   1.00
C54    C     0.17171   0.84569   0.62466   0.00000  Uiso   1.00
C55    C     0.29885   0.89480   0.65384   0.00000  Uiso   1.00
C56    C     0.85021   0.78523   0.63430   0.00000  Uiso   1.00
C57    C     0.80408   0.72955   0.65857   0.00000  Uiso   1.00
C58    C     0.72506   0.73715   0.70466   0.00000  Uiso   1.00
C59    C     0.59368   0.72343   0.78013   0.00000  Uiso   1.00
C60    C     0.87964   0.90057   0.62237   0.00000  Uiso   1.00
C61    C     0.87528   0.89150   0.55971   0.00000  Uiso   1.00
C62    C     0.84402   0.93716   0.52537   0.00000  Uiso   1.00
C63    C     0.84554   0.91953   0.46918   0.00000  Uiso   1.00
C64    C     0.98506   0.88679   0.62552   0.00000  Uiso   1.00
C65    C     0.04607   0.92849   0.64652   0.00000  Uiso   1.00
C66    C     0.14000   0.90691   0.64573   0.00000  Uiso   1.00
C67    C     0.81855   0.84633   0.65533   0.00000  Uiso   1.00
C68    C     0.73959   0.85402   0.70140   0.00000  Uiso   1.00
C69    C     0.69334   0.79836   0.72573   0.00000  Uiso   1.00
H70    H     0.96259   0.74050   0.56727   0.00000  Uiso   1.00
H71    H     0.93303   0.76540   0.46627   0.00000  Uiso   1.00
H72    H     0.13505   0.75674   0.58740   0.00000  Uiso   1.00
H73    H     0.82860   0.68227   0.64228   0.00000  Uiso   1.00
H74    H     0.88632   0.81996   0.36355   0.00000  Uiso   1.00
H75    H     0.31228   0.80169   0.61899   0.00000  Uiso   1.00
H76    H     0.66609   0.64466   0.73472   0.00000  Uiso   1.00
H77    H     0.85499   0.94814   0.63874   0.00000  Uiso   1.00
H78    H     0.81952   0.98444   0.54166   0.00000  Uiso   1.00
H79    H     0.02154   0.97577   0.66279   0.00000  Uiso   1.00
H80    H     0.71510   0.90131   0.71767   0.00000  Uiso   1.00
H81    H     0.79420   0.99774   0.42474   0.00000  Uiso   1.00
H82    H     0.22016   0.97947   0.68018   0.00000  Uiso   1.00
H83    H     0.57397   0.82244   0.79590   0.00000  Uiso   1.00
O84    O     0.81890   0.92899   0.32899   0.00000  Uiso   1.00
O85    O     0.37773   0.90501   0.66412   0.00000  Uiso   1.00
O86    O     0.52995   0.69899   0.81594   0.00000  Uiso   1.00
N87    N     0.86949   0.85682   0.39128   0.00000  Uiso   1.00
N88    N     0.26774   0.83974   0.63009   0.00000  Uiso   1.00
N89    N     0.66362   0.69293   0.73829   0.00000  Uiso   1.00
N90    N     0.81992   0.95248   0.42421   0.00000  Uiso   1.00
N91    N     0.21817   0.93540   0.66302   0.00000  Uiso   1.00
N92    N     0.61405   0.78859   0.77122   0.00000  Uiso   1.00
C93    C     0.56207   0.28807   0.91636   0.00000  Uiso   1.00
C94    C     0.59306   0.33039   0.96132   0.00000  Uiso   1.00
C95    C     0.59149   0.31269   0.01747   0.00000  Uiso   1.00
C96    C     0.62274   0.35831   0.05189   0.00000  Uiso   1.00
C97    C     0.66600   0.41474   0.12492   0.00000  Uiso   1.00
C98    C     0.48329   0.32569   0.89551   0.00000  Uiso   1.00
C99    C     0.38943   0.30403   0.89632   0.00000  Uiso   1.00
C100   C     0.32829   0.34569   0.87534   0.00000  Uiso   1.00
C101   C     0.20115   0.39480   0.84616   0.00000  Uiso   1.00
C102   C     0.64979   0.28523   0.86570   0.00000  Uiso   1.00
C103   C     0.69592   0.22955   0.84143   0.00000  Uiso   1.00
C104   C     0.77494   0.23715   0.79534   0.00000  Uiso   1.00
C105   C     0.90632   0.22343   0.71987   0.00000  Uiso   1.00
C106   C     0.62036   0.40057   0.87763   0.00000  Uiso   1.00
C107   C     0.62472   0.39150   0.94029   0.00000  Uiso   1.00
C108   C     0.65598   0.43716   0.97463   0.00000  Uiso   1.00
C109   C     0.65446   0.41953   0.03082   0.00000  Uiso   1.00
C110   C     0.51494   0.38679   0.87448   0.00000  Uiso   1.00
C111   C     0.45393   0.42849   0.85348   0.00000  Uiso   1.00
C112   C     0.36000   0.40691   0.85427   0.00000  Uiso   1.00
C113   C     0.68145   0.34633   0.84467   0.00000  Uiso   1.00
C114   C     0.76041   0.35402   0.79860   0.00000  Uiso   1.00
C115   C     0.80666   0.29836   0.77427   0.00000  Uiso   1.00
H116   H     0.53741   0.24050   0.93273   0.00000  Uiso   1.00
H117   H     0.56697   0.26540   0.03373   0.00000  Uiso   1.00
H118   H     0.36495   0.25674   0.91260   0.00000  Uiso   1.00
H119   H     0.67140   0.18227   0.85772   0.00000  Uiso   1.00
H120   H     0.61368   0.31996   0.13645   0.00000  Uiso   1.00
H121   H     0.18772   0.30169   0.88101   0.00000  Uiso   1.00
H122   H     0.83391   0.14466   0.76528   0.00000  Uiso   1.00
H123   H     0.64501   0.44814   0.86126   0.00000  Uiso   1.00
H124   H     0.68048   0.48444   0.95834   0.00000  Uiso   1.00
H125   H     0.47846   0.47577   0.83721   0.00000  Uiso   1.00
H126   H     0.78490   0.40131   0.78233   0.00000  Uiso   1.00
H127   H     0.70580   0.49774   0.07526   0.00000  Uiso   1.00
H128   H     0.27984   0.47947   0.81982   0.00000  Uiso   1.00
H129   H     0.92603   0.32244   0.70410   0.00000  Uiso   1.00
O130   O     0.68110   0.42899   0.17101   0.00000  Uiso   1.00
O131   O     0.12227   0.40501   0.83588   0.00000  Uiso   1.00
O132   O     0.97005   0.19899   0.68406   0.00000  Uiso   1.00
N133   N     0.63051   0.35682   0.10872   0.00000  Uiso   1.00
N134   N     0.23226   0.33974   0.86991   0.00000  Uiso   1.00
N135   N     0.83638   0.19293   0.76171   0.00000  Uiso   1.00
N136   N     0.68008   0.45248   0.07579   0.00000  Uiso   1.00
N137   N     0.28183   0.43540   0.83698   0.00000  Uiso   1.00
N138   N     0.88595   0.28859   0.72878   0.00000  Uiso   1.00
C139   C     0.06207   0.78807   0.91636   0.00000  Uiso   1.00
C140   C     0.09306   0.83039   0.96132   0.00000  Uiso   1.00
C141   C     0.09149   0.81269   0.01747   0.00000  Uiso   1.00
C142   C     0.12274   0.85831   0.05189   0.00000  Uiso   1.00
C143   C     0.16600   0.91474   0.12492   0.00000  Uiso   1.00
C144   C     0.98329   0.82569   0.89551   0.00000  Uiso   1.00
C145   C     0.88943   0.80403   0.89632   0.00000  Uiso   1.00
C146   C     0.82829   0.84569   0.87534   0.00000  Uiso   1.00
C147   C     0.70115   0.89480   0.84616   0.00000  Uiso   1.00
C148   C     0.14979   0.78523   0.86570   0.00000  Uiso   1.00
C149   C     0.19592   0.72955   0.84143   0.00000  Uiso   1.00
C150   C     0.27494   0.73715   0.79534   0.00000  Uiso   1.00
C151   C     0.40632   0.72343   0.71987   0.00000  Uiso   1.00
C152   C     0.12036   0.90057   0.87763   0.00000  Uiso   1.00
C153   C     0.12472   0.89150   0.94029   0.00000  Uiso   1.00
C154   C     0.15598   0.93716   0.97463   0.00000  Uiso   1.00
C155   C     0.15446   0.91953   0.03082   0.00000  Uiso   1.00
C156   C     0.01494   0.88679   0.87448   0.00000  Uiso   1.00
C157   C     0.95393   0.92849   0.85348   0.00000  Uiso   1.00
C158   C     0.86000   0.90691   0.85427   0.00000  Uiso   1.00
C159   C     0.18145   0.84633   0.84467   0.00000  Uiso   1.00
C160   C     0.26041   0.85402   0.79860   0.00000  Uiso   1.00
C161   C     0.30666   0.79836   0.77427   0.00000  Uiso   1.00
H162   H     0.03741   0.74050   0.93273   0.00000  Uiso   1.00
H163   H     0.06697   0.76540   0.03373   0.00000  Uiso   1.00
H164   H     0.86495   0.75674   0.91260   0.00000  Uiso   1.00
H165   H     0.17140   0.68227   0.85772   0.00000  Uiso   1.00
H166   H     0.11368   0.81996   0.13645   0.00000  Uiso   1.00
H167   H     0.68772   0.80169   0.88101   0.00000  Uiso   1.00
H168   H     0.33391   0.64466   0.76528   0.00000  Uiso   1.00
H169   H     0.14501   0.94814   0.86126   0.00000  Uiso   1.00
H170   H     0.18048   0.98444   0.95834   0.00000  Uiso   1.00
H171   H     0.97846   0.97577   0.83721   0.00000  Uiso   1.00
H172   H     0.28490   0.90131   0.78233   0.00000  Uiso   1.00
H173   H     0.20580   0.99774   0.07526   0.00000  Uiso   1.00
H174   H     0.77984   0.97947   0.81982   0.00000  Uiso   1.00
H175   H     0.42603   0.82244   0.70410   0.00000  Uiso   1.00
O176   O     0.18110   0.92899   0.17101   0.00000  Uiso   1.00
O177   O     0.62227   0.90501   0.83588   0.00000  Uiso   1.00
O178   O     0.47005   0.69899   0.68406   0.00000  Uiso   1.00
N179   N     0.13051   0.85682   0.10872   0.00000  Uiso   1.00
N180   N     0.73226   0.83974   0.86991   0.00000  Uiso   1.00
N181   N     0.33638   0.69293   0.76171   0.00000  Uiso   1.00
N182   N     0.18008   0.95248   0.07579   0.00000  Uiso   1.00
N183   N     0.78183   0.93540   0.83698   0.00000  Uiso   1.00
N184   N     0.38595   0.78859   0.72878   0.00000  Uiso   1.00
C185   C     0.56207   0.71193   0.41636   0.00000  Uiso   1.00
C186   C     0.59306   0.66961   0.46132   0.00000  Uiso   1.00
C187   C     0.59149   0.68731   0.51747   0.00000  Uiso   1.00
C188   C     0.62274   0.64169   0.55189   0.00000  Uiso   1.00
C189   C     0.66600   0.58526   0.62492   0.00000  Uiso   1.00
C190   C     0.48329   0.67431   0.39551   0.00000  Uiso   1.00
C191   C     0.38943   0.69597   0.39632   0.00000  Uiso   1.00
C192   C     0.32829   0.65431   0.37534   0.00000  Uiso   1.00
C193   C     0.20115   0.60520   0.34616   0.00000  Uiso   1.00
C194   C     0.64979   0.71477   0.36570   0.00000  Uiso   1.00
C195   C     0.69592   0.77045   0.34143   0.00000  Uiso   1.00
C196   C     0.77494   0.76285   0.29534   0.00000  Uiso   1.00
C197   C     0.90632   0.77657   0.21987   0.00000  Uiso   1.00
C198   C     0.62036   0.59943   0.37763   0.00000  Uiso   1.00
C199   C     0.62472   0.60850   0.44029   0.00000  Uiso   1.00
C200   C     0.65598   0.56284   0.47463   0.00000  Uiso   1.00
C201   C     0.65446   0.58047   0.53082   0.00000  Uiso   1.00
C202   C     0.51494   0.61321   0.37448   0.00000  Uiso   1.00
C203   C     0.45393   0.57151   0.35348   0.00000  Uiso   1.00
C204   C     0.36000   0.59309   0.35427   0.00000  Uiso   1.00
C205   C     0.68145   0.65367   0.34467   0.00000  Uiso   1.00
C206   C     0.76041   0.64598   0.29860   0.00000  Uiso   1.00
C207   C     0.80666   0.70164   0.27427   0.00000  Uiso   1.00
H208   H     0.53741   0.75950   0.43273   0.00000  Uiso   1.00
H209   H     0.56697   0.73460   0.53373   0.00000  Uiso   1.00
H210   H     0.36495   0.74326   0.41260   0.00000  Uiso   1.00
H211   H     0.67140   0.81773   0.35772   0.00000  Uiso   1.00
H212   H     0.61368   0.68004   0.63645   0.00000  Uiso   1.00
H213   H     0.18772   0.69831   0.38101   0.00000  Uiso   1.00
H214   H     0.83391   0.85534   0.26528   0.00000  Uiso   1.00
H215   H     0.64501   0.55186   0.36126   0.00000  Uiso   1.00
H216   H     0.68048   0.51556   0.45834   0.00000  Uiso   1.00
H217   H     0.47846   0.52423   0.33721   0.00000  Uiso   1.00
H218   H     0.78490   0.59869   0.28233   0.00000  Uiso   1.00
H219   H     0.70580   0.50226   0.57526   0.00000  Uiso   1.00
H220   H     0.27984   0.52053   0.31982   0.00000  Uiso   1.00
H221   H     0.92603   0.67756   0.20410   0.00000  Uiso   1.00
O222   O     0.68110   0.57101   0.67101   0.00000  Uiso   1.00
O223   O     0.12227   0.59499   0.33588   0.00000  Uiso   1.00
O224   O     0.97005   0.80101   0.18406   0.00000  Uiso   1.00
N225   N     0.63051   0.64318   0.60872   0.00000  Uiso   1.00
N226   N     0.23226   0.66026   0.36991   0.00000  Uiso   1.00
N227   N     0.83638   0.80707   0.26171   0.00000  Uiso   1.00
N228   N     0.68008   0.54752   0.57579   0.00000  Uiso   1.00
N229   N     0.28183   0.56460   0.33698   0.00000  Uiso   1.00
N230   N     0.88595   0.71141   0.22878   0.00000  Uiso   1.00
C231   C     0.06207   0.21193   0.41636   0.00000  Uiso   1.00
C232   C     0.09306   0.16961   0.46132   0.00000  Uiso   1.00
C233   C     0.09149   0.18731   0.51747   0.00000  Uiso   1.00
C234   C     0.12274   0.14169   0.55189   0.00000  Uiso   1.00
C235   C     0.16600   0.08526   0.62492   0.00000  Uiso   1.00
C236   C     0.98329   0.17431   0.39551   0.00000  Uiso   1.00
C237   C     0.88943   0.19597   0.39632   0.00000  Uiso   1.00
C238   C     0.82829   0.15431   0.37534   0.00000  Uiso   1.00
C239   C     0.70115   0.10520   0.34616   0.00000  Uiso   1.00
C240   C     0.14979   0.21477   0.36570   0.00000  Uiso   1.00
C241   C     0.19592   0.27045   0.34143   0.00000  Uiso   1.00
C242   C     0.27494   0.26285   0.29534   0.00000  Uiso   1.00
C243   C     0.40632   0.27657   0.21987   0.00000  Uiso   1.00
C244   C     0.12036   0.09943   0.37763   0.00000  Uiso   1.00
C245   C     0.12472   0.10850   0.44029   0.00000  Uiso   1.00
C246   C     0.15598   0.06284   0.47463   0.00000  Uiso   1.00
C247   C     0.15446   0.08047   0.53082   0.00000  Uiso   1.00
C248   C     0.01494   0.11321   0.37448   0.00000  Uiso   1.00
C249   C     0.95393   0.07151   0.35348   0.00000  Uiso   1.00
C250   C     0.86000   0.09309   0.35427   0.00000  Uiso   1.00
C251   C     0.18145   0.15367   0.34467   0.00000  Uiso   1.00
C252   C     0.26041   0.14598   0.29860   0.00000  Uiso   1.00
C253   C     0.30666   0.20164   0.27427   0.00000  Uiso   1.00
H254   H     0.03741   0.25950   0.43273   0.00000  Uiso   1.00
H255   H     0.06697   0.23460   0.53373   0.00000  Uiso   1.00
H256   H     0.86495   0.24326   0.41260   0.00000  Uiso   1.00
H257   H     0.17140   0.31773   0.35772   0.00000  Uiso   1.00
H258   H     0.11368   0.18004   0.63645   0.00000  Uiso   1.00
H259   H     0.68772   0.19831   0.38101   0.00000  Uiso   1.00
H260   H     0.33391   0.35534   0.26528   0.00000  Uiso   1.00
H261   H     0.14501   0.05186   0.36126   0.00000  Uiso   1.00
H262   H     0.18048   0.01556   0.45834   0.00000  Uiso   1.00
H263   H     0.97846   0.02423   0.33721   0.00000  Uiso   1.00
H264   H     0.28490   0.09869   0.28233   0.00000  Uiso   1.00
H265   H     0.20580   0.00226   0.57526   0.00000  Uiso   1.00
H266   H     0.77984   0.02053   0.31982   0.00000  Uiso   1.00
H267   H     0.42603   0.17756   0.20410   0.00000  Uiso   1.00
O268   O     0.18110   0.07101   0.67101   0.00000  Uiso   1.00
O269   O     0.62227   0.09499   0.33588   0.00000  Uiso   1.00
O270   O     0.47005   0.30101   0.18406   0.00000  Uiso   1.00
N271   N     0.13051   0.14318   0.60872   0.00000  Uiso   1.00
N272   N     0.73226   0.16026   0.36991   0.00000  Uiso   1.00
N273   N     0.33638   0.30707   0.26171   0.00000  Uiso   1.00
N274   N     0.18008   0.04752   0.57579   0.00000  Uiso   1.00
N275   N     0.78183   0.06460   0.33698   0.00000  Uiso   1.00
N276   N     0.38595   0.21141   0.22878   0.00000  Uiso   1.00
C277   C     0.43793   0.71193   0.08364   0.00000  Uiso   1.00
C278   C     0.40694   0.66961   0.03868   0.00000  Uiso   1.00
C279   C     0.40851   0.68731   0.98253   0.00000  Uiso   1.00
C280   C     0.37726   0.64169   0.94811   0.00000  Uiso   1.00
C281   C     0.33400   0.58526   0.87508   0.00000  Uiso   1.00
C282   C     0.51671   0.67431   0.10449   0.00000  Uiso   1.00
C283   C     0.61057   0.69597   0.10368   0.00000  Uiso   1.00
C284   C     0.67171   0.65431   0.12466   0.00000  Uiso   1.00
C285   C     0.79885   0.60520   0.15384   0.00000  Uiso   1.00
C286   C     0.35021   0.71477   0.13430   0.00000  Uiso   1.00
C287   C     0.30408   0.77045   0.15857   0.00000  Uiso   1.00
C288   C     0.22506   0.76285   0.20466   0.00000  Uiso   1.00
C289   C     0.09368   0.77657   0.28013   0.00000  Uiso   1.00
C290   C     0.37964   0.59943   0.12237   0.00000  Uiso   1.00
C291   C     0.37528   0.60850   0.05971   0.00000  Uiso   1.00
C292   C     0.34402   0.56284   0.02537   0.00000  Uiso   1.00
C293   C     0.34554   0.58047   0.96918   0.00000  Uiso   1.00
C294   C     0.48506   0.61321   0.12552   0.00000  Uiso   1.00
C295   C     0.54607   0.57151   0.14652   0.00000  Uiso   1.00
C296   C     0.64000   0.59309   0.14573   0.00000  Uiso   1.00
C297   C     0.31855   0.65367   0.15533   0.00000  Uiso   1.00
C298   C     0.23959   0.64598   0.20140   0.00000  Uiso   1.00
C299   C     0.19334   0.70164   0.22573   0.00000  Uiso   1.00
H300   H     0.46259   0.75950   0.06727   0.00000  Uiso   1.00
H301   H     0.43303   0.73460   0.96627   0.00000  Uiso   1.00
H302   H     0.63505   0.74326   0.08740   0.00000  Uiso   1.00
H303   H     0.32860   0.81773   0.14228   0.00000  Uiso   1.00
H304   H     0.38632   0.68004   0.86355   0.00000  Uiso   1.00
H305   H     0.81228   0.69831   0.11899   0.00000  Uiso   1.00
H306   H     0.16609   0.85534   0.23472   0.00000  Uiso   1.00
H307   H     0.35499   0.55186   0.13874   0.00000  Uiso   1.00
H308   H     0.31952   0.51556   0.04166   0.00000  Uiso   1.00
H309   H     0.52154   0.52423   0.16279   0.00000  Uiso   1.00
H310   H     0.21510   0.59869   0.21767   0.00000  Uiso   1.00
H311   H     0.29420   0.50226   0.92474   0.00000  Uiso   1.00
H312   H     0.72016   0.52053   0.18018   0.00000  Uiso   1.00
H313   H     0.07397   0.67756   0.29590   0.00000  Uiso   1.00
O314   O     0.31890   0.57101   0.82899   0.00000  Uiso   1.00
O315   O     0.87773   0.59499   0.16412   0.00000  Uiso   1.00
O316   O     0.02995   0.80101   0.31594   0.00000  Uiso   1.00
N317   N     0.36949   0.64318   0.89128   0.00000  Uiso   1.00
N318   N     0.76774   0.66026   0.13009   0.00000  Uiso   1.00
N319   N     0.16362   0.80707   0.23829   0.00000  Uiso   1.00
N320   N     0.31992   0.54752   0.92421   0.00000  Uiso   1.00
N321   N     0.71817   0.56460   0.16302   0.00000  Uiso   1.00
N322   N     0.11405   0.71141   0.27122   0.00000  Uiso   1.00
C323   C     0.93793   0.21193   0.08364   0.00000  Uiso   1.00
C324   C     0.90694   0.16961   0.03868   0.00000  Uiso   1.00
C325   C     0.90851   0.18731   0.98253   0.00000  Uiso   1.00
C326   C     0.87726   0.14169   0.94811   0.00000  Uiso   1.00
C327   C     0.83400   0.08526   0.87508   0.00000  Uiso   1.00
C328   C     0.01671   0.17431   0.10449   0.00000  Uiso   1.00
C329   C     0.11057   0.19597   0.10368   0.00000  Uiso   1.00
C330   C     0.17171   0.15431   0.12466   0.00000  Uiso   1.00
C331   C     0.29885   0.10520   0.15384   0.00000  Uiso   1.00
C332   C     0.85021   0.21477   0.13430   0.00000  Uiso   1.00
C333   C     0.80408   0.27045   0.15857   0.00000  Uiso   1.00
C334   C     0.72506   0.26285   0.20466   0.00000  Uiso   1.00
C335   C     0.59368   0.27657   0.28013   0.00000  Uiso   1.00
C336   C     0.87964   0.09943   0.12237   0.00000  Uiso   1.00
C337   C     0.87528   0.10850   0.05971   0.00000  Uiso   1.00
C338   C     0.84402   0.06284   0.02537   0.00000  Uiso   1.00
C339   C     0.84554   0.08047   0.96918   0.00000  Uiso   1.00
C340   C     0.98506   0.11321   0.12552   0.00000  Uiso   1.00
C341   C     0.04607   0.07151   0.14652   0.00000  Uiso   1.00
C342   C     0.14000   0.09309   0.14573   0.00000  Uiso   1.00
C343   C     0.81855   0.15367   0.15533   0.00000  Uiso   1.00
C344   C     0.73959   0.14598   0.20140   0.00000  Uiso   1.00
C345   C     0.69334   0.20164   0.22573   0.00000  Uiso   1.00
H346   H     0.96259   0.25950   0.06727   0.00000  Uiso   1.00
H347   H     0.93303   0.23460   0.96627   0.00000  Uiso   1.00
H348   H     0.13505   0.24326   0.08740   0.00000  Uiso   1.00
H349   H     0.82860   0.31773   0.14228   0.00000  Uiso   1.00
H350   H     0.88632   0.18004   0.86355   0.00000  Uiso   1.00
H351   H     0.31228   0.19831   0.11899   0.00000  Uiso   1.00
H352   H     0.66609   0.35534   0.23472   0.00000  Uiso   1.00
H353   H     0.85499   0.05186   0.13874   0.00000  Uiso   1.00
H354   H     0.81952   0.01556   0.04166   0.00000  Uiso   1.00
H355   H     0.02154   0.02423   0.16279   0.00000  Uiso   1.00
H356   H     0.71510   0.09869   0.21767   0.00000  Uiso   1.00
H357   H     0.79420   0.00226   0.92474   0.00000  Uiso   1.00
H358   H     0.22016   0.02053   0.18018   0.00000  Uiso   1.00
H359   H     0.57397   0.17756   0.29590   0.00000  Uiso   1.00
O360   O     0.81890   0.07101   0.82899   0.00000  Uiso   1.00
O361   O     0.37773   0.09499   0.16412   0.00000  Uiso   1.00
O362   O     0.52995   0.30101   0.31594   0.00000  Uiso   1.00
N363   N     0.86949   0.14318   0.89128   0.00000  Uiso   1.00
N364   N     0.26774   0.16026   0.13009   0.00000  Uiso   1.00
N365   N     0.66362   0.30707   0.23829   0.00000  Uiso   1.00
N366   N     0.81992   0.04752   0.92421   0.00000  Uiso   1.00
N367   N     0.21817   0.06460   0.16302   0.00000  Uiso   1.00
N368   N     0.61405   0.21141   0.27122   0.00000  Uiso   1.00
