data_job_00143
_audit_creation_date              2018-12-19
_audit_creation_method            'Materials Studio'
_symmetry_space_group_name_H-M    'P1'
_symmetry_Int_Tables_number       1
_symmetry_cell_setting            triclinic
loop_
_symmetry_equiv_pos_as_xyz
  x,y,z
_cell_length_a                    28.7719
_cell_length_b                    10.6176
_cell_length_c                    38.9482
_cell_angle_alpha                 90.0000
_cell_angle_beta                  158.3160
_cell_angle_gamma                 90.0000
loop_
_atom_site_label
_atom_site_type_symbol
_atom_site_fract_x
_atom_site_fract_y
_atom_site_fract_z
_atom_site_U_iso_or_equiv
_atom_site_adp_type
_atom_site_occupancy
C1     C     0.03703   0.91372   0.71417   0.00000  Uiso   1.00
C2     C     0.17282   0.93699   0.81829   0.00000  Uiso   1.00
C3     C     0.21190   0.02096   0.87025   0.00000  Uiso   1.00
C4     C     0.34029   0.02849   0.96458   0.00000  Uiso   1.00
C5     C     0.53804   0.07589   0.12004   0.00000  Uiso   1.00
C6     C     0.03261   0.93812   0.67256   0.00000  Uiso   1.00
C7     C     0.95378   0.02302   0.60199   0.00000  Uiso   1.00
C8     C     0.96413   0.03149   0.57364   0.00000  Uiso   1.00
C9     C     0.94413   0.08057   0.50281   0.00000  Uiso   1.00
C10    C     0.01432   0.77291   0.70313   0.00000  Uiso   1.00
C11    C     0.92009   0.71890   0.65823   0.00000  Uiso   1.00
C12    C     0.91502   0.58826   0.65559   0.00000  Uiso   1.00
C13    C     0.86662   0.38084   0.63221   0.00000  Uiso   1.00
C14    C     0.19557   0.77776   0.78929   0.00000  Uiso   1.00
C15    C     0.25893   0.86314   0.85909   0.00000  Uiso   1.00
C16    C     0.38730   0.87054   0.95336   0.00000  Uiso   1.00
C17    C     0.42656   0.95451   0.00546   0.00000  Uiso   1.00
C18    C     0.11871   0.86427   0.71336   0.00000  Uiso   1.00
C19    C     0.12918   0.87260   0.68510   0.00000  Uiso   1.00
C20    C     0.05039   0.95751   0.61451   0.00000  Uiso   1.00
C21    C     0.10043   0.69906   0.74393   0.00000  Uiso   1.00
C22    C     0.09550   0.56848   0.74135   0.00000  Uiso   1.00
C23    C     0.00129   0.51428   0.69646   0.00000  Uiso   1.00
H24    H     0.96999   0.97122   0.68240   0.00000  Uiso   1.00
H25    H     0.14523   0.07810   0.83865   0.00000  Uiso   1.00
H26    H     0.88714   0.08015   0.57042   0.00000  Uiso   1.00
H27    H     0.85347   0.77607   0.62666   0.00000  Uiso   1.00
H28    H     0.37749   0.16407   0.02986   0.00000  Uiso   1.00
H29    H     0.83327   0.16836   0.46428   0.00000  Uiso   1.00
H30    H     0.76225   0.52715   0.58286   0.00000  Uiso   1.00
H31    H     0.26261   0.72027   0.82106   0.00000  Uiso   1.00
H32    H     0.45391   0.81338   0.98492   0.00000  Uiso   1.00
H33    H     0.19582   0.81544   0.71669   0.00000  Uiso   1.00
H34    H     0.16215   0.51136   0.77293   0.00000  Uiso   1.00
H35    H     0.62803   0.94922   0.14859   0.00000  Uiso   1.00
H36    H     0.08380   0.95351   0.58299   0.00000  Uiso   1.00
H37    H     0.01280   0.31230   0.70158   0.00000  Uiso   1.00
O38    O     0.62333   0.12245   0.19451   0.00000  Uiso   1.00
O39    O     0.90931   0.12807   0.45247   0.00000  Uiso   1.00
O40    O     0.81615   0.28682   0.60806   0.00000  Uiso   1.00
N41    N     0.41020   0.10070   0.03532   0.00000  Uiso   1.00
N42    N     0.90140   0.10474   0.50654   0.00000  Uiso   1.00
N43    N     0.83499   0.50526   0.61739   0.00000  Uiso   1.00
N44    N     0.54502   0.98509   0.09920   0.00000  Uiso   1.00
N45    N     0.03621   0.98912   0.57042   0.00000  Uiso   1.00
N46    N     0.96980   0.38965   0.68127   0.00000  Uiso   1.00
C47    C     0.53703   0.41372   0.71417   0.00000  Uiso   1.00
C48    C     0.67282   0.43699   0.81829   0.00000  Uiso   1.00
C49    C     0.71190   0.52096   0.87025   0.00000  Uiso   1.00
C50    C     0.84029   0.52849   0.96458   0.00000  Uiso   1.00
C51    C     0.03804   0.57589   0.12004   0.00000  Uiso   1.00
C52    C     0.53261   0.43812   0.67256   0.00000  Uiso   1.00
C53    C     0.45378   0.52302   0.60199   0.00000  Uiso   1.00
C54    C     0.46413   0.53149   0.57364   0.00000  Uiso   1.00
C55    C     0.44413   0.58057   0.50281   0.00000  Uiso   1.00
C56    C     0.51432   0.27291   0.70313   0.00000  Uiso   1.00
C57    C     0.42009   0.21890   0.65823   0.00000  Uiso   1.00
C58    C     0.41502   0.08826   0.65559   0.00000  Uiso   1.00
C59    C     0.36662   0.88084   0.63221   0.00000  Uiso   1.00
C60    C     0.69557   0.27776   0.78929   0.00000  Uiso   1.00
C61    C     0.75893   0.36314   0.85909   0.00000  Uiso   1.00
C62    C     0.88730   0.37054   0.95336   0.00000  Uiso   1.00
C63    C     0.92656   0.45451   0.00546   0.00000  Uiso   1.00
C64    C     0.61871   0.36427   0.71336   0.00000  Uiso   1.00
C65    C     0.62918   0.37260   0.68510   0.00000  Uiso   1.00
C66    C     0.55039   0.45751   0.61451   0.00000  Uiso   1.00
C67    C     0.60043   0.19906   0.74393   0.00000  Uiso   1.00
C68    C     0.59550   0.06848   0.74135   0.00000  Uiso   1.00
C69    C     0.50129   0.01428   0.69646   0.00000  Uiso   1.00
H70    H     0.46999   0.47122   0.68240   0.00000  Uiso   1.00
H71    H     0.64523   0.57810   0.83865   0.00000  Uiso   1.00
H72    H     0.38714   0.58015   0.57042   0.00000  Uiso   1.00
H73    H     0.35347   0.27607   0.62666   0.00000  Uiso   1.00
H74    H     0.87749   0.66407   0.02986   0.00000  Uiso   1.00
H75    H     0.33327   0.66836   0.46428   0.00000  Uiso   1.00
H76    H     0.26225   0.02715   0.58286   0.00000  Uiso   1.00
H77    H     0.76261   0.22027   0.82106   0.00000  Uiso   1.00
H78    H     0.95391   0.31338   0.98492   0.00000  Uiso   1.00
H79    H     0.69582   0.31544   0.71669   0.00000  Uiso   1.00
H80    H     0.66215   0.01136   0.77293   0.00000  Uiso   1.00
H81    H     0.12803   0.44922   0.14859   0.00000  Uiso   1.00
H82    H     0.58380   0.45351   0.58299   0.00000  Uiso   1.00
H83    H     0.51280   0.81230   0.70158   0.00000  Uiso   1.00
O84    O     0.12333   0.62245   0.19451   0.00000  Uiso   1.00
O85    O     0.40931   0.62807   0.45247   0.00000  Uiso   1.00
O86    O     0.31615   0.78682   0.60806   0.00000  Uiso   1.00
N87    N     0.91020   0.60070   0.03532   0.00000  Uiso   1.00
N88    N     0.40140   0.60474   0.50654   0.00000  Uiso   1.00
N89    N     0.33499   0.00526   0.61739   0.00000  Uiso   1.00
N90    N     0.04502   0.48509   0.09920   0.00000  Uiso   1.00
N91    N     0.53621   0.48912   0.57042   0.00000  Uiso   1.00
N92    N     0.46980   0.88965   0.68127   0.00000  Uiso   1.00
C93    C     0.96297   0.91372   0.78583   0.00000  Uiso   1.00
C94    C     0.82718   0.93699   0.68171   0.00000  Uiso   1.00
C95    C     0.78810   0.02096   0.62975   0.00000  Uiso   1.00
C96    C     0.65971   0.02849   0.53542   0.00000  Uiso   1.00
C97    C     0.46196   0.07589   0.37996   0.00000  Uiso   1.00
C98    C     0.96739   0.93812   0.82744   0.00000  Uiso   1.00
C99    C     0.04622   0.02302   0.89801   0.00000  Uiso   1.00
C100   C     0.03587   0.03149   0.92636   0.00000  Uiso   1.00
C101   C     0.05587   0.08057   0.99719   0.00000  Uiso   1.00
C102   C     0.98568   0.77291   0.79687   0.00000  Uiso   1.00
C103   C     0.07991   0.71890   0.84177   0.00000  Uiso   1.00
C104   C     0.08498   0.58826   0.84441   0.00000  Uiso   1.00
C105   C     0.13338   0.38084   0.86779   0.00000  Uiso   1.00
C106   C     0.80443   0.77776   0.71071   0.00000  Uiso   1.00
C107   C     0.74107   0.86314   0.64091   0.00000  Uiso   1.00
C108   C     0.61270   0.87054   0.54664   0.00000  Uiso   1.00
C109   C     0.57344   0.95451   0.49454   0.00000  Uiso   1.00
C110   C     0.88129   0.86427   0.78664   0.00000  Uiso   1.00
C111   C     0.87082   0.87260   0.81490   0.00000  Uiso   1.00
C112   C     0.94961   0.95751   0.88549   0.00000  Uiso   1.00
C113   C     0.89957   0.69906   0.75607   0.00000  Uiso   1.00
C114   C     0.90450   0.56848   0.75865   0.00000  Uiso   1.00
C115   C     0.99871   0.51428   0.80354   0.00000  Uiso   1.00
H116   H     0.03001   0.97122   0.81760   0.00000  Uiso   1.00
H117   H     0.85477   0.07810   0.66135   0.00000  Uiso   1.00
H118   H     0.11286   0.08015   0.92958   0.00000  Uiso   1.00
H119   H     0.14653   0.77607   0.87334   0.00000  Uiso   1.00
H120   H     0.62251   0.16407   0.47014   0.00000  Uiso   1.00
H121   H     0.16673   0.16836   0.03572   0.00000  Uiso   1.00
H122   H     0.23775   0.52715   0.91714   0.00000  Uiso   1.00
H123   H     0.73739   0.72027   0.67894   0.00000  Uiso   1.00
H124   H     0.54609   0.81338   0.51508   0.00000  Uiso   1.00
H125   H     0.80418   0.81544   0.78331   0.00000  Uiso   1.00
H126   H     0.83785   0.51136   0.72707   0.00000  Uiso   1.00
H127   H     0.37197   0.94922   0.35141   0.00000  Uiso   1.00
H128   H     0.91620   0.95351   0.91701   0.00000  Uiso   1.00
H129   H     0.98720   0.31230   0.79842   0.00000  Uiso   1.00
O130   O     0.37667   0.12245   0.30549   0.00000  Uiso   1.00
O131   O     0.09069   0.12807   0.04753   0.00000  Uiso   1.00
O132   O     0.18385   0.28682   0.89194   0.00000  Uiso   1.00
N133   N     0.58980   0.10070   0.46468   0.00000  Uiso   1.00
N134   N     0.09860   0.10474   0.99346   0.00000  Uiso   1.00
N135   N     0.16501   0.50526   0.88261   0.00000  Uiso   1.00
N136   N     0.45498   0.98509   0.40080   0.00000  Uiso   1.00
N137   N     0.96379   0.98912   0.92958   0.00000  Uiso   1.00
N138   N     0.03020   0.38965   0.81873   0.00000  Uiso   1.00
C139   C     0.46297   0.41372   0.78583   0.00000  Uiso   1.00
C140   C     0.32718   0.43699   0.68171   0.00000  Uiso   1.00
C141   C     0.28810   0.52096   0.62975   0.00000  Uiso   1.00
C142   C     0.15971   0.52849   0.53542   0.00000  Uiso   1.00
C143   C     0.96196   0.57589   0.37996   0.00000  Uiso   1.00
C144   C     0.46739   0.43812   0.82744   0.00000  Uiso   1.00
C145   C     0.54622   0.52302   0.89801   0.00000  Uiso   1.00
C146   C     0.53587   0.53149   0.92636   0.00000  Uiso   1.00
C147   C     0.55587   0.58057   0.99719   0.00000  Uiso   1.00
C148   C     0.48568   0.27291   0.79687   0.00000  Uiso   1.00
C149   C     0.57991   0.21890   0.84177   0.00000  Uiso   1.00
C150   C     0.58498   0.08826   0.84441   0.00000  Uiso   1.00
C151   C     0.63338   0.88084   0.86779   0.00000  Uiso   1.00
C152   C     0.30443   0.27776   0.71071   0.00000  Uiso   1.00
C153   C     0.24107   0.36314   0.64091   0.00000  Uiso   1.00
C154   C     0.11270   0.37054   0.54664   0.00000  Uiso   1.00
C155   C     0.07344   0.45451   0.49454   0.00000  Uiso   1.00
C156   C     0.38129   0.36427   0.78664   0.00000  Uiso   1.00
C157   C     0.37082   0.37260   0.81490   0.00000  Uiso   1.00
C158   C     0.44961   0.45751   0.88549   0.00000  Uiso   1.00
C159   C     0.39957   0.19906   0.75607   0.00000  Uiso   1.00
C160   C     0.40450   0.06848   0.75865   0.00000  Uiso   1.00
C161   C     0.49871   0.01428   0.80354   0.00000  Uiso   1.00
H162   H     0.53001   0.47122   0.81760   0.00000  Uiso   1.00
H163   H     0.35477   0.57810   0.66135   0.00000  Uiso   1.00
H164   H     0.61286   0.58015   0.92958   0.00000  Uiso   1.00
H165   H     0.64653   0.27607   0.87334   0.00000  Uiso   1.00
H166   H     0.12251   0.66407   0.47014   0.00000  Uiso   1.00
H167   H     0.66673   0.66836   0.03572   0.00000  Uiso   1.00
H168   H     0.73775   0.02715   0.91714   0.00000  Uiso   1.00
H169   H     0.23739   0.22027   0.67894   0.00000  Uiso   1.00
H170   H     0.04609   0.31338   0.51508   0.00000  Uiso   1.00
H171   H     0.30418   0.31544   0.78331   0.00000  Uiso   1.00
H172   H     0.33785   0.01136   0.72707   0.00000  Uiso   1.00
H173   H     0.87197   0.44922   0.35141   0.00000  Uiso   1.00
H174   H     0.41620   0.45351   0.91701   0.00000  Uiso   1.00
H175   H     0.48720   0.81230   0.79842   0.00000  Uiso   1.00
O176   O     0.87667   0.62245   0.30549   0.00000  Uiso   1.00
O177   O     0.59069   0.62807   0.04753   0.00000  Uiso   1.00
O178   O     0.68385   0.78682   0.89194   0.00000  Uiso   1.00
N179   N     0.08980   0.60070   0.46468   0.00000  Uiso   1.00
N180   N     0.59860   0.60474   0.99346   0.00000  Uiso   1.00
N181   N     0.66501   0.00526   0.88261   0.00000  Uiso   1.00
N182   N     0.95498   0.48509   0.40080   0.00000  Uiso   1.00
N183   N     0.46379   0.48912   0.92958   0.00000  Uiso   1.00
N184   N     0.53020   0.88965   0.81873   0.00000  Uiso   1.00
C185   C     0.96297   0.08628   0.28583   0.00000  Uiso   1.00
C186   C     0.82718   0.06301   0.18171   0.00000  Uiso   1.00
C187   C     0.78810   0.97904   0.12975   0.00000  Uiso   1.00
C188   C     0.65971   0.97151   0.03542   0.00000  Uiso   1.00
C189   C     0.46196   0.92411   0.87996   0.00000  Uiso   1.00
C190   C     0.96739   0.06188   0.32744   0.00000  Uiso   1.00
C191   C     0.04622   0.97698   0.39801   0.00000  Uiso   1.00
C192   C     0.03587   0.96851   0.42636   0.00000  Uiso   1.00
C193   C     0.05587   0.91943   0.49719   0.00000  Uiso   1.00
C194   C     0.98568   0.22709   0.29687   0.00000  Uiso   1.00
C195   C     0.07991   0.28110   0.34177   0.00000  Uiso   1.00
C196   C     0.08498   0.41174   0.34441   0.00000  Uiso   1.00
C197   C     0.13338   0.61916   0.36779   0.00000  Uiso   1.00
C198   C     0.80443   0.22224   0.21071   0.00000  Uiso   1.00
C199   C     0.74107   0.13686   0.14091   0.00000  Uiso   1.00
C200   C     0.61270   0.12946   0.04664   0.00000  Uiso   1.00
C201   C     0.57344   0.04549   0.99454   0.00000  Uiso   1.00
C202   C     0.88129   0.13573   0.28664   0.00000  Uiso   1.00
C203   C     0.87082   0.12740   0.31490   0.00000  Uiso   1.00
C204   C     0.94961   0.04249   0.38549   0.00000  Uiso   1.00
C205   C     0.89957   0.30094   0.25607   0.00000  Uiso   1.00
C206   C     0.90450   0.43152   0.25865   0.00000  Uiso   1.00
C207   C     0.99871   0.48572   0.30354   0.00000  Uiso   1.00
H208   H     0.03001   0.02878   0.31760   0.00000  Uiso   1.00
H209   H     0.85477   0.92190   0.16135   0.00000  Uiso   1.00
H210   H     0.11286   0.91985   0.42958   0.00000  Uiso   1.00
H211   H     0.14653   0.22393   0.37334   0.00000  Uiso   1.00
H212   H     0.62251   0.83593   0.97014   0.00000  Uiso   1.00
H213   H     0.16673   0.83164   0.53572   0.00000  Uiso   1.00
H214   H     0.23775   0.47285   0.41714   0.00000  Uiso   1.00
H215   H     0.73739   0.27973   0.17894   0.00000  Uiso   1.00
H216   H     0.54609   0.18662   0.01508   0.00000  Uiso   1.00
H217   H     0.80418   0.18456   0.28331   0.00000  Uiso   1.00
H218   H     0.83785   0.48864   0.22707   0.00000  Uiso   1.00
H219   H     0.37197   0.05078   0.85141   0.00000  Uiso   1.00
H220   H     0.91620   0.04649   0.41701   0.00000  Uiso   1.00
H221   H     0.98720   0.68770   0.29842   0.00000  Uiso   1.00
O222   O     0.37667   0.87755   0.80549   0.00000  Uiso   1.00
O223   O     0.09069   0.87193   0.54753   0.00000  Uiso   1.00
O224   O     0.18385   0.71318   0.39194   0.00000  Uiso   1.00
N225   N     0.58980   0.89930   0.96468   0.00000  Uiso   1.00
N226   N     0.09860   0.89526   0.49346   0.00000  Uiso   1.00
N227   N     0.16501   0.49474   0.38261   0.00000  Uiso   1.00
N228   N     0.45498   0.01491   0.90080   0.00000  Uiso   1.00
N229   N     0.96379   0.01088   0.42958   0.00000  Uiso   1.00
N230   N     0.03020   0.61035   0.31873   0.00000  Uiso   1.00
C231   C     0.46297   0.58628   0.28583   0.00000  Uiso   1.00
C232   C     0.32718   0.56301   0.18171   0.00000  Uiso   1.00
C233   C     0.28810   0.47904   0.12975   0.00000  Uiso   1.00
C234   C     0.15971   0.47151   0.03542   0.00000  Uiso   1.00
C235   C     0.96196   0.42411   0.87996   0.00000  Uiso   1.00
C236   C     0.46739   0.56188   0.32744   0.00000  Uiso   1.00
C237   C     0.54622   0.47698   0.39801   0.00000  Uiso   1.00
C238   C     0.53587   0.46851   0.42636   0.00000  Uiso   1.00
C239   C     0.55587   0.41943   0.49719   0.00000  Uiso   1.00
C240   C     0.48568   0.72709   0.29687   0.00000  Uiso   1.00
C241   C     0.57991   0.78110   0.34177   0.00000  Uiso   1.00
C242   C     0.58498   0.91174   0.34441   0.00000  Uiso   1.00
C243   C     0.63338   0.11916   0.36779   0.00000  Uiso   1.00
C244   C     0.30443   0.72224   0.21071   0.00000  Uiso   1.00
C245   C     0.24107   0.63686   0.14091   0.00000  Uiso   1.00
C246   C     0.11270   0.62946   0.04664   0.00000  Uiso   1.00
C247   C     0.07344   0.54549   0.99454   0.00000  Uiso   1.00
C248   C     0.38129   0.63573   0.28664   0.00000  Uiso   1.00
C249   C     0.37082   0.62740   0.31490   0.00000  Uiso   1.00
C250   C     0.44961   0.54249   0.38549   0.00000  Uiso   1.00
C251   C     0.39957   0.80094   0.25607   0.00000  Uiso   1.00
C252   C     0.40450   0.93152   0.25865   0.00000  Uiso   1.00
C253   C     0.49871   0.98572   0.30354   0.00000  Uiso   1.00
H254   H     0.53001   0.52878   0.31760   0.00000  Uiso   1.00
H255   H     0.35477   0.42190   0.16135   0.00000  Uiso   1.00
H256   H     0.61286   0.41985   0.42958   0.00000  Uiso   1.00
H257   H     0.64653   0.72393   0.37334   0.00000  Uiso   1.00
H258   H     0.12251   0.33593   0.97014   0.00000  Uiso   1.00
H259   H     0.66673   0.33164   0.53572   0.00000  Uiso   1.00
H260   H     0.73775   0.97285   0.41714   0.00000  Uiso   1.00
H261   H     0.23739   0.77973   0.17894   0.00000  Uiso   1.00
H262   H     0.04609   0.68662   0.01508   0.00000  Uiso   1.00
H263   H     0.30418   0.68456   0.28331   0.00000  Uiso   1.00
H264   H     0.33785   0.98864   0.22707   0.00000  Uiso   1.00
H265   H     0.87197   0.55078   0.85141   0.00000  Uiso   1.00
H266   H     0.41620   0.54649   0.41701   0.00000  Uiso   1.00
H267   H     0.48720   0.18770   0.29842   0.00000  Uiso   1.00
O268   O     0.87667   0.37755   0.80549   0.00000  Uiso   1.00
O269   O     0.59069   0.37193   0.54753   0.00000  Uiso   1.00
O270   O     0.68385   0.21318   0.39194   0.00000  Uiso   1.00
N271   N     0.08980   0.39930   0.96468   0.00000  Uiso   1.00
N272   N     0.59860   0.39526   0.49346   0.00000  Uiso   1.00
N273   N     0.66501   0.99474   0.38261   0.00000  Uiso   1.00
N274   N     0.95498   0.51491   0.90080   0.00000  Uiso   1.00
N275   N     0.46379   0.51088   0.42958   0.00000  Uiso   1.00
N276   N     0.53020   0.11035   0.31873   0.00000  Uiso   1.00
C277   C     0.03703   0.08628   0.21417   0.00000  Uiso   1.00
C278   C     0.17282   0.06301   0.31829   0.00000  Uiso   1.00
C279   C     0.21190   0.97904   0.37025   0.00000  Uiso   1.00
C280   C     0.34029   0.97151   0.46458   0.00000  Uiso   1.00
C281   C     0.53804   0.92411   0.62004   0.00000  Uiso   1.00
C282   C     0.03261   0.06188   0.17256   0.00000  Uiso   1.00
C283   C     0.95378   0.97698   0.10199   0.00000  Uiso   1.00
C284   C     0.96413   0.96851   0.07364   0.00000  Uiso   1.00
C285   C     0.94413   0.91943   0.00281   0.00000  Uiso   1.00
C286   C     0.01432   0.22709   0.20313   0.00000  Uiso   1.00
C287   C     0.92009   0.28110   0.15823   0.00000  Uiso   1.00
C288   C     0.91502   0.41174   0.15559   0.00000  Uiso   1.00
C289   C     0.86662   0.61916   0.13221   0.00000  Uiso   1.00
C290   C     0.19557   0.22224   0.28929   0.00000  Uiso   1.00
C291   C     0.25893   0.13686   0.35909   0.00000  Uiso   1.00
C292   C     0.38730   0.12946   0.45336   0.00000  Uiso   1.00
C293   C     0.42656   0.04549   0.50546   0.00000  Uiso   1.00
C294   C     0.11871   0.13573   0.21336   0.00000  Uiso   1.00
C295   C     0.12918   0.12740   0.18510   0.00000  Uiso   1.00
C296   C     0.05039   0.04249   0.11451   0.00000  Uiso   1.00
C297   C     0.10043   0.30094   0.24393   0.00000  Uiso   1.00
C298   C     0.09550   0.43152   0.24135   0.00000  Uiso   1.00
C299   C     0.00129   0.48572   0.19646   0.00000  Uiso   1.00
H300   H     0.96999   0.02878   0.18240   0.00000  Uiso   1.00
H301   H     0.14523   0.92190   0.33865   0.00000  Uiso   1.00
H302   H     0.88714   0.91985   0.07042   0.00000  Uiso   1.00
H303   H     0.85347   0.22393   0.12666   0.00000  Uiso   1.00
H304   H     0.37749   0.83593   0.52986   0.00000  Uiso   1.00
H305   H     0.83327   0.83164   0.96428   0.00000  Uiso   1.00
H306   H     0.76225   0.47285   0.08286   0.00000  Uiso   1.00
H307   H     0.26261   0.27973   0.32106   0.00000  Uiso   1.00
H308   H     0.45391   0.18662   0.48492   0.00000  Uiso   1.00
H309   H     0.19582   0.18456   0.21669   0.00000  Uiso   1.00
H310   H     0.16215   0.48864   0.27293   0.00000  Uiso   1.00
H311   H     0.62803   0.05078   0.64859   0.00000  Uiso   1.00
H312   H     0.08380   0.04649   0.08299   0.00000  Uiso   1.00
H313   H     0.01280   0.68770   0.20158   0.00000  Uiso   1.00
O314   O     0.62333   0.87755   0.69451   0.00000  Uiso   1.00
O315   O     0.90931   0.87193   0.95247   0.00000  Uiso   1.00
O316   O     0.81615   0.71318   0.10806   0.00000  Uiso   1.00
N317   N     0.41020   0.89930   0.53532   0.00000  Uiso   1.00
N318   N     0.90140   0.89526   0.00654   0.00000  Uiso   1.00
N319   N     0.83499   0.49474   0.11739   0.00000  Uiso   1.00
N320   N     0.54502   0.01491   0.59920   0.00000  Uiso   1.00
N321   N     0.03621   0.01088   0.07042   0.00000  Uiso   1.00
N322   N     0.96980   0.61035   0.18127   0.00000  Uiso   1.00
C323   C     0.53703   0.58628   0.21417   0.00000  Uiso   1.00
C324   C     0.67282   0.56301   0.31829   0.00000  Uiso   1.00
C325   C     0.71190   0.47904   0.37025   0.00000  Uiso   1.00
C326   C     0.84029   0.47151   0.46458   0.00000  Uiso   1.00
C327   C     0.03804   0.42411   0.62004   0.00000  Uiso   1.00
C328   C     0.53261   0.56188   0.17256   0.00000  Uiso   1.00
C329   C     0.45378   0.47698   0.10199   0.00000  Uiso   1.00
C330   C     0.46413   0.46851   0.07364   0.00000  Uiso   1.00
C331   C     0.44413   0.41943   0.00281   0.00000  Uiso   1.00
C332   C     0.51432   0.72709   0.20313   0.00000  Uiso   1.00
C333   C     0.42009   0.78110   0.15823   0.00000  Uiso   1.00
C334   C     0.41502   0.91174   0.15559   0.00000  Uiso   1.00
C335   C     0.36662   0.11916   0.13221   0.00000  Uiso   1.00
C336   C     0.69557   0.72224   0.28929   0.00000  Uiso   1.00
C337   C     0.75893   0.63686   0.35909   0.00000  Uiso   1.00
C338   C     0.88730   0.62946   0.45336   0.00000  Uiso   1.00
C339   C     0.92656   0.54549   0.50546   0.00000  Uiso   1.00
C340   C     0.61871   0.63573   0.21336   0.00000  Uiso   1.00
C341   C     0.62918   0.62740   0.18510   0.00000  Uiso   1.00
C342   C     0.55039   0.54249   0.11451   0.00000  Uiso   1.00
C343   C     0.60043   0.80094   0.24393   0.00000  Uiso   1.00
C344   C     0.59550   0.93152   0.24135   0.00000  Uiso   1.00
C345   C     0.50129   0.98572   0.19646   0.00000  Uiso   1.00
H346   H     0.46999   0.52878   0.18240   0.00000  Uiso   1.00
H347   H     0.64523   0.42190   0.33865   0.00000  Uiso   1.00
H348   H     0.38714   0.41985   0.07042   0.00000  Uiso   1.00
H349   H     0.35347   0.72393   0.12666   0.00000  Uiso   1.00
H350   H     0.87749   0.33593   0.52986   0.00000  Uiso   1.00
H351   H     0.33327   0.33164   0.96428   0.00000  Uiso   1.00
H352   H     0.26225   0.97285   0.08286   0.00000  Uiso   1.00
H353   H     0.76261   0.77973   0.32106   0.00000  Uiso   1.00
H354   H     0.95391   0.68662   0.48492   0.00000  Uiso   1.00
H355   H     0.69582   0.68456   0.21669   0.00000  Uiso   1.00
H356   H     0.66215   0.98864   0.27293   0.00000  Uiso   1.00
H357   H     0.12803   0.55078   0.64859   0.00000  Uiso   1.00
H358   H     0.58380   0.54649   0.08299   0.00000  Uiso   1.00
H359   H     0.51280   0.18770   0.20158   0.00000  Uiso   1.00
O360   O     0.12333   0.37755   0.69451   0.00000  Uiso   1.00
O361   O     0.40931   0.37193   0.95247   0.00000  Uiso   1.00
O362   O     0.31615   0.21318   0.10806   0.00000  Uiso   1.00
N363   N     0.91020   0.39930   0.53532   0.00000  Uiso   1.00
N364   N     0.40140   0.39526   0.00654   0.00000  Uiso   1.00
N365   N     0.33499   0.99474   0.11739   0.00000  Uiso   1.00
N366   N     0.04502   0.51491   0.59920   0.00000  Uiso   1.00
N367   N     0.53621   0.51088   0.07042   0.00000  Uiso   1.00
N368   N     0.46980   0.11035   0.18127   0.00000  Uiso   1.00
