data_job_02942
_audit_creation_date              2018-12-19
_audit_creation_method            'Materials Studio'
_symmetry_space_group_name_H-M    'P1'
_symmetry_Int_Tables_number       1
_symmetry_cell_setting            triclinic
loop_
_symmetry_equiv_pos_as_xyz
  x,y,z
_cell_length_a                    12.3620
_cell_length_b                    20.5357
_cell_length_c                    24.9625
_cell_angle_alpha                 90.0000
_cell_angle_beta                  90.0000
_cell_angle_gamma                 90.0000
loop_
_atom_site_label
_atom_site_type_symbol
_atom_site_fract_x
_atom_site_fract_y
_atom_site_fract_z
_atom_site_U_iso_or_equiv
_atom_site_adp_type
_atom_site_occupancy
C1     C     0.16074   0.88889   0.41755   0.00000  Uiso   1.00
C2     C     0.17475   0.96220   0.42439   0.00000  Uiso   1.00
C3     C     0.09546   0.00886   0.41572   0.00000  Uiso   1.00
C4     C     0.12433   0.07338   0.42418   0.00000  Uiso   1.00
C5     C     0.13021   0.18460   0.43226   0.00000  Uiso   1.00
C6     C     0.24769   0.86756   0.37793   0.00000  Uiso   1.00
C7     C     0.22974   0.83465   0.33019   0.00000  Uiso   1.00
C8     C     0.32002   0.81950   0.29954   0.00000  Uiso   1.00
C9     C     0.43915   0.78374   0.23551   0.00000  Uiso   1.00
C10    C     0.19154   0.85857   0.47119   0.00000  Uiso   1.00
C11    C     0.12639   0.81809   0.50186   0.00000  Uiso   1.00
C12    C     0.16940   0.79536   0.54972   0.00000  Uiso   1.00
C13    C     0.20135   0.74566   0.63048   0.00000  Uiso   1.00
C14    C     0.35300   0.92050   0.44800   0.00000  Uiso   1.00
C15    C     0.27918   0.97936   0.44093   0.00000  Uiso   1.00
C16    C     0.30817   0.04383   0.44941   0.00000  Uiso   1.00
C17    C     0.22894   0.09058   0.44075   0.00000  Uiso   1.00
C18    C     0.35212   0.88472   0.39447   0.00000  Uiso   1.00
C19    C     0.44245   0.86962   0.36388   0.00000  Uiso   1.00
C20    C     0.42463   0.83669   0.31611   0.00000  Uiso   1.00
C21    C     0.29597   0.87574   0.48773   0.00000  Uiso   1.00
C22    C     0.33910   0.85306   0.53555   0.00000  Uiso   1.00
C23    C     0.27402   0.81256   0.56628   0.00000  Uiso   1.00
H24    H     0.07945   0.87552   0.40467   0.00000  Uiso   1.00
H25    H     0.01466   0.99556   0.40291   0.00000  Uiso   1.00
H26    H     0.14892   0.82136   0.31741   0.00000  Uiso   1.00
H27    H     0.04558   0.80481   0.48905   0.00000  Uiso   1.00
H28    H     0.98890   0.13621   0.40824   0.00000  Uiso   1.00
H29    H     0.27198   0.76889   0.22795   0.00000  Uiso   1.00
H30    H     0.05408   0.73399   0.58988   0.00000  Uiso   1.00
H31    H     0.43431   0.93386   0.46087   0.00000  Uiso   1.00
H32    H     0.38899   0.05710   0.46220   0.00000  Uiso   1.00
H33    H     0.52325   0.88291   0.37669   0.00000  Uiso   1.00
H34    H     0.41991   0.86636   0.54833   0.00000  Uiso   1.00
H35    H     0.29272   0.18616   0.45636   0.00000  Uiso   1.00
H36    H     0.57581   0.81884   0.27607   0.00000  Uiso   1.00
H37    H     0.35790   0.78395   0.63800   0.00000  Uiso   1.00
O38    O     0.10461   0.24121   0.43214   0.00000  Uiso   1.00
O39    O     0.47600   0.75929   0.19562   0.00000  Uiso   1.00
O40    O     0.19012   0.71351   0.67046   0.00000  Uiso   1.00
N41    N     0.06661   0.13105   0.41939   0.00000  Uiso   1.00
N42    N     0.33128   0.78764   0.25083   0.00000  Uiso   1.00
N43    N     0.12757   0.75500   0.58920   0.00000  Uiso   1.00
N44    N     0.23010   0.15793   0.44529   0.00000  Uiso   1.00
N45    N     0.49477   0.81452   0.27672   0.00000  Uiso   1.00
N46    N     0.29106   0.78188   0.61509   0.00000  Uiso   1.00
C47    C     0.33926   0.11111   0.91755   0.00000  Uiso   1.00
C48    C     0.32525   0.03780   0.92439   0.00000  Uiso   1.00
C49    C     0.40454   0.99114   0.91572   0.00000  Uiso   1.00
C50    C     0.37567   0.92662   0.92418   0.00000  Uiso   1.00
C51    C     0.36979   0.81540   0.93226   0.00000  Uiso   1.00
C52    C     0.25231   0.13244   0.87793   0.00000  Uiso   1.00
C53    C     0.27026   0.16535   0.83019   0.00000  Uiso   1.00
C54    C     0.17998   0.18050   0.79954   0.00000  Uiso   1.00
C55    C     0.06085   0.21626   0.73551   0.00000  Uiso   1.00
C56    C     0.30846   0.14143   0.97119   0.00000  Uiso   1.00
C57    C     0.37361   0.18191   0.00186   0.00000  Uiso   1.00
C58    C     0.33060   0.20464   0.04972   0.00000  Uiso   1.00
C59    C     0.29865   0.25434   0.13048   0.00000  Uiso   1.00
C60    C     0.14700   0.07950   0.94800   0.00000  Uiso   1.00
C61    C     0.22082   0.02064   0.94093   0.00000  Uiso   1.00
C62    C     0.19183   0.95617   0.94941   0.00000  Uiso   1.00
C63    C     0.27106   0.90942   0.94075   0.00000  Uiso   1.00
C64    C     0.14788   0.11528   0.89447   0.00000  Uiso   1.00
C65    C     0.05755   0.13038   0.86388   0.00000  Uiso   1.00
C66    C     0.07537   0.16331   0.81611   0.00000  Uiso   1.00
C67    C     0.20403   0.12426   0.98773   0.00000  Uiso   1.00
C68    C     0.16090   0.14694   0.03555   0.00000  Uiso   1.00
C69    C     0.22598   0.18744   0.06628   0.00000  Uiso   1.00
H70    H     0.42055   0.12448   0.90467   0.00000  Uiso   1.00
H71    H     0.48534   0.00444   0.90291   0.00000  Uiso   1.00
H72    H     0.35108   0.17864   0.81741   0.00000  Uiso   1.00
H73    H     0.45442   0.19519   0.98905   0.00000  Uiso   1.00
H74    H     0.51110   0.86379   0.90824   0.00000  Uiso   1.00
H75    H     0.22802   0.23111   0.72795   0.00000  Uiso   1.00
H76    H     0.44592   0.26601   0.08988   0.00000  Uiso   1.00
H77    H     0.06569   0.06614   0.96087   0.00000  Uiso   1.00
H78    H     0.11101   0.94290   0.96220   0.00000  Uiso   1.00
H79    H     0.97675   0.11709   0.87669   0.00000  Uiso   1.00
H80    H     0.08009   0.13364   0.04833   0.00000  Uiso   1.00
H81    H     0.20728   0.81384   0.95636   0.00000  Uiso   1.00
H82    H     0.92419   0.18116   0.77607   0.00000  Uiso   1.00
H83    H     0.14210   0.21605   0.13800   0.00000  Uiso   1.00
O84    O     0.39539   0.75879   0.93214   0.00000  Uiso   1.00
O85    O     0.02400   0.24071   0.69562   0.00000  Uiso   1.00
O86    O     0.30988   0.28649   0.17046   0.00000  Uiso   1.00
N87    N     0.43339   0.86895   0.91939   0.00000  Uiso   1.00
N88    N     0.16872   0.21236   0.75083   0.00000  Uiso   1.00
N89    N     0.37243   0.24500   0.08920   0.00000  Uiso   1.00
N90    N     0.26990   0.84207   0.94529   0.00000  Uiso   1.00
N91    N     0.00523   0.18548   0.77672   0.00000  Uiso   1.00
N92    N     0.20894   0.21812   0.11509   0.00000  Uiso   1.00
C93    C     0.83926   0.38889   0.08245   0.00000  Uiso   1.00
C94    C     0.82525   0.46220   0.07561   0.00000  Uiso   1.00
C95    C     0.90454   0.50886   0.08428   0.00000  Uiso   1.00
C96    C     0.87567   0.57338   0.07582   0.00000  Uiso   1.00
C97    C     0.86979   0.68460   0.06774   0.00000  Uiso   1.00
C98    C     0.75231   0.36756   0.12207   0.00000  Uiso   1.00
C99    C     0.77026   0.33465   0.16981   0.00000  Uiso   1.00
C100   C     0.67998   0.31950   0.20046   0.00000  Uiso   1.00
C101   C     0.56085   0.28374   0.26449   0.00000  Uiso   1.00
C102   C     0.80846   0.35857   0.02881   0.00000  Uiso   1.00
C103   C     0.87361   0.31809   0.99814   0.00000  Uiso   1.00
C104   C     0.83060   0.29536   0.95028   0.00000  Uiso   1.00
C105   C     0.79865   0.24566   0.86952   0.00000  Uiso   1.00
C106   C     0.64700   0.42050   0.05200   0.00000  Uiso   1.00
C107   C     0.72082   0.47936   0.05907   0.00000  Uiso   1.00
C108   C     0.69183   0.54383   0.05059   0.00000  Uiso   1.00
C109   C     0.77106   0.59058   0.05925   0.00000  Uiso   1.00
C110   C     0.64788   0.38472   0.10553   0.00000  Uiso   1.00
C111   C     0.55755   0.36962   0.13612   0.00000  Uiso   1.00
C112   C     0.57537   0.33669   0.18389   0.00000  Uiso   1.00
C113   C     0.70403   0.37574   0.01227   0.00000  Uiso   1.00
C114   C     0.66090   0.35306   0.96445   0.00000  Uiso   1.00
C115   C     0.72598   0.31256   0.93372   0.00000  Uiso   1.00
H116   H     0.92055   0.37552   0.09533   0.00000  Uiso   1.00
H117   H     0.98534   0.49556   0.09709   0.00000  Uiso   1.00
H118   H     0.85108   0.32136   0.18259   0.00000  Uiso   1.00
H119   H     0.95442   0.30481   0.01095   0.00000  Uiso   1.00
H120   H     0.01110   0.63621   0.09176   0.00000  Uiso   1.00
H121   H     0.72802   0.26889   0.27205   0.00000  Uiso   1.00
H122   H     0.94592   0.23399   0.91012   0.00000  Uiso   1.00
H123   H     0.56569   0.43386   0.03913   0.00000  Uiso   1.00
H124   H     0.61101   0.55710   0.03780   0.00000  Uiso   1.00
H125   H     0.47675   0.38291   0.12331   0.00000  Uiso   1.00
H126   H     0.58009   0.36636   0.95167   0.00000  Uiso   1.00
H127   H     0.70728   0.68616   0.04364   0.00000  Uiso   1.00
H128   H     0.42419   0.31884   0.22393   0.00000  Uiso   1.00
H129   H     0.64210   0.28395   0.86200   0.00000  Uiso   1.00
O130   O     0.89539   0.74121   0.06786   0.00000  Uiso   1.00
O131   O     0.52400   0.25929   0.30438   0.00000  Uiso   1.00
O132   O     0.80988   0.21351   0.82954   0.00000  Uiso   1.00
N133   N     0.93339   0.63105   0.08061   0.00000  Uiso   1.00
N134   N     0.66872   0.28764   0.24917   0.00000  Uiso   1.00
N135   N     0.87243   0.25500   0.91080   0.00000  Uiso   1.00
N136   N     0.76990   0.65793   0.05471   0.00000  Uiso   1.00
N137   N     0.50523   0.31452   0.22328   0.00000  Uiso   1.00
N138   N     0.70894   0.28188   0.88491   0.00000  Uiso   1.00
C139   C     0.66074   0.61111   0.58245   0.00000  Uiso   1.00
C140   C     0.67475   0.53780   0.57561   0.00000  Uiso   1.00
C141   C     0.59546   0.49114   0.58428   0.00000  Uiso   1.00
C142   C     0.62433   0.42662   0.57582   0.00000  Uiso   1.00
C143   C     0.63021   0.31540   0.56774   0.00000  Uiso   1.00
C144   C     0.74769   0.63244   0.62207   0.00000  Uiso   1.00
C145   C     0.72974   0.66535   0.66981   0.00000  Uiso   1.00
C146   C     0.82002   0.68050   0.70046   0.00000  Uiso   1.00
C147   C     0.93915   0.71626   0.76449   0.00000  Uiso   1.00
C148   C     0.69154   0.64143   0.52881   0.00000  Uiso   1.00
C149   C     0.62639   0.68191   0.49814   0.00000  Uiso   1.00
C150   C     0.66940   0.70464   0.45028   0.00000  Uiso   1.00
C151   C     0.70135   0.75434   0.36952   0.00000  Uiso   1.00
C152   C     0.85300   0.57950   0.55200   0.00000  Uiso   1.00
C153   C     0.77918   0.52064   0.55907   0.00000  Uiso   1.00
C154   C     0.80817   0.45617   0.55059   0.00000  Uiso   1.00
C155   C     0.72894   0.40942   0.55925   0.00000  Uiso   1.00
C156   C     0.85212   0.61528   0.60553   0.00000  Uiso   1.00
C157   C     0.94245   0.63038   0.63612   0.00000  Uiso   1.00
C158   C     0.92463   0.66331   0.68389   0.00000  Uiso   1.00
C159   C     0.79597   0.62426   0.51227   0.00000  Uiso   1.00
C160   C     0.83910   0.64694   0.46445   0.00000  Uiso   1.00
C161   C     0.77402   0.68744   0.43372   0.00000  Uiso   1.00
H162   H     0.57945   0.62448   0.59533   0.00000  Uiso   1.00
H163   H     0.51466   0.50444   0.59709   0.00000  Uiso   1.00
H164   H     0.64892   0.67864   0.68259   0.00000  Uiso   1.00
H165   H     0.54558   0.69519   0.51095   0.00000  Uiso   1.00
H166   H     0.48890   0.36379   0.59176   0.00000  Uiso   1.00
H167   H     0.77198   0.73111   0.77205   0.00000  Uiso   1.00
H168   H     0.55408   0.76601   0.41012   0.00000  Uiso   1.00
H169   H     0.93431   0.56614   0.53913   0.00000  Uiso   1.00
H170   H     0.88899   0.44290   0.53780   0.00000  Uiso   1.00
H171   H     0.02325   0.61709   0.62331   0.00000  Uiso   1.00
H172   H     0.91991   0.63364   0.45167   0.00000  Uiso   1.00
H173   H     0.79272   0.31384   0.54364   0.00000  Uiso   1.00
H174   H     0.07581   0.68116   0.72393   0.00000  Uiso   1.00
H175   H     0.85790   0.71605   0.36200   0.00000  Uiso   1.00
O176   O     0.60461   0.25879   0.56786   0.00000  Uiso   1.00
O177   O     0.97600   0.74071   0.80438   0.00000  Uiso   1.00
O178   O     0.69012   0.78649   0.32954   0.00000  Uiso   1.00
N179   N     0.56661   0.36895   0.58061   0.00000  Uiso   1.00
N180   N     0.83128   0.71236   0.74917   0.00000  Uiso   1.00
N181   N     0.62757   0.74500   0.41080   0.00000  Uiso   1.00
N182   N     0.73010   0.34207   0.55471   0.00000  Uiso   1.00
N183   N     0.99477   0.68548   0.72328   0.00000  Uiso   1.00
N184   N     0.79106   0.71812   0.38491   0.00000  Uiso   1.00
C185   C     0.83926   0.11111   0.58245   0.00000  Uiso   1.00
C186   C     0.82525   0.03780   0.57561   0.00000  Uiso   1.00
C187   C     0.90454   0.99114   0.58428   0.00000  Uiso   1.00
C188   C     0.87567   0.92662   0.57582   0.00000  Uiso   1.00
C189   C     0.86979   0.81540   0.56774   0.00000  Uiso   1.00
C190   C     0.75231   0.13244   0.62207   0.00000  Uiso   1.00
C191   C     0.77026   0.16535   0.66981   0.00000  Uiso   1.00
C192   C     0.67998   0.18050   0.70046   0.00000  Uiso   1.00
C193   C     0.56085   0.21626   0.76449   0.00000  Uiso   1.00
C194   C     0.80846   0.14143   0.52881   0.00000  Uiso   1.00
C195   C     0.87361   0.18191   0.49814   0.00000  Uiso   1.00
C196   C     0.83060   0.20464   0.45028   0.00000  Uiso   1.00
C197   C     0.79865   0.25434   0.36952   0.00000  Uiso   1.00
C198   C     0.64700   0.07950   0.55200   0.00000  Uiso   1.00
C199   C     0.72082   0.02064   0.55907   0.00000  Uiso   1.00
C200   C     0.69183   0.95617   0.55059   0.00000  Uiso   1.00
C201   C     0.77106   0.90942   0.55925   0.00000  Uiso   1.00
C202   C     0.64788   0.11528   0.60553   0.00000  Uiso   1.00
C203   C     0.55755   0.13038   0.63612   0.00000  Uiso   1.00
C204   C     0.57537   0.16331   0.68389   0.00000  Uiso   1.00
C205   C     0.70403   0.12426   0.51227   0.00000  Uiso   1.00
C206   C     0.66090   0.14694   0.46445   0.00000  Uiso   1.00
C207   C     0.72598   0.18744   0.43372   0.00000  Uiso   1.00
H208   H     0.92055   0.12448   0.59533   0.00000  Uiso   1.00
H209   H     0.98534   0.00444   0.59709   0.00000  Uiso   1.00
H210   H     0.85108   0.17864   0.68259   0.00000  Uiso   1.00
H211   H     0.95442   0.19519   0.51095   0.00000  Uiso   1.00
H212   H     0.01110   0.86379   0.59176   0.00000  Uiso   1.00
H213   H     0.72802   0.23111   0.77205   0.00000  Uiso   1.00
H214   H     0.94592   0.26601   0.41012   0.00000  Uiso   1.00
H215   H     0.56569   0.06614   0.53913   0.00000  Uiso   1.00
H216   H     0.61101   0.94290   0.53780   0.00000  Uiso   1.00
H217   H     0.47675   0.11709   0.62331   0.00000  Uiso   1.00
H218   H     0.58009   0.13364   0.45167   0.00000  Uiso   1.00
H219   H     0.70728   0.81384   0.54364   0.00000  Uiso   1.00
H220   H     0.42419   0.18116   0.72393   0.00000  Uiso   1.00
H221   H     0.64210   0.21605   0.36200   0.00000  Uiso   1.00
O222   O     0.89539   0.75879   0.56786   0.00000  Uiso   1.00
O223   O     0.52400   0.24071   0.80438   0.00000  Uiso   1.00
O224   O     0.80988   0.28649   0.32954   0.00000  Uiso   1.00
N225   N     0.93339   0.86895   0.58061   0.00000  Uiso   1.00
N226   N     0.66872   0.21236   0.74917   0.00000  Uiso   1.00
N227   N     0.87243   0.24500   0.41080   0.00000  Uiso   1.00
N228   N     0.76990   0.84207   0.55471   0.00000  Uiso   1.00
N229   N     0.50523   0.18548   0.72328   0.00000  Uiso   1.00
N230   N     0.70894   0.21812   0.38491   0.00000  Uiso   1.00
C231   C     0.66074   0.88889   0.08245   0.00000  Uiso   1.00
C232   C     0.67475   0.96220   0.07561   0.00000  Uiso   1.00
C233   C     0.59546   0.00886   0.08428   0.00000  Uiso   1.00
C234   C     0.62433   0.07338   0.07582   0.00000  Uiso   1.00
C235   C     0.63021   0.18460   0.06774   0.00000  Uiso   1.00
C236   C     0.74769   0.86756   0.12207   0.00000  Uiso   1.00
C237   C     0.72974   0.83465   0.16981   0.00000  Uiso   1.00
C238   C     0.82002   0.81950   0.20046   0.00000  Uiso   1.00
C239   C     0.93915   0.78374   0.26449   0.00000  Uiso   1.00
C240   C     0.69154   0.85857   0.02881   0.00000  Uiso   1.00
C241   C     0.62639   0.81809   0.99814   0.00000  Uiso   1.00
C242   C     0.66940   0.79536   0.95028   0.00000  Uiso   1.00
C243   C     0.70135   0.74566   0.86952   0.00000  Uiso   1.00
C244   C     0.85300   0.92050   0.05200   0.00000  Uiso   1.00
C245   C     0.77918   0.97936   0.05907   0.00000  Uiso   1.00
C246   C     0.80817   0.04383   0.05059   0.00000  Uiso   1.00
C247   C     0.72894   0.09058   0.05925   0.00000  Uiso   1.00
C248   C     0.85212   0.88472   0.10553   0.00000  Uiso   1.00
C249   C     0.94245   0.86962   0.13612   0.00000  Uiso   1.00
C250   C     0.92463   0.83669   0.18389   0.00000  Uiso   1.00
C251   C     0.79597   0.87574   0.01227   0.00000  Uiso   1.00
C252   C     0.83910   0.85306   0.96445   0.00000  Uiso   1.00
C253   C     0.77402   0.81256   0.93372   0.00000  Uiso   1.00
H254   H     0.57945   0.87552   0.09533   0.00000  Uiso   1.00
H255   H     0.51466   0.99556   0.09709   0.00000  Uiso   1.00
H256   H     0.64892   0.82136   0.18259   0.00000  Uiso   1.00
H257   H     0.54558   0.80481   0.01095   0.00000  Uiso   1.00
H258   H     0.48890   0.13621   0.09176   0.00000  Uiso   1.00
H259   H     0.77198   0.76889   0.27205   0.00000  Uiso   1.00
H260   H     0.55408   0.73399   0.91012   0.00000  Uiso   1.00
H261   H     0.93431   0.93386   0.03913   0.00000  Uiso   1.00
H262   H     0.88899   0.05710   0.03780   0.00000  Uiso   1.00
H263   H     0.02325   0.88291   0.12331   0.00000  Uiso   1.00
H264   H     0.91991   0.86636   0.95167   0.00000  Uiso   1.00
H265   H     0.79272   0.18616   0.04364   0.00000  Uiso   1.00
H266   H     0.07581   0.81884   0.22393   0.00000  Uiso   1.00
H267   H     0.85790   0.78395   0.86200   0.00000  Uiso   1.00
O268   O     0.60461   0.24121   0.06786   0.00000  Uiso   1.00
O269   O     0.97600   0.75929   0.30438   0.00000  Uiso   1.00
O270   O     0.69012   0.71351   0.82954   0.00000  Uiso   1.00
N271   N     0.56661   0.13105   0.08061   0.00000  Uiso   1.00
N272   N     0.83128   0.78764   0.24917   0.00000  Uiso   1.00
N273   N     0.62757   0.75500   0.91080   0.00000  Uiso   1.00
N274   N     0.73010   0.15793   0.05471   0.00000  Uiso   1.00
N275   N     0.99477   0.81452   0.22328   0.00000  Uiso   1.00
N276   N     0.79106   0.78188   0.88491   0.00000  Uiso   1.00
C277   C     0.16074   0.61111   0.91755   0.00000  Uiso   1.00
C278   C     0.17475   0.53780   0.92439   0.00000  Uiso   1.00
C279   C     0.09546   0.49114   0.91572   0.00000  Uiso   1.00
C280   C     0.12433   0.42662   0.92418   0.00000  Uiso   1.00
C281   C     0.13021   0.31540   0.93226   0.00000  Uiso   1.00
C282   C     0.24769   0.63244   0.87793   0.00000  Uiso   1.00
C283   C     0.22974   0.66535   0.83019   0.00000  Uiso   1.00
C284   C     0.32002   0.68050   0.79954   0.00000  Uiso   1.00
C285   C     0.43915   0.71626   0.73551   0.00000  Uiso   1.00
C286   C     0.19154   0.64143   0.97119   0.00000  Uiso   1.00
C287   C     0.12639   0.68191   0.00186   0.00000  Uiso   1.00
C288   C     0.16940   0.70464   0.04972   0.00000  Uiso   1.00
C289   C     0.20135   0.75434   0.13048   0.00000  Uiso   1.00
C290   C     0.35300   0.57950   0.94800   0.00000  Uiso   1.00
C291   C     0.27918   0.52064   0.94093   0.00000  Uiso   1.00
C292   C     0.30817   0.45617   0.94941   0.00000  Uiso   1.00
C293   C     0.22894   0.40942   0.94075   0.00000  Uiso   1.00
C294   C     0.35212   0.61528   0.89447   0.00000  Uiso   1.00
C295   C     0.44245   0.63038   0.86388   0.00000  Uiso   1.00
C296   C     0.42463   0.66331   0.81611   0.00000  Uiso   1.00
C297   C     0.29597   0.62426   0.98773   0.00000  Uiso   1.00
C298   C     0.33910   0.64694   0.03555   0.00000  Uiso   1.00
C299   C     0.27402   0.68744   0.06628   0.00000  Uiso   1.00
H300   H     0.07945   0.62448   0.90467   0.00000  Uiso   1.00
H301   H     0.01466   0.50444   0.90291   0.00000  Uiso   1.00
H302   H     0.14892   0.67864   0.81741   0.00000  Uiso   1.00
H303   H     0.04558   0.69519   0.98905   0.00000  Uiso   1.00
H304   H     0.98890   0.36379   0.90824   0.00000  Uiso   1.00
H305   H     0.27198   0.73111   0.72795   0.00000  Uiso   1.00
H306   H     0.05408   0.76601   0.08988   0.00000  Uiso   1.00
H307   H     0.43431   0.56614   0.96087   0.00000  Uiso   1.00
H308   H     0.38899   0.44290   0.96220   0.00000  Uiso   1.00
H309   H     0.52325   0.61709   0.87669   0.00000  Uiso   1.00
H310   H     0.41991   0.63364   0.04833   0.00000  Uiso   1.00
H311   H     0.29272   0.31384   0.95636   0.00000  Uiso   1.00
H312   H     0.57581   0.68116   0.77607   0.00000  Uiso   1.00
H313   H     0.35790   0.71605   0.13800   0.00000  Uiso   1.00
O314   O     0.10461   0.25879   0.93214   0.00000  Uiso   1.00
O315   O     0.47600   0.74071   0.69562   0.00000  Uiso   1.00
O316   O     0.19012   0.78649   0.17046   0.00000  Uiso   1.00
N317   N     0.06661   0.36895   0.91939   0.00000  Uiso   1.00
N318   N     0.33128   0.71236   0.75083   0.00000  Uiso   1.00
N319   N     0.12757   0.74500   0.08920   0.00000  Uiso   1.00
N320   N     0.23010   0.34207   0.94529   0.00000  Uiso   1.00
N321   N     0.49477   0.68548   0.77672   0.00000  Uiso   1.00
N322   N     0.29106   0.71812   0.11509   0.00000  Uiso   1.00
C323   C     0.33926   0.38889   0.41755   0.00000  Uiso   1.00
C324   C     0.32525   0.46220   0.42439   0.00000  Uiso   1.00
C325   C     0.40454   0.50886   0.41572   0.00000  Uiso   1.00
C326   C     0.37567   0.57338   0.42418   0.00000  Uiso   1.00
C327   C     0.36979   0.68460   0.43226   0.00000  Uiso   1.00
C328   C     0.25231   0.36756   0.37793   0.00000  Uiso   1.00
C329   C     0.27026   0.33465   0.33019   0.00000  Uiso   1.00
C330   C     0.17998   0.31950   0.29954   0.00000  Uiso   1.00
C331   C     0.06085   0.28374   0.23551   0.00000  Uiso   1.00
C332   C     0.30846   0.35857   0.47119   0.00000  Uiso   1.00
C333   C     0.37361   0.31809   0.50186   0.00000  Uiso   1.00
C334   C     0.33060   0.29536   0.54972   0.00000  Uiso   1.00
C335   C     0.29865   0.24566   0.63048   0.00000  Uiso   1.00
C336   C     0.14700   0.42050   0.44800   0.00000  Uiso   1.00
C337   C     0.22082   0.47936   0.44093   0.00000  Uiso   1.00
C338   C     0.19183   0.54383   0.44941   0.00000  Uiso   1.00
C339   C     0.27106   0.59058   0.44075   0.00000  Uiso   1.00
C340   C     0.14788   0.38472   0.39447   0.00000  Uiso   1.00
C341   C     0.05755   0.36962   0.36388   0.00000  Uiso   1.00
C342   C     0.07537   0.33669   0.31611   0.00000  Uiso   1.00
C343   C     0.20403   0.37574   0.48773   0.00000  Uiso   1.00
C344   C     0.16090   0.35306   0.53555   0.00000  Uiso   1.00
C345   C     0.22598   0.31256   0.56628   0.00000  Uiso   1.00
H346   H     0.42055   0.37552   0.40467   0.00000  Uiso   1.00
H347   H     0.48534   0.49556   0.40291   0.00000  Uiso   1.00
H348   H     0.35108   0.32136   0.31741   0.00000  Uiso   1.00
H349   H     0.45442   0.30481   0.48905   0.00000  Uiso   1.00
H350   H     0.51110   0.63621   0.40824   0.00000  Uiso   1.00
H351   H     0.22802   0.26889   0.22795   0.00000  Uiso   1.00
H352   H     0.44592   0.23399   0.58988   0.00000  Uiso   1.00
H353   H     0.06569   0.43386   0.46087   0.00000  Uiso   1.00
H354   H     0.11101   0.55710   0.46220   0.00000  Uiso   1.00
H355   H     0.97675   0.38291   0.37669   0.00000  Uiso   1.00
H356   H     0.08009   0.36636   0.54833   0.00000  Uiso   1.00
H357   H     0.20728   0.68616   0.45636   0.00000  Uiso   1.00
H358   H     0.92419   0.31884   0.27607   0.00000  Uiso   1.00
H359   H     0.14210   0.28395   0.63800   0.00000  Uiso   1.00
O360   O     0.39539   0.74121   0.43214   0.00000  Uiso   1.00
O361   O     0.02400   0.25929   0.19562   0.00000  Uiso   1.00
O362   O     0.30988   0.21351   0.67046   0.00000  Uiso   1.00
N363   N     0.43339   0.63105   0.41939   0.00000  Uiso   1.00
N364   N     0.16872   0.28764   0.25083   0.00000  Uiso   1.00
N365   N     0.37243   0.25500   0.58920   0.00000  Uiso   1.00
N366   N     0.26990   0.65793   0.44529   0.00000  Uiso   1.00
N367   N     0.00523   0.31452   0.27672   0.00000  Uiso   1.00
N368   N     0.20894   0.28188   0.61509   0.00000  Uiso   1.00
