data_job_03153
_audit_creation_date              2018-12-19
_audit_creation_method            'Materials Studio'
_symmetry_space_group_name_H-M    'P1'
_symmetry_Int_Tables_number       1
_symmetry_cell_setting            triclinic
loop_
_symmetry_equiv_pos_as_xyz
  x,y,z
_cell_length_a                    13.3620
_cell_length_b                    20.0322
_cell_length_c                    13.4823
_cell_angle_alpha                 90.0000
_cell_angle_beta                  90.0000
_cell_angle_gamma                 90.0000
loop_
_atom_site_label
_atom_site_type_symbol
_atom_site_fract_x
_atom_site_fract_y
_atom_site_fract_z
_atom_site_U_iso_or_equiv
_atom_site_adp_type
_atom_site_occupancy
C1     C     0.18966   0.38249   0.78729   0.00000  Uiso   1.00
C2     C     0.14600   0.34738   0.69674   0.00000  Uiso   1.00
C3     C     0.05220   0.31786   0.69134   0.00000  Uiso   1.00
C4     C     0.02615   0.28829   0.60186   0.00000  Uiso   1.00
C5     C     0.94841   0.23375   0.47361   0.00000  Uiso   1.00
C6     C     0.28837   0.34736   0.80962   0.00000  Uiso   1.00
C7     C     0.31428   0.31784   0.89914   0.00000  Uiso   1.00
C8     C     0.40809   0.28827   0.90468   0.00000  Uiso   1.00
C9     C     0.55142   0.23375   0.95171   0.00000  Uiso   1.00
C10    C     0.21722   0.45269   0.75318   0.00000  Uiso   1.00
C11    C     0.18333   0.51174   0.79525   0.00000  Uiso   1.00
C12    C     0.21726   0.57085   0.75329   0.00000  Uiso   1.00
C13    C     0.25012   0.67988   0.71268   0.00000  Uiso   1.00
C14    C     0.31020   0.38246   0.63796   0.00000  Uiso   1.00
C15    C     0.21148   0.34736   0.61563   0.00000  Uiso   1.00
C16    C     0.18556   0.31784   0.52613   0.00000  Uiso   1.00
C17    C     0.09174   0.28828   0.52060   0.00000  Uiso   1.00
C18    C     0.35385   0.34735   0.72852   0.00000  Uiso   1.00
C19    C     0.44764   0.31782   0.73393   0.00000  Uiso   1.00
C20    C     0.47368   0.28826   0.82343   0.00000  Uiso   1.00
C21    C     0.28270   0.45268   0.67207   0.00000  Uiso   1.00
C22    C     0.31669   0.51172   0.63004   0.00000  Uiso   1.00
C23    C     0.28285   0.57084   0.67203   0.00000  Uiso   1.00
H24    H     0.13869   0.38249   0.85044   0.00000  Uiso   1.00
H25    H     0.00155   0.31787   0.75413   0.00000  Uiso   1.00
H26    H     0.26360   0.31787   0.96190   0.00000  Uiso   1.00
H27    H     0.13266   0.51173   0.85802   0.00000  Uiso   1.00
H28    H     0.87840   0.24621   0.61160   0.00000  Uiso   1.00
H29    H     0.43095   0.24621   0.04969   0.00000  Uiso   1.00
H30    H     0.15485   0.65501   0.83065   0.00000  Uiso   1.00
H31    H     0.36118   0.38245   0.57482   0.00000  Uiso   1.00
H32    H     0.23625   0.31783   0.46338   0.00000  Uiso   1.00
H33    H     0.49829   0.31782   0.67115   0.00000  Uiso   1.00
H34    H     0.36736   0.51169   0.56727   0.00000  Uiso   1.00
H35    H     0.06888   0.24617   0.37561   0.00000  Uiso   1.00
H36    H     0.62144   0.24618   0.81372   0.00000  Uiso   1.00
H37    H     0.34534   0.65498   0.59467   0.00000  Uiso   1.00
O38    O     0.88745   0.20366   0.42528   0.00000  Uiso   1.00
O39    O     0.61238   0.20368   0.00006   0.00000  Uiso   1.00
O40    O     0.25014   0.74002   0.71268   0.00000  Uiso   1.00
N41    N     0.94037   0.25508   0.57134   0.00000  Uiso   1.00
N42    N     0.45696   0.25507   0.98094   0.00000  Uiso   1.00
N43    N     0.19885   0.63727   0.77617   0.00000  Uiso   1.00
N44    N     0.04286   0.25506   0.44436   0.00000  Uiso   1.00
N45    N     0.55946   0.25505   0.85395   0.00000  Uiso   1.00
N46    N     0.30135   0.63725   0.64919   0.00000  Uiso   1.00
C47    C     0.81034   0.61751   0.78729   0.00000  Uiso   1.00
C48    C     0.85400   0.65262   0.69674   0.00000  Uiso   1.00
C49    C     0.94780   0.68214   0.69134   0.00000  Uiso   1.00
C50    C     0.97385   0.71171   0.60186   0.00000  Uiso   1.00
C51    C     0.05159   0.76625   0.47361   0.00000  Uiso   1.00
C52    C     0.71163   0.65264   0.80962   0.00000  Uiso   1.00
C53    C     0.68572   0.68216   0.89914   0.00000  Uiso   1.00
C54    C     0.59191   0.71173   0.90468   0.00000  Uiso   1.00
C55    C     0.44858   0.76625   0.95171   0.00000  Uiso   1.00
C56    C     0.78278   0.54731   0.75318   0.00000  Uiso   1.00
C57    C     0.81667   0.48826   0.79525   0.00000  Uiso   1.00
C58    C     0.78274   0.42915   0.75329   0.00000  Uiso   1.00
C59    C     0.74988   0.32012   0.71268   0.00000  Uiso   1.00
C60    C     0.68980   0.61754   0.63796   0.00000  Uiso   1.00
C61    C     0.78852   0.65264   0.61563   0.00000  Uiso   1.00
C62    C     0.81444   0.68216   0.52613   0.00000  Uiso   1.00
C63    C     0.90826   0.71172   0.52060   0.00000  Uiso   1.00
C64    C     0.64615   0.65265   0.72852   0.00000  Uiso   1.00
C65    C     0.55236   0.68218   0.73393   0.00000  Uiso   1.00
C66    C     0.52632   0.71174   0.82343   0.00000  Uiso   1.00
C67    C     0.71730   0.54732   0.67207   0.00000  Uiso   1.00
C68    C     0.68331   0.48828   0.63004   0.00000  Uiso   1.00
C69    C     0.71715   0.42916   0.67203   0.00000  Uiso   1.00
H70    H     0.86131   0.61751   0.85044   0.00000  Uiso   1.00
H71    H     0.99845   0.68213   0.75413   0.00000  Uiso   1.00
H72    H     0.73640   0.68213   0.96190   0.00000  Uiso   1.00
H73    H     0.86734   0.48827   0.85802   0.00000  Uiso   1.00
H74    H     0.12160   0.75379   0.61160   0.00000  Uiso   1.00
H75    H     0.56905   0.75379   0.04969   0.00000  Uiso   1.00
H76    H     0.84515   0.34499   0.83065   0.00000  Uiso   1.00
H77    H     0.63882   0.61755   0.57482   0.00000  Uiso   1.00
H78    H     0.76375   0.68217   0.46338   0.00000  Uiso   1.00
H79    H     0.50171   0.68218   0.67115   0.00000  Uiso   1.00
H80    H     0.63264   0.48831   0.56727   0.00000  Uiso   1.00
H81    H     0.93112   0.75383   0.37561   0.00000  Uiso   1.00
H82    H     0.37856   0.75382   0.81372   0.00000  Uiso   1.00
H83    H     0.65466   0.34502   0.59467   0.00000  Uiso   1.00
O84    O     0.11255   0.79634   0.42528   0.00000  Uiso   1.00
O85    O     0.38762   0.79632   0.00006   0.00000  Uiso   1.00
O86    O     0.74986   0.25998   0.71268   0.00000  Uiso   1.00
N87    N     0.05963   0.74492   0.57134   0.00000  Uiso   1.00
N88    N     0.54304   0.74493   0.98094   0.00000  Uiso   1.00
N89    N     0.80115   0.36273   0.77617   0.00000  Uiso   1.00
N90    N     0.95714   0.74494   0.44436   0.00000  Uiso   1.00
N91    N     0.44054   0.74495   0.85395   0.00000  Uiso   1.00
N92    N     0.69865   0.36275   0.64919   0.00000  Uiso   1.00
C93    C     0.18966   0.11751   0.28729   0.00000  Uiso   1.00
C94    C     0.14600   0.15262   0.19674   0.00000  Uiso   1.00
C95    C     0.05220   0.18214   0.19134   0.00000  Uiso   1.00
C96    C     0.02615   0.21171   0.10186   0.00000  Uiso   1.00
C97    C     0.94841   0.26625   0.97361   0.00000  Uiso   1.00
C98    C     0.28837   0.15264   0.30962   0.00000  Uiso   1.00
C99    C     0.31428   0.18216   0.39914   0.00000  Uiso   1.00
C100   C     0.40809   0.21173   0.40468   0.00000  Uiso   1.00
C101   C     0.55142   0.26625   0.45171   0.00000  Uiso   1.00
C102   C     0.21722   0.04731   0.25318   0.00000  Uiso   1.00
C103   C     0.18333   0.98826   0.29525   0.00000  Uiso   1.00
C104   C     0.21726   0.92915   0.25329   0.00000  Uiso   1.00
C105   C     0.25012   0.82012   0.21268   0.00000  Uiso   1.00
C106   C     0.31020   0.11754   0.13796   0.00000  Uiso   1.00
C107   C     0.21148   0.15264   0.11563   0.00000  Uiso   1.00
C108   C     0.18556   0.18216   0.02613   0.00000  Uiso   1.00
C109   C     0.09174   0.21172   0.02060   0.00000  Uiso   1.00
C110   C     0.35385   0.15265   0.22852   0.00000  Uiso   1.00
C111   C     0.44764   0.18218   0.23393   0.00000  Uiso   1.00
C112   C     0.47368   0.21174   0.32343   0.00000  Uiso   1.00
C113   C     0.28270   0.04732   0.17207   0.00000  Uiso   1.00
C114   C     0.31669   0.98828   0.13004   0.00000  Uiso   1.00
C115   C     0.28285   0.92916   0.17203   0.00000  Uiso   1.00
H116   H     0.13869   0.11751   0.35044   0.00000  Uiso   1.00
H117   H     0.00155   0.18213   0.25413   0.00000  Uiso   1.00
H118   H     0.26360   0.18213   0.46190   0.00000  Uiso   1.00
H119   H     0.13266   0.98827   0.35802   0.00000  Uiso   1.00
H120   H     0.87840   0.25379   0.11160   0.00000  Uiso   1.00
H121   H     0.43095   0.25379   0.54969   0.00000  Uiso   1.00
H122   H     0.15485   0.84499   0.33065   0.00000  Uiso   1.00
H123   H     0.36118   0.11755   0.07482   0.00000  Uiso   1.00
H124   H     0.23625   0.18217   0.96338   0.00000  Uiso   1.00
H125   H     0.49829   0.18218   0.17115   0.00000  Uiso   1.00
H126   H     0.36736   0.98831   0.06727   0.00000  Uiso   1.00
H127   H     0.06888   0.25383   0.87561   0.00000  Uiso   1.00
H128   H     0.62144   0.25382   0.31372   0.00000  Uiso   1.00
H129   H     0.34534   0.84502   0.09467   0.00000  Uiso   1.00
O130   O     0.88745   0.29634   0.92528   0.00000  Uiso   1.00
O131   O     0.61238   0.29632   0.50006   0.00000  Uiso   1.00
O132   O     0.25014   0.75998   0.21268   0.00000  Uiso   1.00
N133   N     0.94037   0.24492   0.07134   0.00000  Uiso   1.00
N134   N     0.45696   0.24493   0.48094   0.00000  Uiso   1.00
N135   N     0.19885   0.86273   0.27617   0.00000  Uiso   1.00
N136   N     0.04286   0.24494   0.94436   0.00000  Uiso   1.00
N137   N     0.55946   0.24495   0.35395   0.00000  Uiso   1.00
N138   N     0.30135   0.86275   0.14919   0.00000  Uiso   1.00
C139   C     0.81034   0.88249   0.28729   0.00000  Uiso   1.00
C140   C     0.85400   0.84738   0.19674   0.00000  Uiso   1.00
C141   C     0.94780   0.81786   0.19134   0.00000  Uiso   1.00
C142   C     0.97385   0.78829   0.10186   0.00000  Uiso   1.00
C143   C     0.05159   0.73375   0.97361   0.00000  Uiso   1.00
C144   C     0.71163   0.84736   0.30962   0.00000  Uiso   1.00
C145   C     0.68572   0.81784   0.39914   0.00000  Uiso   1.00
C146   C     0.59191   0.78827   0.40468   0.00000  Uiso   1.00
C147   C     0.44858   0.73375   0.45171   0.00000  Uiso   1.00
C148   C     0.78278   0.95269   0.25318   0.00000  Uiso   1.00
C149   C     0.81667   0.01174   0.29525   0.00000  Uiso   1.00
C150   C     0.78274   0.07085   0.25329   0.00000  Uiso   1.00
C151   C     0.74988   0.17988   0.21268   0.00000  Uiso   1.00
C152   C     0.68980   0.88246   0.13796   0.00000  Uiso   1.00
C153   C     0.78852   0.84736   0.11563   0.00000  Uiso   1.00
C154   C     0.81444   0.81784   0.02613   0.00000  Uiso   1.00
C155   C     0.90826   0.78828   0.02060   0.00000  Uiso   1.00
C156   C     0.64615   0.84735   0.22852   0.00000  Uiso   1.00
C157   C     0.55236   0.81782   0.23393   0.00000  Uiso   1.00
C158   C     0.52632   0.78826   0.32343   0.00000  Uiso   1.00
C159   C     0.71730   0.95268   0.17207   0.00000  Uiso   1.00
C160   C     0.68331   0.01172   0.13004   0.00000  Uiso   1.00
C161   C     0.71715   0.07084   0.17203   0.00000  Uiso   1.00
H162   H     0.86131   0.88249   0.35044   0.00000  Uiso   1.00
H163   H     0.99845   0.81787   0.25413   0.00000  Uiso   1.00
H164   H     0.73640   0.81787   0.46190   0.00000  Uiso   1.00
H165   H     0.86734   0.01173   0.35802   0.00000  Uiso   1.00
H166   H     0.12160   0.74621   0.11160   0.00000  Uiso   1.00
H167   H     0.56905   0.74621   0.54969   0.00000  Uiso   1.00
H168   H     0.84515   0.15501   0.33065   0.00000  Uiso   1.00
H169   H     0.63882   0.88245   0.07482   0.00000  Uiso   1.00
H170   H     0.76375   0.81783   0.96338   0.00000  Uiso   1.00
H171   H     0.50171   0.81782   0.17115   0.00000  Uiso   1.00
H172   H     0.63264   0.01169   0.06727   0.00000  Uiso   1.00
H173   H     0.93112   0.74617   0.87561   0.00000  Uiso   1.00
H174   H     0.37856   0.74618   0.31372   0.00000  Uiso   1.00
H175   H     0.65466   0.15498   0.09467   0.00000  Uiso   1.00
O176   O     0.11255   0.70366   0.92528   0.00000  Uiso   1.00
O177   O     0.38762   0.70368   0.50006   0.00000  Uiso   1.00
O178   O     0.74986   0.24002   0.21268   0.00000  Uiso   1.00
N179   N     0.05963   0.75508   0.07134   0.00000  Uiso   1.00
N180   N     0.54304   0.75507   0.48094   0.00000  Uiso   1.00
N181   N     0.80115   0.13727   0.27617   0.00000  Uiso   1.00
N182   N     0.95714   0.75506   0.94436   0.00000  Uiso   1.00
N183   N     0.44054   0.75505   0.35395   0.00000  Uiso   1.00
N184   N     0.69865   0.13725   0.14919   0.00000  Uiso   1.00
