data_job_02566
_audit_creation_date              2018-12-19
_audit_creation_method            'Materials Studio'
_symmetry_space_group_name_H-M    'P1'
_symmetry_Int_Tables_number       1
_symmetry_cell_setting            triclinic
loop_
_symmetry_equiv_pos_as_xyz
  x,y,z
_cell_length_a                    20.9242
_cell_length_b                    13.7495
_cell_length_c                    33.7589
_cell_angle_alpha                 90.0000
_cell_angle_beta                  113.2985
_cell_angle_gamma                 90.0000
loop_
_atom_site_label
_atom_site_type_symbol
_atom_site_fract_x
_atom_site_fract_y
_atom_site_fract_z
_atom_site_U_iso_or_equiv
_atom_site_adp_type
_atom_site_occupancy
C1     C     0.04175   0.76795   0.32174   0.00000  Uiso   1.00
C2     C     0.03187   0.71095   0.35766   0.00000  Uiso   1.00
C3     C     0.00160   0.61965   0.35348   0.00000  Uiso   1.00
C4     C     0.99738   0.57980   0.39016   0.00000  Uiso   1.00
C5     C     0.97818   0.48374   0.43992   0.00000  Uiso   1.00
C6     C     0.00578   0.86556   0.31929   0.00000  Uiso   1.00
C7     C     0.95359   0.90427   0.28286   0.00000  Uiso   1.00
C8     C     0.92742   0.99458   0.28724   0.00000  Uiso   1.00
C9     C     0.86774   0.13860   0.27744   0.00000  Uiso   1.00
C10    C     0.11935   0.79010   0.33801   0.00000  Uiso   1.00
C11    C     0.16265   0.76538   0.31730   0.00000  Uiso   1.00
C12    C     0.23209   0.79218   0.33743   0.00000  Uiso   1.00
C13    C     0.34875   0.81903   0.35668   0.00000  Uiso   1.00
C14    C     0.08808   0.85952   0.39431   0.00000  Uiso   1.00
C15    C     0.05703   0.76069   0.39707   0.00000  Uiso   1.00
C16    C     0.05286   0.72096   0.43377   0.00000  Uiso   1.00
C17    C     0.02260   0.62962   0.42964   0.00000  Uiso   1.00
C18    C     0.03094   0.91530   0.35871   0.00000  Uiso   1.00
C19    C     0.00484   0.00558   0.36315   0.00000  Uiso   1.00
C20    C     0.95262   0.04441   0.32673   0.00000  Uiso   1.00
C21    C     0.14451   0.83983   0.37742   0.00000  Uiso   1.00
C22    C     0.21390   0.86668   0.39759   0.00000  Uiso   1.00
C23    C     0.25730   0.84201   0.37692   0.00000  Uiso   1.00
H24    H     0.02216   0.72924   0.29106   0.00000  Uiso   1.00
H25    H     0.98213   0.58119   0.32297   0.00000  Uiso   1.00
H26    H     0.93413   0.86577   0.25236   0.00000  Uiso   1.00
H27    H     0.14315   0.72689   0.28680   0.00000  Uiso   1.00
H28    H     0.94883   0.43900   0.37573   0.00000  Uiso   1.00
H29    H     0.84763   0.03906   0.22684   0.00000  Uiso   1.00
H30    H     0.28840   0.74622   0.29946   0.00000  Uiso   1.00
H31    H     0.10767   0.89824   0.42500   0.00000  Uiso   1.00
H32    H     0.07234   0.75947   0.46426   0.00000  Uiso   1.00
H33    H     0.02433   0.04405   0.39365   0.00000  Uiso   1.00
H34    H     0.23336   0.90517   0.42809   0.00000  Uiso   1.00
H35    H     0.02204   0.58370   0.49041   0.00000  Uiso   1.00
H36    H     0.92084   0.18377   0.34152   0.00000  Uiso   1.00
H37    H     0.36161   0.89092   0.41413   0.00000  Uiso   1.00
O38    O     0.96062   0.41703   0.45648   0.00000  Uiso   1.00
O39    O     0.82787   0.20429   0.26114   0.00000  Uiso   1.00
O40    O     0.40615   0.82008   0.35641   0.00000  Uiso   1.00
N41    N     0.97092   0.49209   0.39734   0.00000  Uiso   1.00
N42    N     0.87630   0.05311   0.25813   0.00000  Uiso   1.00
N43    N     0.28838   0.77935   0.32602   0.00000  Uiso   1.00
N44    N     0.01031   0.56995   0.45904   0.00000  Uiso   1.00
N45    N     0.91569   0.13097   0.31984   0.00000  Uiso   1.00
N46    N     0.32777   0.85721   0.38772   0.00000  Uiso   1.00
C47    C     0.54175   0.26795   0.32174   0.00000  Uiso   1.00
C48    C     0.53187   0.21095   0.35766   0.00000  Uiso   1.00
C49    C     0.50160   0.11965   0.35348   0.00000  Uiso   1.00
C50    C     0.49738   0.07980   0.39016   0.00000  Uiso   1.00
C51    C     0.47818   0.98374   0.43992   0.00000  Uiso   1.00
C52    C     0.50578   0.36556   0.31929   0.00000  Uiso   1.00
C53    C     0.45359   0.40427   0.28286   0.00000  Uiso   1.00
C54    C     0.42742   0.49458   0.28724   0.00000  Uiso   1.00
C55    C     0.36774   0.63860   0.27744   0.00000  Uiso   1.00
C56    C     0.61935   0.29010   0.33801   0.00000  Uiso   1.00
C57    C     0.66265   0.26538   0.31730   0.00000  Uiso   1.00
C58    C     0.73209   0.29218   0.33743   0.00000  Uiso   1.00
C59    C     0.84875   0.31903   0.35668   0.00000  Uiso   1.00
C60    C     0.58808   0.35952   0.39431   0.00000  Uiso   1.00
C61    C     0.55703   0.26069   0.39707   0.00000  Uiso   1.00
C62    C     0.55286   0.22096   0.43377   0.00000  Uiso   1.00
C63    C     0.52260   0.12962   0.42964   0.00000  Uiso   1.00
C64    C     0.53094   0.41530   0.35871   0.00000  Uiso   1.00
C65    C     0.50484   0.50558   0.36315   0.00000  Uiso   1.00
C66    C     0.45262   0.54441   0.32673   0.00000  Uiso   1.00
C67    C     0.64451   0.33983   0.37742   0.00000  Uiso   1.00
C68    C     0.71390   0.36668   0.39759   0.00000  Uiso   1.00
C69    C     0.75730   0.34201   0.37692   0.00000  Uiso   1.00
H70    H     0.52216   0.22924   0.29106   0.00000  Uiso   1.00
H71    H     0.48213   0.08119   0.32297   0.00000  Uiso   1.00
H72    H     0.43413   0.36577   0.25236   0.00000  Uiso   1.00
H73    H     0.64315   0.22689   0.28680   0.00000  Uiso   1.00
H74    H     0.44883   0.93900   0.37573   0.00000  Uiso   1.00
H75    H     0.34763   0.53906   0.22684   0.00000  Uiso   1.00
H76    H     0.78840   0.24622   0.29946   0.00000  Uiso   1.00
H77    H     0.60767   0.39824   0.42500   0.00000  Uiso   1.00
H78    H     0.57234   0.25947   0.46426   0.00000  Uiso   1.00
H79    H     0.52433   0.54405   0.39365   0.00000  Uiso   1.00
H80    H     0.73336   0.40517   0.42809   0.00000  Uiso   1.00
H81    H     0.52204   0.08370   0.49041   0.00000  Uiso   1.00
H82    H     0.42084   0.68377   0.34152   0.00000  Uiso   1.00
H83    H     0.86161   0.39092   0.41413   0.00000  Uiso   1.00
O84    O     0.46062   0.91703   0.45648   0.00000  Uiso   1.00
O85    O     0.32787   0.70429   0.26114   0.00000  Uiso   1.00
O86    O     0.90615   0.32008   0.35641   0.00000  Uiso   1.00
N87    N     0.47092   0.99209   0.39734   0.00000  Uiso   1.00
N88    N     0.37630   0.55311   0.25813   0.00000  Uiso   1.00
N89    N     0.78838   0.27935   0.32602   0.00000  Uiso   1.00
N90    N     0.51031   0.06995   0.45904   0.00000  Uiso   1.00
N91    N     0.41569   0.63097   0.31984   0.00000  Uiso   1.00
N92    N     0.82777   0.35721   0.38772   0.00000  Uiso   1.00
C93    C     0.95825   0.76795   0.17826   0.00000  Uiso   1.00
C94    C     0.96813   0.71095   0.14234   0.00000  Uiso   1.00
C95    C     0.99840   0.61965   0.14652   0.00000  Uiso   1.00
C96    C     0.00262   0.57980   0.10984   0.00000  Uiso   1.00
C97    C     0.02182   0.48374   0.06008   0.00000  Uiso   1.00
C98    C     0.99422   0.86556   0.18071   0.00000  Uiso   1.00
C99    C     0.04641   0.90427   0.21714   0.00000  Uiso   1.00
C100   C     0.07258   0.99458   0.21276   0.00000  Uiso   1.00
C101   C     0.13226   0.13860   0.22256   0.00000  Uiso   1.00
C102   C     0.88065   0.79010   0.16199   0.00000  Uiso   1.00
C103   C     0.83735   0.76538   0.18270   0.00000  Uiso   1.00
C104   C     0.76791   0.79218   0.16257   0.00000  Uiso   1.00
C105   C     0.65125   0.81903   0.14332   0.00000  Uiso   1.00
C106   C     0.91192   0.85952   0.10569   0.00000  Uiso   1.00
C107   C     0.94297   0.76069   0.10293   0.00000  Uiso   1.00
C108   C     0.94714   0.72096   0.06623   0.00000  Uiso   1.00
C109   C     0.97740   0.62962   0.07036   0.00000  Uiso   1.00
C110   C     0.96906   0.91530   0.14129   0.00000  Uiso   1.00
C111   C     0.99516   0.00558   0.13685   0.00000  Uiso   1.00
C112   C     0.04738   0.04441   0.17327   0.00000  Uiso   1.00
C113   C     0.85549   0.83983   0.12258   0.00000  Uiso   1.00
C114   C     0.78610   0.86668   0.10241   0.00000  Uiso   1.00
C115   C     0.74270   0.84201   0.12308   0.00000  Uiso   1.00
H116   H     0.97784   0.72924   0.20894   0.00000  Uiso   1.00
H117   H     0.01787   0.58119   0.17703   0.00000  Uiso   1.00
H118   H     0.06587   0.86577   0.24764   0.00000  Uiso   1.00
H119   H     0.85685   0.72689   0.21320   0.00000  Uiso   1.00
H120   H     0.05117   0.43900   0.12427   0.00000  Uiso   1.00
H121   H     0.15237   0.03906   0.27316   0.00000  Uiso   1.00
H122   H     0.71160   0.74622   0.20054   0.00000  Uiso   1.00
H123   H     0.89233   0.89824   0.07500   0.00000  Uiso   1.00
H124   H     0.92766   0.75947   0.03574   0.00000  Uiso   1.00
H125   H     0.97567   0.04405   0.10635   0.00000  Uiso   1.00
H126   H     0.76664   0.90517   0.07191   0.00000  Uiso   1.00
H127   H     0.97796   0.58370   0.00959   0.00000  Uiso   1.00
H128   H     0.07916   0.18377   0.15848   0.00000  Uiso   1.00
H129   H     0.63839   0.89092   0.08587   0.00000  Uiso   1.00
O130   O     0.03938   0.41703   0.04352   0.00000  Uiso   1.00
O131   O     0.17213   0.20429   0.23886   0.00000  Uiso   1.00
O132   O     0.59385   0.82008   0.14359   0.00000  Uiso   1.00
N133   N     0.02908   0.49209   0.10266   0.00000  Uiso   1.00
N134   N     0.12370   0.05311   0.24187   0.00000  Uiso   1.00
N135   N     0.71162   0.77935   0.17398   0.00000  Uiso   1.00
N136   N     0.98969   0.56995   0.04096   0.00000  Uiso   1.00
N137   N     0.08431   0.13097   0.18016   0.00000  Uiso   1.00
N138   N     0.67223   0.85721   0.11228   0.00000  Uiso   1.00
C139   C     0.45825   0.26795   0.17826   0.00000  Uiso   1.00
C140   C     0.46813   0.21095   0.14234   0.00000  Uiso   1.00
C141   C     0.49840   0.11965   0.14652   0.00000  Uiso   1.00
C142   C     0.50262   0.07980   0.10984   0.00000  Uiso   1.00
C143   C     0.52182   0.98374   0.06008   0.00000  Uiso   1.00
C144   C     0.49422   0.36556   0.18071   0.00000  Uiso   1.00
C145   C     0.54641   0.40427   0.21714   0.00000  Uiso   1.00
C146   C     0.57258   0.49458   0.21276   0.00000  Uiso   1.00
C147   C     0.63226   0.63860   0.22256   0.00000  Uiso   1.00
C148   C     0.38065   0.29010   0.16199   0.00000  Uiso   1.00
C149   C     0.33735   0.26538   0.18270   0.00000  Uiso   1.00
C150   C     0.26791   0.29218   0.16257   0.00000  Uiso   1.00
C151   C     0.15125   0.31903   0.14332   0.00000  Uiso   1.00
C152   C     0.41192   0.35952   0.10569   0.00000  Uiso   1.00
C153   C     0.44297   0.26069   0.10293   0.00000  Uiso   1.00
C154   C     0.44714   0.22096   0.06623   0.00000  Uiso   1.00
C155   C     0.47740   0.12962   0.07036   0.00000  Uiso   1.00
C156   C     0.46906   0.41530   0.14129   0.00000  Uiso   1.00
C157   C     0.49516   0.50558   0.13685   0.00000  Uiso   1.00
C158   C     0.54738   0.54441   0.17327   0.00000  Uiso   1.00
C159   C     0.35549   0.33983   0.12258   0.00000  Uiso   1.00
C160   C     0.28610   0.36668   0.10241   0.00000  Uiso   1.00
C161   C     0.24270   0.34201   0.12308   0.00000  Uiso   1.00
H162   H     0.47784   0.22924   0.20894   0.00000  Uiso   1.00
H163   H     0.51787   0.08119   0.17703   0.00000  Uiso   1.00
H164   H     0.56587   0.36577   0.24764   0.00000  Uiso   1.00
H165   H     0.35685   0.22689   0.21320   0.00000  Uiso   1.00
H166   H     0.55117   0.93900   0.12427   0.00000  Uiso   1.00
H167   H     0.65237   0.53906   0.27316   0.00000  Uiso   1.00
H168   H     0.21160   0.24622   0.20054   0.00000  Uiso   1.00
H169   H     0.39233   0.39824   0.07500   0.00000  Uiso   1.00
H170   H     0.42766   0.25947   0.03574   0.00000  Uiso   1.00
H171   H     0.47567   0.54405   0.10635   0.00000  Uiso   1.00
H172   H     0.26664   0.40517   0.07191   0.00000  Uiso   1.00
H173   H     0.47796   0.08370   0.00959   0.00000  Uiso   1.00
H174   H     0.57916   0.68377   0.15848   0.00000  Uiso   1.00
H175   H     0.13839   0.39092   0.08587   0.00000  Uiso   1.00
O176   O     0.53938   0.91703   0.04352   0.00000  Uiso   1.00
O177   O     0.67213   0.70429   0.23886   0.00000  Uiso   1.00
O178   O     0.09385   0.32008   0.14359   0.00000  Uiso   1.00
N179   N     0.52908   0.99209   0.10266   0.00000  Uiso   1.00
N180   N     0.62370   0.55311   0.24187   0.00000  Uiso   1.00
N181   N     0.21162   0.27935   0.17398   0.00000  Uiso   1.00
N182   N     0.48969   0.06995   0.04096   0.00000  Uiso   1.00
N183   N     0.58431   0.63097   0.18016   0.00000  Uiso   1.00
N184   N     0.17223   0.35721   0.11228   0.00000  Uiso   1.00
C185   C     0.95825   0.23205   0.67826   0.00000  Uiso   1.00
C186   C     0.96813   0.28905   0.64234   0.00000  Uiso   1.00
C187   C     0.99840   0.38035   0.64652   0.00000  Uiso   1.00
C188   C     0.00262   0.42020   0.60984   0.00000  Uiso   1.00
C189   C     0.02182   0.51626   0.56008   0.00000  Uiso   1.00
C190   C     0.99422   0.13444   0.68071   0.00000  Uiso   1.00
C191   C     0.04641   0.09573   0.71714   0.00000  Uiso   1.00
C192   C     0.07258   0.00542   0.71276   0.00000  Uiso   1.00
C193   C     0.13226   0.86140   0.72256   0.00000  Uiso   1.00
C194   C     0.88065   0.20990   0.66199   0.00000  Uiso   1.00
C195   C     0.83735   0.23462   0.68270   0.00000  Uiso   1.00
C196   C     0.76791   0.20782   0.66257   0.00000  Uiso   1.00
C197   C     0.65125   0.18097   0.64332   0.00000  Uiso   1.00
C198   C     0.91192   0.14048   0.60569   0.00000  Uiso   1.00
C199   C     0.94297   0.23931   0.60293   0.00000  Uiso   1.00
C200   C     0.94714   0.27904   0.56623   0.00000  Uiso   1.00
C201   C     0.97740   0.37038   0.57036   0.00000  Uiso   1.00
C202   C     0.96906   0.08470   0.64129   0.00000  Uiso   1.00
C203   C     0.99516   0.99442   0.63685   0.00000  Uiso   1.00
C204   C     0.04738   0.95559   0.67327   0.00000  Uiso   1.00
C205   C     0.85549   0.16017   0.62258   0.00000  Uiso   1.00
C206   C     0.78610   0.13332   0.60241   0.00000  Uiso   1.00
C207   C     0.74270   0.15799   0.62308   0.00000  Uiso   1.00
H208   H     0.97784   0.27076   0.70894   0.00000  Uiso   1.00
H209   H     0.01787   0.41881   0.67703   0.00000  Uiso   1.00
H210   H     0.06587   0.13423   0.74764   0.00000  Uiso   1.00
H211   H     0.85685   0.27311   0.71320   0.00000  Uiso   1.00
H212   H     0.05117   0.56100   0.62427   0.00000  Uiso   1.00
H213   H     0.15237   0.96094   0.77316   0.00000  Uiso   1.00
H214   H     0.71160   0.25378   0.70054   0.00000  Uiso   1.00
H215   H     0.89233   0.10176   0.57500   0.00000  Uiso   1.00
H216   H     0.92766   0.24053   0.53574   0.00000  Uiso   1.00
H217   H     0.97567   0.95595   0.60635   0.00000  Uiso   1.00
H218   H     0.76664   0.09483   0.57191   0.00000  Uiso   1.00
H219   H     0.97796   0.41630   0.50959   0.00000  Uiso   1.00
H220   H     0.07916   0.81623   0.65848   0.00000  Uiso   1.00
H221   H     0.63839   0.10908   0.58587   0.00000  Uiso   1.00
O222   O     0.03938   0.58297   0.54352   0.00000  Uiso   1.00
O223   O     0.17213   0.79571   0.73886   0.00000  Uiso   1.00
O224   O     0.59385   0.17992   0.64359   0.00000  Uiso   1.00
N225   N     0.02908   0.50791   0.60266   0.00000  Uiso   1.00
N226   N     0.12370   0.94689   0.74187   0.00000  Uiso   1.00
N227   N     0.71162   0.22065   0.67398   0.00000  Uiso   1.00
N228   N     0.98969   0.43005   0.54096   0.00000  Uiso   1.00
N229   N     0.08431   0.86903   0.68016   0.00000  Uiso   1.00
N230   N     0.67223   0.14279   0.61228   0.00000  Uiso   1.00
C231   C     0.45825   0.73205   0.67826   0.00000  Uiso   1.00
C232   C     0.46813   0.78905   0.64234   0.00000  Uiso   1.00
C233   C     0.49840   0.88035   0.64652   0.00000  Uiso   1.00
C234   C     0.50262   0.92020   0.60984   0.00000  Uiso   1.00
C235   C     0.52182   0.01626   0.56008   0.00000  Uiso   1.00
C236   C     0.49422   0.63444   0.68071   0.00000  Uiso   1.00
C237   C     0.54641   0.59573   0.71714   0.00000  Uiso   1.00
C238   C     0.57258   0.50542   0.71276   0.00000  Uiso   1.00
C239   C     0.63226   0.36140   0.72256   0.00000  Uiso   1.00
C240   C     0.38065   0.70990   0.66199   0.00000  Uiso   1.00
C241   C     0.33735   0.73462   0.68270   0.00000  Uiso   1.00
C242   C     0.26791   0.70782   0.66257   0.00000  Uiso   1.00
C243   C     0.15125   0.68097   0.64332   0.00000  Uiso   1.00
C244   C     0.41192   0.64048   0.60569   0.00000  Uiso   1.00
C245   C     0.44297   0.73931   0.60293   0.00000  Uiso   1.00
C246   C     0.44714   0.77904   0.56623   0.00000  Uiso   1.00
C247   C     0.47740   0.87038   0.57036   0.00000  Uiso   1.00
C248   C     0.46906   0.58470   0.64129   0.00000  Uiso   1.00
C249   C     0.49516   0.49442   0.63685   0.00000  Uiso   1.00
C250   C     0.54738   0.45559   0.67327   0.00000  Uiso   1.00
C251   C     0.35549   0.66017   0.62258   0.00000  Uiso   1.00
C252   C     0.28610   0.63332   0.60241   0.00000  Uiso   1.00
C253   C     0.24270   0.65799   0.62308   0.00000  Uiso   1.00
H254   H     0.47784   0.77076   0.70894   0.00000  Uiso   1.00
H255   H     0.51787   0.91881   0.67703   0.00000  Uiso   1.00
H256   H     0.56587   0.63423   0.74764   0.00000  Uiso   1.00
H257   H     0.35685   0.77311   0.71320   0.00000  Uiso   1.00
H258   H     0.55117   0.06100   0.62427   0.00000  Uiso   1.00
H259   H     0.65237   0.46094   0.77316   0.00000  Uiso   1.00
H260   H     0.21160   0.75378   0.70054   0.00000  Uiso   1.00
H261   H     0.39233   0.60176   0.57500   0.00000  Uiso   1.00
H262   H     0.42766   0.74053   0.53574   0.00000  Uiso   1.00
H263   H     0.47567   0.45595   0.60635   0.00000  Uiso   1.00
H264   H     0.26664   0.59483   0.57191   0.00000  Uiso   1.00
H265   H     0.47796   0.91630   0.50959   0.00000  Uiso   1.00
H266   H     0.57916   0.31623   0.65848   0.00000  Uiso   1.00
H267   H     0.13839   0.60908   0.58587   0.00000  Uiso   1.00
O268   O     0.53938   0.08297   0.54352   0.00000  Uiso   1.00
O269   O     0.67213   0.29571   0.73886   0.00000  Uiso   1.00
O270   O     0.09385   0.67992   0.64359   0.00000  Uiso   1.00
N271   N     0.52908   0.00791   0.60266   0.00000  Uiso   1.00
N272   N     0.62370   0.44689   0.74187   0.00000  Uiso   1.00
N273   N     0.21162   0.72065   0.67398   0.00000  Uiso   1.00
N274   N     0.48969   0.93005   0.54096   0.00000  Uiso   1.00
N275   N     0.58431   0.36903   0.68016   0.00000  Uiso   1.00
N276   N     0.17223   0.64279   0.61228   0.00000  Uiso   1.00
C277   C     0.04175   0.23205   0.82174   0.00000  Uiso   1.00
C278   C     0.03187   0.28905   0.85766   0.00000  Uiso   1.00
C279   C     0.00160   0.38035   0.85348   0.00000  Uiso   1.00
C280   C     0.99738   0.42020   0.89016   0.00000  Uiso   1.00
C281   C     0.97818   0.51626   0.93992   0.00000  Uiso   1.00
C282   C     0.00578   0.13444   0.81929   0.00000  Uiso   1.00
C283   C     0.95359   0.09573   0.78286   0.00000  Uiso   1.00
C284   C     0.92742   0.00542   0.78724   0.00000  Uiso   1.00
C285   C     0.86774   0.86140   0.77744   0.00000  Uiso   1.00
C286   C     0.11935   0.20990   0.83801   0.00000  Uiso   1.00
C287   C     0.16265   0.23462   0.81730   0.00000  Uiso   1.00
C288   C     0.23209   0.20782   0.83743   0.00000  Uiso   1.00
C289   C     0.34875   0.18097   0.85668   0.00000  Uiso   1.00
C290   C     0.08808   0.14048   0.89431   0.00000  Uiso   1.00
C291   C     0.05703   0.23931   0.89707   0.00000  Uiso   1.00
C292   C     0.05286   0.27904   0.93377   0.00000  Uiso   1.00
C293   C     0.02260   0.37038   0.92964   0.00000  Uiso   1.00
C294   C     0.03094   0.08470   0.85871   0.00000  Uiso   1.00
C295   C     0.00484   0.99442   0.86315   0.00000  Uiso   1.00
C296   C     0.95262   0.95559   0.82673   0.00000  Uiso   1.00
C297   C     0.14451   0.16017   0.87742   0.00000  Uiso   1.00
C298   C     0.21390   0.13332   0.89759   0.00000  Uiso   1.00
C299   C     0.25730   0.15799   0.87692   0.00000  Uiso   1.00
H300   H     0.02216   0.27076   0.79106   0.00000  Uiso   1.00
H301   H     0.98213   0.41881   0.82297   0.00000  Uiso   1.00
H302   H     0.93413   0.13423   0.75236   0.00000  Uiso   1.00
H303   H     0.14315   0.27311   0.78680   0.00000  Uiso   1.00
H304   H     0.94883   0.56100   0.87573   0.00000  Uiso   1.00
H305   H     0.84763   0.96094   0.72684   0.00000  Uiso   1.00
H306   H     0.28840   0.25378   0.79946   0.00000  Uiso   1.00
H307   H     0.10767   0.10176   0.92500   0.00000  Uiso   1.00
H308   H     0.07234   0.24053   0.96426   0.00000  Uiso   1.00
H309   H     0.02433   0.95595   0.89365   0.00000  Uiso   1.00
H310   H     0.23336   0.09483   0.92809   0.00000  Uiso   1.00
H311   H     0.02204   0.41630   0.99041   0.00000  Uiso   1.00
H312   H     0.92084   0.81623   0.84152   0.00000  Uiso   1.00
H313   H     0.36161   0.10908   0.91413   0.00000  Uiso   1.00
O314   O     0.96062   0.58297   0.95648   0.00000  Uiso   1.00
O315   O     0.82787   0.79571   0.76114   0.00000  Uiso   1.00
O316   O     0.40615   0.17992   0.85641   0.00000  Uiso   1.00
N317   N     0.97092   0.50791   0.89734   0.00000  Uiso   1.00
N318   N     0.87630   0.94689   0.75813   0.00000  Uiso   1.00
N319   N     0.28838   0.22065   0.82602   0.00000  Uiso   1.00
N320   N     0.01031   0.43005   0.95904   0.00000  Uiso   1.00
N321   N     0.91569   0.86903   0.81984   0.00000  Uiso   1.00
N322   N     0.32777   0.14279   0.88772   0.00000  Uiso   1.00
C323   C     0.54175   0.73205   0.82174   0.00000  Uiso   1.00
C324   C     0.53187   0.78905   0.85766   0.00000  Uiso   1.00
C325   C     0.50160   0.88035   0.85348   0.00000  Uiso   1.00
C326   C     0.49738   0.92020   0.89016   0.00000  Uiso   1.00
C327   C     0.47818   0.01626   0.93992   0.00000  Uiso   1.00
C328   C     0.50578   0.63444   0.81929   0.00000  Uiso   1.00
C329   C     0.45359   0.59573   0.78286   0.00000  Uiso   1.00
C330   C     0.42742   0.50542   0.78724   0.00000  Uiso   1.00
C331   C     0.36774   0.36140   0.77744   0.00000  Uiso   1.00
C332   C     0.61935   0.70990   0.83801   0.00000  Uiso   1.00
C333   C     0.66265   0.73462   0.81730   0.00000  Uiso   1.00
C334   C     0.73209   0.70782   0.83743   0.00000  Uiso   1.00
C335   C     0.84875   0.68097   0.85668   0.00000  Uiso   1.00
C336   C     0.58808   0.64048   0.89431   0.00000  Uiso   1.00
C337   C     0.55703   0.73931   0.89707   0.00000  Uiso   1.00
C338   C     0.55286   0.77904   0.93377   0.00000  Uiso   1.00
C339   C     0.52260   0.87038   0.92964   0.00000  Uiso   1.00
C340   C     0.53094   0.58470   0.85871   0.00000  Uiso   1.00
C341   C     0.50484   0.49442   0.86315   0.00000  Uiso   1.00
C342   C     0.45262   0.45559   0.82673   0.00000  Uiso   1.00
C343   C     0.64451   0.66017   0.87742   0.00000  Uiso   1.00
C344   C     0.71390   0.63332   0.89759   0.00000  Uiso   1.00
C345   C     0.75730   0.65799   0.87692   0.00000  Uiso   1.00
H346   H     0.52216   0.77076   0.79106   0.00000  Uiso   1.00
H347   H     0.48213   0.91881   0.82297   0.00000  Uiso   1.00
H348   H     0.43413   0.63423   0.75236   0.00000  Uiso   1.00
H349   H     0.64315   0.77311   0.78680   0.00000  Uiso   1.00
H350   H     0.44883   0.06100   0.87573   0.00000  Uiso   1.00
H351   H     0.34763   0.46094   0.72684   0.00000  Uiso   1.00
H352   H     0.78840   0.75378   0.79946   0.00000  Uiso   1.00
H353   H     0.60767   0.60176   0.92500   0.00000  Uiso   1.00
H354   H     0.57234   0.74053   0.96426   0.00000  Uiso   1.00
H355   H     0.52433   0.45595   0.89365   0.00000  Uiso   1.00
H356   H     0.73336   0.59483   0.92809   0.00000  Uiso   1.00
H357   H     0.52204   0.91630   0.99041   0.00000  Uiso   1.00
H358   H     0.42084   0.31623   0.84152   0.00000  Uiso   1.00
H359   H     0.86161   0.60908   0.91413   0.00000  Uiso   1.00
O360   O     0.46062   0.08297   0.95648   0.00000  Uiso   1.00
O361   O     0.32787   0.29571   0.76114   0.00000  Uiso   1.00
O362   O     0.90615   0.67992   0.85641   0.00000  Uiso   1.00
N363   N     0.47092   0.00791   0.89734   0.00000  Uiso   1.00
N364   N     0.37630   0.44689   0.75813   0.00000  Uiso   1.00
N365   N     0.78838   0.72065   0.82602   0.00000  Uiso   1.00
N366   N     0.51031   0.93005   0.95904   0.00000  Uiso   1.00
N367   N     0.41569   0.36903   0.81984   0.00000  Uiso   1.00
N368   N     0.82777   0.64279   0.88772   0.00000  Uiso   1.00
