data_job_01012
_audit_creation_date              2018-12-19
_audit_creation_method            'Materials Studio'
_symmetry_space_group_name_H-M    'P1'
_symmetry_Int_Tables_number       1
_symmetry_cell_setting            triclinic
loop_
_symmetry_equiv_pos_as_xyz
  x,y,z
_cell_length_a                    29.1722
_cell_length_b                    12.3878
_cell_length_c                    13.1160
_cell_angle_alpha                 90.0000
_cell_angle_beta                  90.0000
_cell_angle_gamma                 90.0000
loop_
_atom_site_label
_atom_site_type_symbol
_atom_site_fract_x
_atom_site_fract_y
_atom_site_fract_z
_atom_site_U_iso_or_equiv
_atom_site_adp_type
_atom_site_occupancy
C1     C     0.84846   0.08018   0.63439   0.00000  Uiso   1.00
C2     C     0.87210   0.18973   0.64124   0.00000  Uiso   1.00
C3     C     0.88440   0.25427   0.55920   0.00000  Uiso   1.00
C4     C     0.90573   0.35166   0.58142   0.00000  Uiso   1.00
C5     C     0.94114   0.51694   0.57674   0.00000  Uiso   1.00
C6     C     0.87937   0.00102   0.69098   0.00000  Uiso   1.00
C7     C     0.89777   0.90689   0.65076   0.00000  Uiso   1.00
C8     C     0.92522   0.84541   0.71485   0.00000  Uiso   1.00
C9     C     0.97188   0.71767   0.78740   0.00000  Uiso   1.00
C10    C     0.80489   0.08964   0.69798   0.00000  Uiso   1.00
C11    C     0.76066   0.07001   0.66367   0.00000  Uiso   1.00
C12    C     0.72540   0.08313   0.73368   0.00000  Uiso   1.00
C13    C     0.65641   0.09299   0.81711   0.00000  Uiso   1.00
C14    C     0.86447   0.13835   0.81975   0.00000  Uiso   1.00
C15    C     0.88080   0.22132   0.74192   0.00000  Uiso   1.00
C16    C     0.90211   0.31864   0.76427   0.00000  Uiso   1.00
C17    C     0.91444   0.38332   0.68228   0.00000  Uiso   1.00
C18    C     0.88807   0.03261   0.79165   0.00000  Uiso   1.00
C19    C     0.91549   0.97126   0.85582   0.00000  Uiso   1.00
C20    C     0.93393   0.87707   0.81571   0.00000  Uiso   1.00
C21    C     0.81358   0.12124   0.79866   0.00000  Uiso   1.00
C22    C     0.77838   0.13438   0.86874   0.00000  Uiso   1.00
C23    C     0.73411   0.11478   0.83453   0.00000  Uiso   1.00
H24    H     0.84169   0.05557   0.55602   0.00000  Uiso   1.00
H25    H     0.87767   0.22979   0.48130   0.00000  Uiso   1.00
H26    H     0.89104   0.88245   0.57285   0.00000  Uiso   1.00
H27    H     0.75395   0.04556   0.58576   0.00000  Uiso   1.00
H28    H     0.92140   0.43686   0.44286   0.00000  Uiso   1.00
H29    H     0.94958   0.70447   0.63590   0.00000  Uiso   1.00
H30    H     0.66050   0.04839   0.66312   0.00000  Uiso   1.00
H31    H     0.87124   0.16295   0.89813   0.00000  Uiso   1.00
H32    H     0.90884   0.34307   0.84219   0.00000  Uiso   1.00
H33    H     0.92221   0.99573   0.93373   0.00000  Uiso   1.00
H34    H     0.78512   0.15884   0.94664   0.00000  Uiso   1.00
H35    H     0.94671   0.52880   0.73577   0.00000  Uiso   1.00
H36    H     0.97488   0.79640   0.92881   0.00000  Uiso   1.00
H37    H     0.68580   0.14034   0.95603   0.00000  Uiso   1.00
O38    O     0.95827   0.59936   0.54634   0.00000  Uiso   1.00
O39    O     0.99522   0.63848   0.79960   0.00000  Uiso   1.00
O40    O     0.61596   0.08972   0.83531   0.00000  Uiso   1.00
N41    N     0.92219   0.43379   0.51948   0.00000  Uiso   1.00
N42    N     0.94854   0.74905   0.69995   0.00000  Uiso   1.00
N43    N     0.67827   0.07057   0.72541   0.00000  Uiso   1.00
N44    N     0.93581   0.48326   0.67709   0.00000  Uiso   1.00
N45    N     0.96215   0.79853   0.85756   0.00000  Uiso   1.00
N46    N     0.69189   0.12004   0.88302   0.00000  Uiso   1.00
C47    C     0.34846   0.58018   0.13439   0.00000  Uiso   1.00
C48    C     0.37210   0.68973   0.14124   0.00000  Uiso   1.00
C49    C     0.38440   0.75427   0.05920   0.00000  Uiso   1.00
C50    C     0.40573   0.85166   0.08142   0.00000  Uiso   1.00
C51    C     0.44114   0.01694   0.07674   0.00000  Uiso   1.00
C52    C     0.37937   0.50102   0.19098   0.00000  Uiso   1.00
C53    C     0.39777   0.40689   0.15076   0.00000  Uiso   1.00
C54    C     0.42522   0.34541   0.21485   0.00000  Uiso   1.00
C55    C     0.47188   0.21767   0.28740   0.00000  Uiso   1.00
C56    C     0.30489   0.58964   0.19798   0.00000  Uiso   1.00
C57    C     0.26066   0.57001   0.16367   0.00000  Uiso   1.00
C58    C     0.22540   0.58313   0.23368   0.00000  Uiso   1.00
C59    C     0.15641   0.59299   0.31711   0.00000  Uiso   1.00
C60    C     0.36447   0.63835   0.31975   0.00000  Uiso   1.00
C61    C     0.38080   0.72132   0.24192   0.00000  Uiso   1.00
C62    C     0.40211   0.81864   0.26427   0.00000  Uiso   1.00
C63    C     0.41444   0.88332   0.18228   0.00000  Uiso   1.00
C64    C     0.38807   0.53261   0.29165   0.00000  Uiso   1.00
C65    C     0.41549   0.47126   0.35582   0.00000  Uiso   1.00
C66    C     0.43393   0.37707   0.31571   0.00000  Uiso   1.00
C67    C     0.31358   0.62124   0.29866   0.00000  Uiso   1.00
C68    C     0.27838   0.63438   0.36874   0.00000  Uiso   1.00
C69    C     0.23411   0.61478   0.33453   0.00000  Uiso   1.00
H70    H     0.34169   0.55557   0.05602   0.00000  Uiso   1.00
H71    H     0.37767   0.72979   0.98130   0.00000  Uiso   1.00
H72    H     0.39104   0.38245   0.07285   0.00000  Uiso   1.00
H73    H     0.25395   0.54556   0.08576   0.00000  Uiso   1.00
H74    H     0.42140   0.93686   0.94286   0.00000  Uiso   1.00
H75    H     0.44958   0.20447   0.13590   0.00000  Uiso   1.00
H76    H     0.16050   0.54839   0.16312   0.00000  Uiso   1.00
H77    H     0.37124   0.66295   0.39813   0.00000  Uiso   1.00
H78    H     0.40884   0.84307   0.34219   0.00000  Uiso   1.00
H79    H     0.42221   0.49573   0.43373   0.00000  Uiso   1.00
H80    H     0.28512   0.65884   0.44664   0.00000  Uiso   1.00
H81    H     0.44671   0.02880   0.23577   0.00000  Uiso   1.00
H82    H     0.47488   0.29640   0.42881   0.00000  Uiso   1.00
H83    H     0.18580   0.64034   0.45603   0.00000  Uiso   1.00
O84    O     0.45827   0.09936   0.04634   0.00000  Uiso   1.00
O85    O     0.49522   0.13848   0.29960   0.00000  Uiso   1.00
O86    O     0.11596   0.58972   0.33531   0.00000  Uiso   1.00
N87    N     0.42219   0.93379   0.01948   0.00000  Uiso   1.00
N88    N     0.44854   0.24905   0.19995   0.00000  Uiso   1.00
N89    N     0.17827   0.57057   0.22541   0.00000  Uiso   1.00
N90    N     0.43581   0.98326   0.17709   0.00000  Uiso   1.00
N91    N     0.46215   0.29853   0.35756   0.00000  Uiso   1.00
N92    N     0.19189   0.62004   0.38302   0.00000  Uiso   1.00
C93    C     0.15154   0.91982   0.63439   0.00000  Uiso   1.00
C94    C     0.12790   0.81027   0.64124   0.00000  Uiso   1.00
C95    C     0.11560   0.74573   0.55920   0.00000  Uiso   1.00
C96    C     0.09427   0.64834   0.58142   0.00000  Uiso   1.00
C97    C     0.05886   0.48306   0.57674   0.00000  Uiso   1.00
C98    C     0.12063   0.99898   0.69098   0.00000  Uiso   1.00
C99    C     0.10223   0.09311   0.65076   0.00000  Uiso   1.00
C100   C     0.07478   0.15459   0.71485   0.00000  Uiso   1.00
C101   C     0.02812   0.28233   0.78740   0.00000  Uiso   1.00
C102   C     0.19511   0.91036   0.69798   0.00000  Uiso   1.00
C103   C     0.23934   0.92999   0.66367   0.00000  Uiso   1.00
C104   C     0.27460   0.91687   0.73368   0.00000  Uiso   1.00
C105   C     0.34359   0.90701   0.81711   0.00000  Uiso   1.00
C106   C     0.13553   0.86165   0.81975   0.00000  Uiso   1.00
C107   C     0.11920   0.77868   0.74192   0.00000  Uiso   1.00
C108   C     0.09789   0.68136   0.76427   0.00000  Uiso   1.00
C109   C     0.08556   0.61668   0.68228   0.00000  Uiso   1.00
C110   C     0.11193   0.96739   0.79165   0.00000  Uiso   1.00
C111   C     0.08451   0.02874   0.85582   0.00000  Uiso   1.00
C112   C     0.06607   0.12293   0.81571   0.00000  Uiso   1.00
C113   C     0.18642   0.87876   0.79866   0.00000  Uiso   1.00
C114   C     0.22162   0.86562   0.86874   0.00000  Uiso   1.00
C115   C     0.26589   0.88522   0.83453   0.00000  Uiso   1.00
H116   H     0.15831   0.94443   0.55602   0.00000  Uiso   1.00
H117   H     0.12233   0.77021   0.48130   0.00000  Uiso   1.00
H118   H     0.10896   0.11755   0.57285   0.00000  Uiso   1.00
H119   H     0.24605   0.95444   0.58576   0.00000  Uiso   1.00
H120   H     0.07860   0.56314   0.44286   0.00000  Uiso   1.00
H121   H     0.05042   0.29553   0.63590   0.00000  Uiso   1.00
H122   H     0.33950   0.95161   0.66312   0.00000  Uiso   1.00
H123   H     0.12876   0.83705   0.89813   0.00000  Uiso   1.00
H124   H     0.09116   0.65693   0.84219   0.00000  Uiso   1.00
H125   H     0.07779   0.00427   0.93373   0.00000  Uiso   1.00
H126   H     0.21488   0.84116   0.94664   0.00000  Uiso   1.00
H127   H     0.05329   0.47120   0.73577   0.00000  Uiso   1.00
H128   H     0.02512   0.20360   0.92881   0.00000  Uiso   1.00
H129   H     0.31420   0.85966   0.95603   0.00000  Uiso   1.00
O130   O     0.04173   0.40064   0.54634   0.00000  Uiso   1.00
O131   O     0.00478   0.36152   0.79960   0.00000  Uiso   1.00
O132   O     0.38404   0.91028   0.83531   0.00000  Uiso   1.00
N133   N     0.07781   0.56621   0.51948   0.00000  Uiso   1.00
N134   N     0.05146   0.25095   0.69995   0.00000  Uiso   1.00
N135   N     0.32173   0.92943   0.72541   0.00000  Uiso   1.00
N136   N     0.06419   0.51674   0.67709   0.00000  Uiso   1.00
N137   N     0.03785   0.20147   0.85756   0.00000  Uiso   1.00
N138   N     0.30811   0.87996   0.88302   0.00000  Uiso   1.00
C139   C     0.65154   0.41982   0.13439   0.00000  Uiso   1.00
C140   C     0.62790   0.31027   0.14124   0.00000  Uiso   1.00
C141   C     0.61560   0.24573   0.05920   0.00000  Uiso   1.00
C142   C     0.59427   0.14834   0.08142   0.00000  Uiso   1.00
C143   C     0.55886   0.98306   0.07674   0.00000  Uiso   1.00
C144   C     0.62063   0.49898   0.19098   0.00000  Uiso   1.00
C145   C     0.60223   0.59311   0.15076   0.00000  Uiso   1.00
C146   C     0.57478   0.65459   0.21485   0.00000  Uiso   1.00
C147   C     0.52812   0.78233   0.28740   0.00000  Uiso   1.00
C148   C     0.69511   0.41036   0.19798   0.00000  Uiso   1.00
C149   C     0.73934   0.42999   0.16367   0.00000  Uiso   1.00
C150   C     0.77460   0.41687   0.23368   0.00000  Uiso   1.00
C151   C     0.84359   0.40701   0.31711   0.00000  Uiso   1.00
C152   C     0.63553   0.36165   0.31975   0.00000  Uiso   1.00
C153   C     0.61920   0.27868   0.24192   0.00000  Uiso   1.00
C154   C     0.59789   0.18136   0.26427   0.00000  Uiso   1.00
C155   C     0.58556   0.11668   0.18228   0.00000  Uiso   1.00
C156   C     0.61193   0.46739   0.29165   0.00000  Uiso   1.00
C157   C     0.58451   0.52874   0.35582   0.00000  Uiso   1.00
C158   C     0.56607   0.62293   0.31571   0.00000  Uiso   1.00
C159   C     0.68642   0.37876   0.29866   0.00000  Uiso   1.00
C160   C     0.72162   0.36562   0.36874   0.00000  Uiso   1.00
C161   C     0.76589   0.38522   0.33453   0.00000  Uiso   1.00
H162   H     0.65831   0.44443   0.05602   0.00000  Uiso   1.00
H163   H     0.62233   0.27021   0.98130   0.00000  Uiso   1.00
H164   H     0.60896   0.61755   0.07285   0.00000  Uiso   1.00
H165   H     0.74605   0.45444   0.08576   0.00000  Uiso   1.00
H166   H     0.57860   0.06314   0.94286   0.00000  Uiso   1.00
H167   H     0.55042   0.79553   0.13590   0.00000  Uiso   1.00
H168   H     0.83950   0.45161   0.16312   0.00000  Uiso   1.00
H169   H     0.62876   0.33705   0.39813   0.00000  Uiso   1.00
H170   H     0.59116   0.15693   0.34219   0.00000  Uiso   1.00
H171   H     0.57779   0.50427   0.43373   0.00000  Uiso   1.00
H172   H     0.71488   0.34116   0.44664   0.00000  Uiso   1.00
H173   H     0.55329   0.97120   0.23577   0.00000  Uiso   1.00
H174   H     0.52512   0.70360   0.42881   0.00000  Uiso   1.00
H175   H     0.81420   0.35966   0.45603   0.00000  Uiso   1.00
O176   O     0.54173   0.90064   0.04634   0.00000  Uiso   1.00
O177   O     0.50478   0.86152   0.29960   0.00000  Uiso   1.00
O178   O     0.88404   0.41028   0.33531   0.00000  Uiso   1.00
N179   N     0.57781   0.06621   0.01948   0.00000  Uiso   1.00
N180   N     0.55146   0.75095   0.19995   0.00000  Uiso   1.00
N181   N     0.82173   0.42943   0.22541   0.00000  Uiso   1.00
N182   N     0.56419   0.01674   0.17709   0.00000  Uiso   1.00
N183   N     0.53785   0.70147   0.35756   0.00000  Uiso   1.00
N184   N     0.80811   0.37996   0.38302   0.00000  Uiso   1.00
C185   C     0.34846   0.41982   0.63439   0.00000  Uiso   1.00
C186   C     0.37210   0.31027   0.64124   0.00000  Uiso   1.00
C187   C     0.38440   0.24573   0.55920   0.00000  Uiso   1.00
C188   C     0.40573   0.14834   0.58142   0.00000  Uiso   1.00
C189   C     0.44114   0.98306   0.57674   0.00000  Uiso   1.00
C190   C     0.37937   0.49898   0.69098   0.00000  Uiso   1.00
C191   C     0.39777   0.59311   0.65076   0.00000  Uiso   1.00
C192   C     0.42522   0.65459   0.71485   0.00000  Uiso   1.00
C193   C     0.47188   0.78233   0.78740   0.00000  Uiso   1.00
C194   C     0.30489   0.41036   0.69798   0.00000  Uiso   1.00
C195   C     0.26066   0.42999   0.66367   0.00000  Uiso   1.00
C196   C     0.22540   0.41687   0.73368   0.00000  Uiso   1.00
C197   C     0.15641   0.40701   0.81711   0.00000  Uiso   1.00
C198   C     0.36447   0.36165   0.81975   0.00000  Uiso   1.00
C199   C     0.38080   0.27868   0.74192   0.00000  Uiso   1.00
C200   C     0.40211   0.18136   0.76427   0.00000  Uiso   1.00
C201   C     0.41444   0.11668   0.68228   0.00000  Uiso   1.00
C202   C     0.38807   0.46739   0.79165   0.00000  Uiso   1.00
C203   C     0.41549   0.52874   0.85582   0.00000  Uiso   1.00
C204   C     0.43393   0.62293   0.81571   0.00000  Uiso   1.00
C205   C     0.31358   0.37876   0.79866   0.00000  Uiso   1.00
C206   C     0.27838   0.36562   0.86874   0.00000  Uiso   1.00
C207   C     0.23411   0.38522   0.83453   0.00000  Uiso   1.00
H208   H     0.34169   0.44443   0.55602   0.00000  Uiso   1.00
H209   H     0.37767   0.27021   0.48130   0.00000  Uiso   1.00
H210   H     0.39104   0.61755   0.57285   0.00000  Uiso   1.00
H211   H     0.25395   0.45444   0.58576   0.00000  Uiso   1.00
H212   H     0.42140   0.06314   0.44286   0.00000  Uiso   1.00
H213   H     0.44958   0.79553   0.63590   0.00000  Uiso   1.00
H214   H     0.16050   0.45161   0.66312   0.00000  Uiso   1.00
H215   H     0.37124   0.33705   0.89813   0.00000  Uiso   1.00
H216   H     0.40884   0.15693   0.84219   0.00000  Uiso   1.00
H217   H     0.42221   0.50427   0.93373   0.00000  Uiso   1.00
H218   H     0.28512   0.34116   0.94664   0.00000  Uiso   1.00
H219   H     0.44671   0.97120   0.73577   0.00000  Uiso   1.00
H220   H     0.47488   0.70360   0.92881   0.00000  Uiso   1.00
H221   H     0.18580   0.35966   0.95603   0.00000  Uiso   1.00
O222   O     0.45827   0.90064   0.54634   0.00000  Uiso   1.00
O223   O     0.49522   0.86152   0.79960   0.00000  Uiso   1.00
O224   O     0.11596   0.41028   0.83531   0.00000  Uiso   1.00
N225   N     0.42219   0.06621   0.51948   0.00000  Uiso   1.00
N226   N     0.44854   0.75095   0.69995   0.00000  Uiso   1.00
N227   N     0.17827   0.42943   0.72541   0.00000  Uiso   1.00
N228   N     0.43581   0.01674   0.67709   0.00000  Uiso   1.00
N229   N     0.46215   0.70147   0.85756   0.00000  Uiso   1.00
N230   N     0.19189   0.37996   0.88302   0.00000  Uiso   1.00
C231   C     0.84846   0.91982   0.13439   0.00000  Uiso   1.00
C232   C     0.87210   0.81027   0.14124   0.00000  Uiso   1.00
C233   C     0.88440   0.74573   0.05920   0.00000  Uiso   1.00
C234   C     0.90573   0.64834   0.08142   0.00000  Uiso   1.00
C235   C     0.94114   0.48306   0.07674   0.00000  Uiso   1.00
C236   C     0.87937   0.99898   0.19098   0.00000  Uiso   1.00
C237   C     0.89777   0.09311   0.15076   0.00000  Uiso   1.00
C238   C     0.92522   0.15459   0.21485   0.00000  Uiso   1.00
C239   C     0.97188   0.28233   0.28740   0.00000  Uiso   1.00
C240   C     0.80489   0.91036   0.19798   0.00000  Uiso   1.00
C241   C     0.76066   0.92999   0.16367   0.00000  Uiso   1.00
C242   C     0.72540   0.91687   0.23368   0.00000  Uiso   1.00
C243   C     0.65641   0.90701   0.31711   0.00000  Uiso   1.00
C244   C     0.86447   0.86165   0.31975   0.00000  Uiso   1.00
C245   C     0.88080   0.77868   0.24192   0.00000  Uiso   1.00
C246   C     0.90211   0.68136   0.26427   0.00000  Uiso   1.00
C247   C     0.91444   0.61668   0.18228   0.00000  Uiso   1.00
C248   C     0.88807   0.96739   0.29165   0.00000  Uiso   1.00
C249   C     0.91549   0.02874   0.35582   0.00000  Uiso   1.00
C250   C     0.93393   0.12293   0.31571   0.00000  Uiso   1.00
C251   C     0.81358   0.87876   0.29866   0.00000  Uiso   1.00
C252   C     0.77838   0.86562   0.36874   0.00000  Uiso   1.00
C253   C     0.73411   0.88522   0.33453   0.00000  Uiso   1.00
H254   H     0.84169   0.94443   0.05602   0.00000  Uiso   1.00
H255   H     0.87767   0.77021   0.98130   0.00000  Uiso   1.00
H256   H     0.89104   0.11755   0.07285   0.00000  Uiso   1.00
H257   H     0.75395   0.95444   0.08576   0.00000  Uiso   1.00
H258   H     0.92140   0.56314   0.94286   0.00000  Uiso   1.00
H259   H     0.94958   0.29553   0.13590   0.00000  Uiso   1.00
H260   H     0.66050   0.95161   0.16312   0.00000  Uiso   1.00
H261   H     0.87124   0.83705   0.39813   0.00000  Uiso   1.00
H262   H     0.90884   0.65693   0.34219   0.00000  Uiso   1.00
H263   H     0.92221   0.00427   0.43373   0.00000  Uiso   1.00
H264   H     0.78512   0.84116   0.44664   0.00000  Uiso   1.00
H265   H     0.94671   0.47120   0.23577   0.00000  Uiso   1.00
H266   H     0.97488   0.20360   0.42881   0.00000  Uiso   1.00
H267   H     0.68580   0.85966   0.45603   0.00000  Uiso   1.00
O268   O     0.95827   0.40064   0.04634   0.00000  Uiso   1.00
O269   O     0.99522   0.36152   0.29960   0.00000  Uiso   1.00
O270   O     0.61596   0.91028   0.33531   0.00000  Uiso   1.00
N271   N     0.92219   0.56621   0.01948   0.00000  Uiso   1.00
N272   N     0.94854   0.25095   0.19995   0.00000  Uiso   1.00
N273   N     0.67827   0.92943   0.22541   0.00000  Uiso   1.00
N274   N     0.93581   0.51674   0.17709   0.00000  Uiso   1.00
N275   N     0.96215   0.20147   0.35756   0.00000  Uiso   1.00
N276   N     0.69189   0.87996   0.38302   0.00000  Uiso   1.00
C277   C     0.65154   0.58018   0.63439   0.00000  Uiso   1.00
C278   C     0.62790   0.68973   0.64124   0.00000  Uiso   1.00
C279   C     0.61560   0.75427   0.55920   0.00000  Uiso   1.00
C280   C     0.59427   0.85166   0.58142   0.00000  Uiso   1.00
C281   C     0.55886   0.01694   0.57674   0.00000  Uiso   1.00
C282   C     0.62063   0.50102   0.69098   0.00000  Uiso   1.00
C283   C     0.60223   0.40689   0.65076   0.00000  Uiso   1.00
C284   C     0.57478   0.34541   0.71485   0.00000  Uiso   1.00
C285   C     0.52812   0.21767   0.78740   0.00000  Uiso   1.00
C286   C     0.69511   0.58964   0.69798   0.00000  Uiso   1.00
C287   C     0.73934   0.57001   0.66367   0.00000  Uiso   1.00
C288   C     0.77460   0.58313   0.73368   0.00000  Uiso   1.00
C289   C     0.84359   0.59299   0.81711   0.00000  Uiso   1.00
C290   C     0.63553   0.63835   0.81975   0.00000  Uiso   1.00
C291   C     0.61920   0.72132   0.74192   0.00000  Uiso   1.00
C292   C     0.59789   0.81864   0.76427   0.00000  Uiso   1.00
C293   C     0.58556   0.88332   0.68228   0.00000  Uiso   1.00
C294   C     0.61193   0.53261   0.79165   0.00000  Uiso   1.00
C295   C     0.58451   0.47126   0.85582   0.00000  Uiso   1.00
C296   C     0.56607   0.37707   0.81571   0.00000  Uiso   1.00
C297   C     0.68642   0.62124   0.79866   0.00000  Uiso   1.00
C298   C     0.72162   0.63438   0.86874   0.00000  Uiso   1.00
C299   C     0.76589   0.61478   0.83453   0.00000  Uiso   1.00
H300   H     0.65831   0.55557   0.55602   0.00000  Uiso   1.00
H301   H     0.62233   0.72979   0.48130   0.00000  Uiso   1.00
H302   H     0.60896   0.38245   0.57285   0.00000  Uiso   1.00
H303   H     0.74605   0.54556   0.58576   0.00000  Uiso   1.00
H304   H     0.57860   0.93686   0.44286   0.00000  Uiso   1.00
H305   H     0.55042   0.20447   0.63590   0.00000  Uiso   1.00
H306   H     0.83950   0.54839   0.66312   0.00000  Uiso   1.00
H307   H     0.62876   0.66295   0.89813   0.00000  Uiso   1.00
H308   H     0.59116   0.84307   0.84219   0.00000  Uiso   1.00
H309   H     0.57779   0.49573   0.93373   0.00000  Uiso   1.00
H310   H     0.71488   0.65884   0.94664   0.00000  Uiso   1.00
H311   H     0.55329   0.02880   0.73577   0.00000  Uiso   1.00
H312   H     0.52512   0.29640   0.92881   0.00000  Uiso   1.00
H313   H     0.81420   0.64034   0.95603   0.00000  Uiso   1.00
O314   O     0.54173   0.09936   0.54634   0.00000  Uiso   1.00
O315   O     0.50478   0.13848   0.79960   0.00000  Uiso   1.00
O316   O     0.88404   0.58972   0.83531   0.00000  Uiso   1.00
N317   N     0.57781   0.93379   0.51948   0.00000  Uiso   1.00
N318   N     0.55146   0.24905   0.69995   0.00000  Uiso   1.00
N319   N     0.82173   0.57057   0.72541   0.00000  Uiso   1.00
N320   N     0.56419   0.98326   0.67709   0.00000  Uiso   1.00
N321   N     0.53785   0.29853   0.85756   0.00000  Uiso   1.00
N322   N     0.80811   0.62004   0.88302   0.00000  Uiso   1.00
C323   C     0.15154   0.08018   0.13439   0.00000  Uiso   1.00
C324   C     0.12790   0.18973   0.14124   0.00000  Uiso   1.00
C325   C     0.11560   0.25427   0.05920   0.00000  Uiso   1.00
C326   C     0.09427   0.35166   0.08142   0.00000  Uiso   1.00
C327   C     0.05886   0.51694   0.07674   0.00000  Uiso   1.00
C328   C     0.12063   0.00102   0.19098   0.00000  Uiso   1.00
C329   C     0.10223   0.90689   0.15076   0.00000  Uiso   1.00
C330   C     0.07478   0.84541   0.21485   0.00000  Uiso   1.00
C331   C     0.02812   0.71767   0.28740   0.00000  Uiso   1.00
C332   C     0.19511   0.08964   0.19798   0.00000  Uiso   1.00
C333   C     0.23934   0.07001   0.16367   0.00000  Uiso   1.00
C334   C     0.27460   0.08313   0.23368   0.00000  Uiso   1.00
C335   C     0.34359   0.09299   0.31711   0.00000  Uiso   1.00
C336   C     0.13553   0.13835   0.31975   0.00000  Uiso   1.00
C337   C     0.11920   0.22132   0.24192   0.00000  Uiso   1.00
C338   C     0.09789   0.31864   0.26427   0.00000  Uiso   1.00
C339   C     0.08556   0.38332   0.18228   0.00000  Uiso   1.00
C340   C     0.11193   0.03261   0.29165   0.00000  Uiso   1.00
C341   C     0.08451   0.97126   0.35582   0.00000  Uiso   1.00
C342   C     0.06607   0.87707   0.31571   0.00000  Uiso   1.00
C343   C     0.18642   0.12124   0.29866   0.00000  Uiso   1.00
C344   C     0.22162   0.13438   0.36874   0.00000  Uiso   1.00
C345   C     0.26589   0.11478   0.33453   0.00000  Uiso   1.00
H346   H     0.15831   0.05557   0.05602   0.00000  Uiso   1.00
H347   H     0.12233   0.22979   0.98130   0.00000  Uiso   1.00
H348   H     0.10896   0.88245   0.07285   0.00000  Uiso   1.00
H349   H     0.24605   0.04556   0.08576   0.00000  Uiso   1.00
H350   H     0.07860   0.43686   0.94286   0.00000  Uiso   1.00
H351   H     0.05042   0.70447   0.13590   0.00000  Uiso   1.00
H352   H     0.33950   0.04839   0.16312   0.00000  Uiso   1.00
H353   H     0.12876   0.16295   0.39813   0.00000  Uiso   1.00
H354   H     0.09116   0.34307   0.34219   0.00000  Uiso   1.00
H355   H     0.07779   0.99573   0.43373   0.00000  Uiso   1.00
H356   H     0.21488   0.15884   0.44664   0.00000  Uiso   1.00
H357   H     0.05329   0.52880   0.23577   0.00000  Uiso   1.00
H358   H     0.02512   0.79640   0.42881   0.00000  Uiso   1.00
H359   H     0.31420   0.14034   0.45603   0.00000  Uiso   1.00
O360   O     0.04173   0.59936   0.04634   0.00000  Uiso   1.00
O361   O     0.00478   0.63848   0.29960   0.00000  Uiso   1.00
O362   O     0.38404   0.08972   0.33531   0.00000  Uiso   1.00
N363   N     0.07781   0.43379   0.01948   0.00000  Uiso   1.00
N364   N     0.05146   0.74905   0.19995   0.00000  Uiso   1.00
N365   N     0.32173   0.07057   0.22541   0.00000  Uiso   1.00
N366   N     0.06419   0.48326   0.17709   0.00000  Uiso   1.00
N367   N     0.03785   0.79853   0.35756   0.00000  Uiso   1.00
N368   N     0.30811   0.12004   0.38302   0.00000  Uiso   1.00
