data_job_03718
_audit_creation_date              2018-12-19
_audit_creation_method            'Materials Studio'
_symmetry_space_group_name_H-M    'P1'
_symmetry_Int_Tables_number       1
_symmetry_cell_setting            triclinic
loop_
_symmetry_equiv_pos_as_xyz
  x,y,z
_cell_length_a                    7.6268
_cell_length_b                    9.8287
_cell_length_c                    32.7834
_cell_angle_alpha                 90.0000
_cell_angle_beta                  85.1845
_cell_angle_gamma                 90.0000
loop_
_atom_site_label
_atom_site_type_symbol
_atom_site_fract_x
_atom_site_fract_y
_atom_site_fract_z
_atom_site_U_iso_or_equiv
_atom_site_adp_type
_atom_site_occupancy
C1     C     0.14116   0.44801   0.62800   0.00000  Uiso   1.00
C2     C     0.28431   0.34087   0.61965   0.00000  Uiso   1.00
C3     C     0.25858   0.20109   0.61984   0.00000  Uiso   1.00
C4     C     0.40648   0.12021   0.61147   0.00000  Uiso   1.00
C5     C     0.60327   0.94518   0.59979   0.00000  Uiso   1.00
C6     C     0.19756   0.53414   0.66331   0.00000  Uiso   1.00
C7     C     0.09888   0.55687   0.70020   0.00000  Uiso   1.00
C8     C     0.17375   0.63869   0.72858   0.00000  Uiso   1.00
C9     C     0.23581   0.76379   0.78467   0.00000  Uiso   1.00
C10    C     0.15298   0.54093   0.59062   0.00000  Uiso   1.00
C11    C     0.01680   0.56941   0.56639   0.00000  Uiso   1.00
C12    C     0.05413   0.65698   0.53358   0.00000  Uiso   1.00
C13    C     0.04697   0.79263   0.47680   0.00000  Uiso   1.00
C14    C     0.44957   0.55295   0.61280   0.00000  Uiso   1.00
C15    C     0.45182   0.39787   0.61140   0.00000  Uiso   1.00
C16    C     0.59980   0.31718   0.60303   0.00000  Uiso   1.00
C17    C     0.57429   0.17730   0.60320   0.00000  Uiso   1.00
C18    C     0.36506   0.59114   0.65506   0.00000  Uiso   1.00
C19    C     0.44009   0.67296   0.68339   0.00000  Uiso   1.00
C20    C     0.34156   0.69579   0.72031   0.00000  Uiso   1.00
C21    C     0.32049   0.59793   0.58236   0.00000  Uiso   1.00
C22    C     0.35802   0.68549   0.54958   0.00000  Uiso   1.00
C23    C     0.22194   0.71408   0.52531   0.00000  Uiso   1.00
H24    H     0.01075   0.40365   0.63442   0.00000  Uiso   1.00
H25    H     0.12893   0.15702   0.62623   0.00000  Uiso   1.00
H26    H     0.96925   0.51276   0.70658   0.00000  Uiso   1.00
H27    H     0.88719   0.52528   0.57279   0.00000  Uiso   1.00
H28    H     0.33383   0.90873   0.61353   0.00000  Uiso   1.00
H29    H     0.99711   0.65884   0.78293   0.00000  Uiso   1.00
H30    H     0.82408   0.68527   0.50082   0.00000  Uiso   1.00
H31    H     0.57999   0.59732   0.60638   0.00000  Uiso   1.00
H32    H     0.72941   0.36132   0.59664   0.00000  Uiso   1.00
H33    H     0.56972   0.71705   0.67699   0.00000  Uiso   1.00
H34    H     0.48767   0.72958   0.54320   0.00000  Uiso   1.00
H35    H     0.82121   0.07454   0.58951   0.00000  Uiso   1.00
H36    H     0.48448   0.82467   0.75892   0.00000  Uiso   1.00
H37    H     0.31145   0.85108   0.47680   0.00000  Uiso   1.00
O38    O     0.66555   0.83289   0.59564   0.00000  Uiso   1.00
O39    O     0.22376   0.81703   0.81789   0.00000  Uiso   1.00
O40    O     0.99676   0.85169   0.44776   0.00000  Uiso   1.00
N41    N     0.42803   0.98014   0.60920   0.00000  Uiso   1.00
N42    N     0.11322   0.68144   0.76759   0.00000  Uiso   1.00
N43    N     0.95144   0.70617   0.50384   0.00000  Uiso   1.00
N44    N     0.69028   0.06936   0.59628   0.00000  Uiso   1.00
N45    N     0.37547   0.77066   0.75467   0.00000  Uiso   1.00
N46    N     0.21369   0.79539   0.49092   0.00000  Uiso   1.00
C47    C     0.85884   0.94801   0.87200   0.00000  Uiso   1.00
C48    C     0.71569   0.84087   0.88035   0.00000  Uiso   1.00
C49    C     0.74142   0.70109   0.88016   0.00000  Uiso   1.00
C50    C     0.59352   0.62021   0.88853   0.00000  Uiso   1.00
C51    C     0.39673   0.44518   0.90021   0.00000  Uiso   1.00
C52    C     0.80244   0.03414   0.83669   0.00000  Uiso   1.00
C53    C     0.90112   0.05687   0.79980   0.00000  Uiso   1.00
C54    C     0.82625   0.13869   0.77142   0.00000  Uiso   1.00
C55    C     0.76419   0.26379   0.71533   0.00000  Uiso   1.00
C56    C     0.84702   0.04093   0.90938   0.00000  Uiso   1.00
C57    C     0.98320   0.06941   0.93361   0.00000  Uiso   1.00
C58    C     0.94587   0.15698   0.96642   0.00000  Uiso   1.00
C59    C     0.95303   0.29263   0.02320   0.00000  Uiso   1.00
C60    C     0.55043   0.05295   0.88720   0.00000  Uiso   1.00
C61    C     0.54818   0.89787   0.88860   0.00000  Uiso   1.00
C62    C     0.40020   0.81718   0.89697   0.00000  Uiso   1.00
C63    C     0.42571   0.67730   0.89680   0.00000  Uiso   1.00
C64    C     0.63494   0.09114   0.84494   0.00000  Uiso   1.00
C65    C     0.55991   0.17296   0.81661   0.00000  Uiso   1.00
C66    C     0.65844   0.19579   0.77969   0.00000  Uiso   1.00
C67    C     0.67951   0.09793   0.91764   0.00000  Uiso   1.00
C68    C     0.64198   0.18549   0.95042   0.00000  Uiso   1.00
C69    C     0.77806   0.21408   0.97469   0.00000  Uiso   1.00
H70    H     0.98925   0.90365   0.86558   0.00000  Uiso   1.00
H71    H     0.87107   0.65702   0.87377   0.00000  Uiso   1.00
H72    H     0.03075   0.01276   0.79342   0.00000  Uiso   1.00
H73    H     0.11281   0.02528   0.92721   0.00000  Uiso   1.00
H74    H     0.66617   0.40873   0.88647   0.00000  Uiso   1.00
H75    H     0.00289   0.15884   0.71707   0.00000  Uiso   1.00
H76    H     0.17592   0.18527   0.99918   0.00000  Uiso   1.00
H77    H     0.42001   0.09732   0.89362   0.00000  Uiso   1.00
H78    H     0.27059   0.86132   0.90336   0.00000  Uiso   1.00
H79    H     0.43028   0.21705   0.82301   0.00000  Uiso   1.00
H80    H     0.51233   0.22958   0.95680   0.00000  Uiso   1.00
H81    H     0.17879   0.57454   0.91049   0.00000  Uiso   1.00
H82    H     0.51552   0.32467   0.74108   0.00000  Uiso   1.00
H83    H     0.68855   0.35108   0.02320   0.00000  Uiso   1.00
O84    O     0.33445   0.33289   0.90436   0.00000  Uiso   1.00
O85    O     0.77624   0.31703   0.68211   0.00000  Uiso   1.00
O86    O     0.00324   0.35169   0.05224   0.00000  Uiso   1.00
N87    N     0.57197   0.48014   0.89080   0.00000  Uiso   1.00
N88    N     0.88678   0.18144   0.73241   0.00000  Uiso   1.00
N89    N     0.04856   0.20617   0.99616   0.00000  Uiso   1.00
N90    N     0.30972   0.56936   0.90372   0.00000  Uiso   1.00
N91    N     0.62453   0.27066   0.74533   0.00000  Uiso   1.00
N92    N     0.78631   0.29539   0.00908   0.00000  Uiso   1.00
C93    C     0.85884   0.55199   0.37200   0.00000  Uiso   1.00
C94    C     0.71569   0.65913   0.38035   0.00000  Uiso   1.00
C95    C     0.74142   0.79891   0.38016   0.00000  Uiso   1.00
C96    C     0.59352   0.87979   0.38853   0.00000  Uiso   1.00
C97    C     0.39673   0.05482   0.40021   0.00000  Uiso   1.00
C98    C     0.80244   0.46586   0.33669   0.00000  Uiso   1.00
C99    C     0.90112   0.44313   0.29980   0.00000  Uiso   1.00
C100   C     0.82625   0.36131   0.27142   0.00000  Uiso   1.00
C101   C     0.76419   0.23621   0.21533   0.00000  Uiso   1.00
C102   C     0.84702   0.45907   0.40938   0.00000  Uiso   1.00
C103   C     0.98320   0.43059   0.43361   0.00000  Uiso   1.00
C104   C     0.94587   0.34302   0.46642   0.00000  Uiso   1.00
C105   C     0.95303   0.20737   0.52320   0.00000  Uiso   1.00
C106   C     0.55043   0.44705   0.38720   0.00000  Uiso   1.00
C107   C     0.54818   0.60213   0.38860   0.00000  Uiso   1.00
C108   C     0.40020   0.68282   0.39697   0.00000  Uiso   1.00
C109   C     0.42571   0.82270   0.39680   0.00000  Uiso   1.00
C110   C     0.63494   0.40886   0.34494   0.00000  Uiso   1.00
C111   C     0.55991   0.32704   0.31661   0.00000  Uiso   1.00
C112   C     0.65844   0.30421   0.27969   0.00000  Uiso   1.00
C113   C     0.67951   0.40207   0.41764   0.00000  Uiso   1.00
C114   C     0.64198   0.31451   0.45042   0.00000  Uiso   1.00
C115   C     0.77806   0.28592   0.47469   0.00000  Uiso   1.00
H116   H     0.98925   0.59635   0.36558   0.00000  Uiso   1.00
H117   H     0.87107   0.84298   0.37377   0.00000  Uiso   1.00
H118   H     0.03075   0.48724   0.29342   0.00000  Uiso   1.00
H119   H     0.11281   0.47472   0.42721   0.00000  Uiso   1.00
H120   H     0.66617   0.09127   0.38647   0.00000  Uiso   1.00
H121   H     0.00289   0.34116   0.21707   0.00000  Uiso   1.00
H122   H     0.17592   0.31473   0.49918   0.00000  Uiso   1.00
H123   H     0.42001   0.40268   0.39362   0.00000  Uiso   1.00
H124   H     0.27059   0.63868   0.40336   0.00000  Uiso   1.00
H125   H     0.43028   0.28295   0.32301   0.00000  Uiso   1.00
H126   H     0.51233   0.27042   0.45680   0.00000  Uiso   1.00
H127   H     0.17879   0.92546   0.41049   0.00000  Uiso   1.00
H128   H     0.51552   0.17533   0.24108   0.00000  Uiso   1.00
H129   H     0.68855   0.14892   0.52320   0.00000  Uiso   1.00
O130   O     0.33445   0.16711   0.40436   0.00000  Uiso   1.00
O131   O     0.77624   0.18297   0.18211   0.00000  Uiso   1.00
O132   O     0.00324   0.14831   0.55224   0.00000  Uiso   1.00
N133   N     0.57197   0.01986   0.39080   0.00000  Uiso   1.00
N134   N     0.88678   0.31856   0.23241   0.00000  Uiso   1.00
N135   N     0.04856   0.29383   0.49616   0.00000  Uiso   1.00
N136   N     0.30972   0.93064   0.40372   0.00000  Uiso   1.00
N137   N     0.62453   0.22934   0.24533   0.00000  Uiso   1.00
N138   N     0.78631   0.20461   0.50908   0.00000  Uiso   1.00
C139   C     0.14116   0.05199   0.12800   0.00000  Uiso   1.00
C140   C     0.28431   0.15913   0.11965   0.00000  Uiso   1.00
C141   C     0.25858   0.29891   0.11984   0.00000  Uiso   1.00
C142   C     0.40648   0.37979   0.11147   0.00000  Uiso   1.00
C143   C     0.60327   0.55482   0.09979   0.00000  Uiso   1.00
C144   C     0.19756   0.96586   0.16331   0.00000  Uiso   1.00
C145   C     0.09888   0.94313   0.20020   0.00000  Uiso   1.00
C146   C     0.17375   0.86131   0.22858   0.00000  Uiso   1.00
C147   C     0.23581   0.73621   0.28467   0.00000  Uiso   1.00
C148   C     0.15298   0.95907   0.09062   0.00000  Uiso   1.00
C149   C     0.01680   0.93059   0.06639   0.00000  Uiso   1.00
C150   C     0.05413   0.84302   0.03358   0.00000  Uiso   1.00
C151   C     0.04697   0.70737   0.97680   0.00000  Uiso   1.00
C152   C     0.44957   0.94705   0.11280   0.00000  Uiso   1.00
C153   C     0.45182   0.10213   0.11140   0.00000  Uiso   1.00
C154   C     0.59980   0.18282   0.10303   0.00000  Uiso   1.00
C155   C     0.57429   0.32270   0.10320   0.00000  Uiso   1.00
C156   C     0.36506   0.90886   0.15506   0.00000  Uiso   1.00
C157   C     0.44009   0.82704   0.18339   0.00000  Uiso   1.00
C158   C     0.34156   0.80421   0.22031   0.00000  Uiso   1.00
C159   C     0.32049   0.90207   0.08236   0.00000  Uiso   1.00
C160   C     0.35802   0.81451   0.04958   0.00000  Uiso   1.00
C161   C     0.22194   0.78592   0.02531   0.00000  Uiso   1.00
H162   H     0.01075   0.09635   0.13442   0.00000  Uiso   1.00
H163   H     0.12893   0.34298   0.12623   0.00000  Uiso   1.00
H164   H     0.96925   0.98724   0.20658   0.00000  Uiso   1.00
H165   H     0.88719   0.97472   0.07279   0.00000  Uiso   1.00
H166   H     0.33383   0.59127   0.11353   0.00000  Uiso   1.00
H167   H     0.99711   0.84116   0.28293   0.00000  Uiso   1.00
H168   H     0.82408   0.81473   0.00082   0.00000  Uiso   1.00
H169   H     0.57999   0.90268   0.10638   0.00000  Uiso   1.00
H170   H     0.72941   0.13868   0.09664   0.00000  Uiso   1.00
H171   H     0.56972   0.78295   0.17699   0.00000  Uiso   1.00
H172   H     0.48767   0.77042   0.04320   0.00000  Uiso   1.00
H173   H     0.82121   0.42546   0.08951   0.00000  Uiso   1.00
H174   H     0.48448   0.67533   0.25892   0.00000  Uiso   1.00
H175   H     0.31145   0.64892   0.97680   0.00000  Uiso   1.00
O176   O     0.66555   0.66711   0.09564   0.00000  Uiso   1.00
O177   O     0.22376   0.68297   0.31789   0.00000  Uiso   1.00
O178   O     0.99676   0.64831   0.94776   0.00000  Uiso   1.00
N179   N     0.42803   0.51986   0.10920   0.00000  Uiso   1.00
N180   N     0.11322   0.81856   0.26759   0.00000  Uiso   1.00
N181   N     0.95144   0.79383   0.00384   0.00000  Uiso   1.00
N182   N     0.69028   0.43064   0.09628   0.00000  Uiso   1.00
N183   N     0.37547   0.72934   0.25467   0.00000  Uiso   1.00
N184   N     0.21369   0.70461   0.99092   0.00000  Uiso   1.00
