data_job_06455
_audit_creation_date              2018-12-19
_audit_creation_method            'Materials Studio'
_symmetry_space_group_name_H-M    'P1'
_symmetry_Int_Tables_number       1
_symmetry_cell_setting            triclinic
loop_
_symmetry_equiv_pos_as_xyz
  x,y,z
_cell_length_a                    13.8736
_cell_length_b                    23.2168
_cell_length_c                    23.9223
_cell_angle_alpha                 116.1150
_cell_angle_beta                  77.2471
_cell_angle_gamma                 82.3687
loop_
_atom_site_label
_atom_site_type_symbol
_atom_site_fract_x
_atom_site_fract_y
_atom_site_fract_z
_atom_site_U_iso_or_equiv
_atom_site_adp_type
_atom_site_occupancy
C1     C     0.17797   0.32814   0.52706   0.00000  Uiso   1.00
C2     C     0.10459   0.35351   0.49898   0.00000  Uiso   1.00
C3     C     0.13255   0.36683   0.44740   0.00000  Uiso   1.00
C4     C     0.05396   0.38970   0.42901   0.00000  Uiso   1.00
C5     C     0.95565   0.42772   0.38055   0.00000  Uiso   1.00
C6     C     0.14483   0.37833   0.59997   0.00000  Uiso   1.00
C7     C     0.20665   0.41251   0.63328   0.00000  Uiso   1.00
C8     C     0.16194   0.45626   0.69991   0.00000  Uiso   1.00
C9     C     0.12615   0.53278   0.80824   0.00000  Uiso   1.00
C10    C     0.15476   0.26419   0.52274   0.00000  Uiso   1.00
C11    C     0.22492   0.20241   0.49113   0.00000  Uiso   1.00
C12    C     0.18857   0.15007   0.49274   0.00000  Uiso   1.00
C13    C     0.16818   0.04937   0.48115   0.00000  Uiso   1.00
C14    C     0.98867   0.34506   0.58615   0.00000  Uiso   1.00
C15    C     0.00177   0.36270   0.53108   0.00000  Uiso   1.00
C16    C     0.92312   0.38555   0.51277   0.00000  Uiso   1.00
C17    C     0.95096   0.39890   0.46116   0.00000  Uiso   1.00
C18    C     0.04202   0.38751   0.63206   0.00000  Uiso   1.00
C19    C     0.99721   0.43122   0.69866   0.00000  Uiso   1.00
C20    C     0.05894   0.46547   0.73206   0.00000  Uiso   1.00
C21    C     0.05194   0.27338   0.55483   0.00000  Uiso   1.00
C22    C     0.01548   0.22112   0.55650   0.00000  Uiso   1.00
C23    C     0.08557   0.15927   0.52489   0.00000  Uiso   1.00
H24    H     0.25801   0.32100   0.50208   0.00000  Uiso   1.00
H25    H     0.21213   0.35972   0.42258   0.00000  Uiso   1.00
H26    H     0.28621   0.40539   0.60844   0.00000  Uiso   1.00
H27    H     0.30448   0.19532   0.46630   0.00000  Uiso   1.00
H28    H     0.11590   0.40674   0.34860   0.00000  Uiso   1.00
H29    H     0.27213   0.50300   0.74050   0.00000  Uiso   1.00
H30    H     0.31065   0.06004   0.44077   0.00000  Uiso   1.00
H31    H     0.90862   0.35221   0.61114   0.00000  Uiso   1.00
H32    H     0.84356   0.39265   0.53761   0.00000  Uiso   1.00
H33    H     0.91765   0.43831   0.72347   0.00000  Uiso   1.00
H34    H     0.93591   0.22825   0.58134   0.00000  Uiso   1.00
H35    H     0.81676   0.43347   0.44197   0.00000  Uiso   1.00
H36    H     0.97299   0.52973   0.83387   0.00000  Uiso   1.00
H37    H     0.01151   0.08676   0.53414   0.00000  Uiso   1.00
O38    O     0.92983   0.44616   0.34496   0.00000  Uiso   1.00
O39    O     0.13481   0.57245   0.85912   0.00000  Uiso   1.00
O40    O     0.18534   0.99129   0.46589   0.00000  Uiso   1.00
N41    N     0.05443   0.40747   0.38065   0.00000  Uiso   1.00
N42    N     0.20049   0.49748   0.74706   0.00000  Uiso   1.00
N43    N     0.23651   0.08334   0.46685   0.00000  Uiso   1.00
N44    N     0.89346   0.42185   0.43089   0.00000  Uiso   1.00
N45    N     0.03952   0.51186   0.79730   0.00000  Uiso   1.00
N46    N     0.07554   0.09772   0.51709   0.00000  Uiso   1.00
C47    C     0.71110   0.47732   0.80043   0.00000  Uiso   1.00
C48    C     0.60869   0.50299   0.85431   0.00000  Uiso   1.00
C49    C     0.58496   0.55490   0.91770   0.00000  Uiso   1.00
C50    C     0.48706   0.57081   0.95966   0.00000  Uiso   1.00
C51    C     0.33893   0.61593   0.04648   0.00000  Uiso   1.00
C52    C     0.74733   0.40338   0.77782   0.00000  Uiso   1.00
C53    C     0.84019   0.37155   0.77688   0.00000  Uiso   1.00
C54    C     0.85900   0.30361   0.75445   0.00000  Uiso   1.00
C55    C     0.92616   0.19409   0.72247   0.00000  Uiso   1.00
C56    C     0.68704   0.48169   0.74301   0.00000  Uiso   1.00
C57    C     0.72921   0.51569   0.71279   0.00000  Uiso   1.00
C58    C     0.69727   0.51367   0.66104   0.00000  Uiso   1.00
C59    C     0.67081   0.52573   0.57501   0.00000  Uiso   1.00
C60    C     0.57941   0.41326   0.76224   0.00000  Uiso   1.00
C61    C     0.53716   0.46819   0.83356   0.00000  Uiso   1.00
C62    C     0.43926   0.48402   0.87544   0.00000  Uiso   1.00
C63    C     0.41540   0.53596   0.93888   0.00000  Uiso   1.00
C64    C     0.67581   0.36858   0.75707   0.00000  Uiso   1.00
C65    C     0.69449   0.30067   0.73463   0.00000  Uiso   1.00
C66    C     0.78734   0.26875   0.73367   0.00000  Uiso   1.00
C67    C     0.61550   0.44690   0.72226   0.00000  Uiso   1.00
C68    C     0.58350   0.44482   0.67054   0.00000  Uiso   1.00
C69    C     0.62561   0.47881   0.64026   0.00000  Uiso   1.00
H70    H     0.76679   0.50441   0.81658   0.00000  Uiso   1.00
H71    H     0.64035   0.58181   0.93373   0.00000  Uiso   1.00
H72    H     0.89553   0.39849   0.79294   0.00000  Uiso   1.00
H73    H     0.78456   0.54261   0.72886   0.00000  Uiso   1.00
H74    H     0.46862   0.65227   0.05448   0.00000  Uiso   1.00
H75    H     0.00671   0.26572   0.75757   0.00000  Uiso   1.00
H76    H     0.77272   0.56963   0.62246   0.00000  Uiso   1.00
H77    H     0.52372   0.38616   0.74609   0.00000  Uiso   1.00
H78    H     0.38392   0.45709   0.85937   0.00000  Uiso   1.00
H79    H     0.63912   0.27376   0.71857   0.00000  Uiso   1.00
H80    H     0.52815   0.41788   0.65450   0.00000  Uiso   1.00
H81    H     0.26050   0.55104   0.99412   0.00000  Uiso   1.00
H82    H     0.79860   0.16449   0.69722   0.00000  Uiso   1.00
H83    H     0.56460   0.46839   0.56210   0.00000  Uiso   1.00
O84    O     0.27700   0.65043   0.10010   0.00000  Uiso   1.00
O85    O     0.98296   0.14329   0.71056   0.00000  Uiso   1.00
O86    O     0.67596   0.54201   0.53330   0.00000  Uiso   1.00
N87    N     0.43882   0.61872   0.02472   0.00000  Uiso   1.00
N88    N     0.94190   0.25732   0.74715   0.00000  Uiso   1.00
N89    N     0.72315   0.54143   0.62081   0.00000  Uiso   1.00
N90    N     0.32683   0.56425   0.99225   0.00000  Uiso   1.00
N91    N     0.82991   0.20285   0.71467   0.00000  Uiso   1.00
N92    N     0.61116   0.48696   0.58834   0.00000  Uiso   1.00
C93    C     0.50790   0.20055   0.67301   0.00000  Uiso   1.00
C94    C     0.45741   0.14393   0.64674   0.00000  Uiso   1.00
C95    C     0.49356   0.07969   0.63503   0.00000  Uiso   1.00
C96    C     0.43633   0.03513   0.61096   0.00000  Uiso   1.00
C97    C     0.37167   0.94430   0.57196   0.00000  Uiso   1.00
C98    C     0.52570   0.22483   0.62277   0.00000  Uiso   1.00
C99    C     0.61926   0.22861   0.59090   0.00000  Uiso   1.00
C100   C     0.61951   0.25216   0.54665   0.00000  Uiso   1.00
C101   C     0.66086   0.28697   0.47046   0.00000  Uiso   1.00
C102   C     0.42690   0.25696   0.73450   0.00000  Uiso   1.00
C103   C     0.43739   0.28778   0.79657   0.00000  Uiso   1.00
C104   C     0.35446   0.33841   0.84640   0.00000  Uiso   1.00
C105   C     0.24240   0.42311   0.94368   0.00000  Uiso   1.00
C106   C     0.34199   0.23567   0.65110   0.00000  Uiso   1.00
C107   C     0.36730   0.16300   0.63485   0.00000  Uiso   1.00
C108   C     0.30999   0.11853   0.61079   0.00000  Uiso   1.00
C109   C     0.34604   0.05424   0.59905   0.00000  Uiso   1.00
C110   C     0.43559   0.24390   0.61087   0.00000  Uiso   1.00
C111   C     0.43570   0.26746   0.56666   0.00000  Uiso   1.00
C112   C     0.52924   0.27127   0.53473   0.00000  Uiso   1.00
C113   C     0.33678   0.27604   0.72260   0.00000  Uiso   1.00
C114   C     0.25382   0.32662   0.77234   0.00000  Uiso   1.00
C115   C     0.26418   0.35751   0.83448   0.00000  Uiso   1.00
H116   H     0.57806   0.18571   0.68227   0.00000  Uiso   1.00
H117   H     0.56331   0.06494   0.64423   0.00000  Uiso   1.00
H118   H     0.68899   0.21385   0.60012   0.00000  Uiso   1.00
H119   H     0.50714   0.27301   0.80576   0.00000  Uiso   1.00
H120   H     0.50722   0.93946   0.59680   0.00000  Uiso   1.00
H121   H     0.77222   0.25346   0.50379   0.00000  Uiso   1.00
H122   H     0.38876   0.37821   0.93743   0.00000  Uiso   1.00
H123   H     0.27183   0.25051   0.64184   0.00000  Uiso   1.00
H124   H     0.24026   0.13331   0.60159   0.00000  Uiso   1.00
H125   H     0.36595   0.28221   0.55747   0.00000  Uiso   1.00
H126   H     0.18410   0.34137   0.76311   0.00000  Uiso   1.00
H127   H     0.24503   0.99494   0.56219   0.00000  Uiso   1.00
H128   H     0.51003   0.30895   0.46918   0.00000  Uiso   1.00
H129   H     0.12657   0.43370   0.90282   0.00000  Uiso   1.00
O130   O     0.36090   0.88892   0.55372   0.00000  Uiso   1.00
O131   O     0.70857   0.30090   0.43171   0.00000  Uiso   1.00
O132   O     0.20548   0.46456   0.00063   0.00000  Uiso   1.00
N133   N     0.44983   0.96861   0.59419   0.00000  Uiso   1.00
N134   N     0.69760   0.26217   0.50722   0.00000  Uiso   1.00
N135   N     0.33911   0.37881   0.91264   0.00000  Uiso   1.00
N136   N     0.30875   0.99846   0.57556   0.00000  Uiso   1.00
N137   N     0.55651   0.29203   0.48860   0.00000  Uiso   1.00
N138   N     0.19802   0.40867   0.89401   0.00000  Uiso   1.00
C139   C     0.20513   0.80107   0.47397   0.00000  Uiso   1.00
C140   C     0.10427   0.85395   0.50132   0.00000  Uiso   1.00
C141   C     0.08126   0.91831   0.55259   0.00000  Uiso   1.00
C142   C     0.98477   0.95909   0.57032   0.00000  Uiso   1.00
C143   C     0.83896   0.04468   0.61771   0.00000  Uiso   1.00
C144   C     0.24432   0.77885   0.40095   0.00000  Uiso   1.00
C145   C     0.33906   0.78006   0.36783   0.00000  Uiso   1.00
C146   C     0.36047   0.75762   0.30106   0.00000  Uiso   1.00
C147   C     0.43211   0.72657   0.19261   0.00000  Uiso   1.00
C148   C     0.17742   0.74163   0.47872   0.00000  Uiso   1.00
C149   C     0.21593   0.71153   0.51096   0.00000  Uiso   1.00
C150   C     0.18103   0.65774   0.50965   0.00000  Uiso   1.00
C151   C     0.14881   0.56889   0.52195   0.00000  Uiso   1.00
C152   C     0.07470   0.75905   0.41429   0.00000  Uiso   1.00
C153   C     0.03343   0.83112   0.46891   0.00000  Uiso   1.00
C154   C     0.93694   0.87182   0.48657   0.00000  Uiso   1.00
C155   C     0.91379   0.93623   0.53785   0.00000  Uiso   1.00
C156   C     0.17347   0.75603   0.36854   0.00000  Uiso   1.00
C157   C     0.19475   0.73358   0.30180   0.00000  Uiso   1.00
C158   C     0.28949   0.73476   0.26858   0.00000  Uiso   1.00
C159   C     0.10657   0.71880   0.44631   0.00000  Uiso   1.00
C160   C     0.07162   0.66504   0.44494   0.00000  Uiso   1.00
C161   C     0.11006   0.63487   0.47718   0.00000  Uiso   1.00
H162   H     0.26029   0.81884   0.49920   0.00000  Uiso   1.00
H163   H     0.13611   0.93595   0.57766   0.00000  Uiso   1.00
H164   H     0.39387   0.79772   0.39292   0.00000  Uiso   1.00
H165   H     0.27075   0.72920   0.53604   0.00000  Uiso   1.00
H166   H     0.96720   0.05574   0.65033   0.00000  Uiso   1.00
H167   H     0.51072   0.76425   0.26080   0.00000  Uiso   1.00
H168   H     0.25111   0.61976   0.56259   0.00000  Uiso   1.00
H169   H     0.01954   0.74128   0.38905   0.00000  Uiso   1.00
H170   H     0.88214   0.85415   0.46148   0.00000  Uiso   1.00
H171   H     0.13991   0.71592   0.27674   0.00000  Uiso   1.00
H172   H     0.01679   0.64740   0.41985   0.00000  Uiso   1.00
H173   H     0.76107   0.98934   0.55603   0.00000  Uiso   1.00
H174   H     0.30460   0.69785   0.16650   0.00000  Uiso   1.00
H175   H     0.04499   0.55336   0.46829   0.00000  Uiso   1.00
O176   O     0.77811   0.09819   0.65280   0.00000  Uiso   1.00
O177   O     0.49120   0.71576   0.14175   0.00000  Uiso   1.00
O178   O     0.15059   0.52620   0.53769   0.00000  Uiso   1.00
N179   N     0.93753   0.02462   0.61821   0.00000  Uiso   1.00
N180   N     0.44569   0.75211   0.25403   0.00000  Uiso   1.00
N181   N     0.20300   0.61701   0.53616   0.00000  Uiso   1.00
N182   N     0.82662   0.98889   0.56747   0.00000  Uiso   1.00
N183   N     0.33478   0.71638   0.20328   0.00000  Uiso   1.00
N184   N     0.09208   0.58128   0.48542   0.00000  Uiso   1.00
C185   C     0.01208   0.67636   0.19903   0.00000  Uiso   1.00
C186   C     0.96323   0.64840   0.14484   0.00000  Uiso   1.00
C187   C     0.00241   0.63734   0.08131   0.00000  Uiso   1.00
C188   C     0.94625   0.61146   0.03905   0.00000  Uiso   1.00
C189   C     0.88442   0.57018   0.95176   0.00000  Uiso   1.00
C190   C     0.02557   0.62519   0.22230   0.00000  Uiso   1.00
C191   C     0.11717   0.59462   0.22391   0.00000  Uiso   1.00
C192   C     0.11348   0.54921   0.24687   0.00000  Uiso   1.00
C193   C     0.14843   0.47193   0.27988   0.00000  Uiso   1.00
C194   C     0.93135   0.73747   0.25595   0.00000  Uiso   1.00
C195   C     0.94372   0.80130   0.28586   0.00000  Uiso   1.00
C196   C     0.86071   0.85042   0.33715   0.00000  Uiso   1.00
C197   C     0.74936   0.94747   0.42241   0.00000  Uiso   1.00
C198   C     0.84266   0.65007   0.23696   0.00000  Uiso   1.00
C199   C     0.87121   0.63412   0.16544   0.00000  Uiso   1.00
C200   C     0.81497   0.60825   0.12327   0.00000  Uiso   1.00
C201   C     0.85406   0.59715   0.05969   0.00000  Uiso   1.00
C202   C     0.93356   0.61091   0.24290   0.00000  Uiso   1.00
C203   C     0.92973   0.56553   0.26587   0.00000  Uiso   1.00
C204   C     0.02130   0.53490   0.26750   0.00000  Uiso   1.00
C205   C     0.83932   0.72319   0.27655   0.00000  Uiso   1.00
C206   C     0.75628   0.77221   0.32782   0.00000  Uiso   1.00
C207   C     0.76852   0.83611   0.35779   0.00000  Uiso   1.00
H208   H     0.08373   0.68748   0.18300   0.00000  Uiso   1.00
H209   H     0.07364   0.64839   0.06538   0.00000  Uiso   1.00
H210   H     0.18837   0.60569   0.20797   0.00000  Uiso   1.00
H211   H     0.01495   0.81233   0.26990   0.00000  Uiso   1.00
H212   H     0.02188   0.59874   0.94406   0.00000  Uiso   1.00
H213   H     0.26380   0.50871   0.24473   0.00000  Uiso   1.00
H214   H     0.89811   0.94446   0.37533   0.00000  Uiso   1.00
H215   H     0.77102   0.63895   0.25300   0.00000  Uiso   1.00
H216   H     0.74376   0.59721   0.13923   0.00000  Uiso   1.00
H217   H     0.85850   0.55450   0.28181   0.00000  Uiso   1.00
H218   H     0.68508   0.76114   0.34374   0.00000  Uiso   1.00
H219   H     0.75415   0.55719   0.00399   0.00000  Uiso   1.00
H220   H     0.99607   0.46716   0.30467   0.00000  Uiso   1.00
H221   H     0.63037   0.90292   0.43527   0.00000  Uiso   1.00
O222   O     0.87574   0.55135   0.89791   0.00000  Uiso   1.00
O223   O     0.19313   0.43325   0.29239   0.00000  Uiso   1.00
O224   O     0.71335   0.00495   0.46373   0.00000  Uiso   1.00
N225   N     0.96260   0.59470   0.97379   0.00000  Uiso   1.00
N226   N     0.18879   0.51052   0.25488   0.00000  Uiso   1.00
N227   N     0.84690   0.91791   0.37700   0.00000  Uiso   1.00
N228   N     0.81853   0.57234   0.00604   0.00000  Uiso   1.00
N229   N     0.04472   0.48816   0.28713   0.00000  Uiso   1.00
N230   N     0.70283   0.89556   0.40925   0.00000  Uiso   1.00
C231   C     0.67976   0.52858   0.32751   0.00000  Uiso   1.00
C232   C     0.60319   0.49807   0.35387   0.00000  Uiso   1.00
C233   C     0.62740   0.44578   0.36622   0.00000  Uiso   1.00
C234   C     0.54633   0.42509   0.39027   0.00000  Uiso   1.00
C235   C     0.44288   0.37309   0.42952   0.00000  Uiso   1.00
C236   C     0.64798   0.60249   0.37729   0.00000  Uiso   1.00
C237   C     0.70987   0.63799   0.40933   0.00000  Uiso   1.00
C238   C     0.66650   0.70521   0.45309   0.00000  Uiso   1.00
C239   C     0.63263   0.81533   0.52867   0.00000  Uiso   1.00
C240   C     0.65993   0.52375   0.26557   0.00000  Uiso   1.00
C241   C     0.73186   0.49305   0.20368   0.00000  Uiso   1.00
C242   C     0.69856   0.49399   0.15338   0.00000  Uiso   1.00
C243   C     0.68323   0.48185   0.05549   0.00000  Uiso   1.00
C244   C     0.49272   0.58485   0.34824   0.00000  Uiso   1.00
C245   C     0.50159   0.52864   0.36513   0.00000  Uiso   1.00
C246   C     0.42046   0.50803   0.38916   0.00000  Uiso   1.00
C247   C     0.44455   0.45571   0.40155   0.00000  Uiso   1.00
C248   C     0.54639   0.63306   0.38856   0.00000  Uiso   1.00
C249   C     0.50293   0.70024   0.43227   0.00000  Uiso   1.00
C250   C     0.56473   0.73583   0.46437   0.00000  Uiso   1.00
C251   C     0.55833   0.55431   0.27683   0.00000  Uiso   1.00
C252   C     0.52492   0.55531   0.22662   0.00000  Uiso   1.00
C253   C     0.59678   0.52461   0.16466   0.00000  Uiso   1.00
H254   H     0.75886   0.50479   0.31874   0.00000  Uiso   1.00
H255   H     0.70603   0.42214   0.35751   0.00000  Uiso   1.00
H256   H     0.78849   0.61432   0.40060   0.00000  Uiso   1.00
H257   H     0.81048   0.46941   0.19498   0.00000  Uiso   1.00
H258   H     0.60267   0.34400   0.40548   0.00000  Uiso   1.00
H259   H     0.77654   0.74923   0.49633   0.00000  Uiso   1.00
H260   H     0.82291   0.44365   0.06273   0.00000  Uiso   1.00
H261   H     0.41362   0.60865   0.35701   0.00000  Uiso   1.00
H262   H     0.34184   0.53169   0.39788   0.00000  Uiso   1.00
H263   H     0.42430   0.72388   0.44097   0.00000  Uiso   1.00
H264   H     0.44629   0.57896   0.23535   0.00000  Uiso   1.00
H265   H     0.30707   0.43292   0.43825   0.00000  Uiso   1.00
H266   H     0.48096   0.83815   0.52909   0.00000  Uiso   1.00
H267   H     0.52732   0.53257   0.09550   0.00000  Uiso   1.00
O268   O     0.41388   0.33597   0.44807   0.00000  Uiso   1.00
O269   O     0.64201   0.86762   0.56725   0.00000  Uiso   1.00
O270   O     0.70284   0.46671   0.99839   0.00000  Uiso   1.00
N271   N     0.54295   0.37548   0.40757   0.00000  Uiso   1.00
N272   N     0.70551   0.75434   0.49251   0.00000  Uiso   1.00
N273   N     0.74886   0.46867   0.08715   0.00000  Uiso   1.00
N274   N     0.38389   0.42332   0.42520   0.00000  Uiso   1.00
N275   N     0.54645   0.80219   0.51015   0.00000  Uiso   1.00
N276   N     0.58981   0.51651   0.10478   0.00000  Uiso   1.00
