data_job_06756
_audit_creation_date              2018-12-19
_audit_creation_method            'Materials Studio'
_symmetry_space_group_name_H-M    'P1'
_symmetry_Int_Tables_number       1
_symmetry_cell_setting            triclinic
loop_
_symmetry_equiv_pos_as_xyz
  x,y,z
_cell_length_a                    20.3994
_cell_length_b                    20.9152
_cell_length_c                    22.8065
_cell_angle_alpha                 91.7474
_cell_angle_beta                  110.2611
_cell_angle_gamma                 115.3585
loop_
_atom_site_label
_atom_site_type_symbol
_atom_site_fract_x
_atom_site_fract_y
_atom_site_fract_z
_atom_site_U_iso_or_equiv
_atom_site_adp_type
_atom_site_occupancy
C1     C     0.37330   0.58438   0.91725   0.00000  Uiso   1.00
C2     C     0.38881   0.56463   0.86024   0.00000  Uiso   1.00
C3     C     0.45379   0.55620   0.86352   0.00000  Uiso   1.00
C4     C     0.45712   0.53805   0.80593   0.00000  Uiso   1.00
C5     C     0.49029   0.50883   0.72634   0.00000  Uiso   1.00
C6     C     0.36363   0.65233   0.90886   0.00000  Uiso   1.00
C7     C     0.40744   0.71764   0.95303   0.00000  Uiso   1.00
C8     C     0.38956   0.77331   0.93636   0.00000  Uiso   1.00
C9     C     0.38360   0.88023   0.93228   0.00000  Uiso   1.00
C10    C     0.29232   0.52437   0.90854   0.00000  Uiso   1.00
C11    C     0.27616   0.48211   0.95245   0.00000  Uiso   1.00
C12    C     0.19824   0.43006   0.93553   0.00000  Uiso   1.00
C13    C     0.08156   0.33832   0.93096   0.00000  Uiso   1.00
C14    C     0.26366   0.56712   0.80912   0.00000  Uiso   1.00
C15    C     0.32926   0.55525   0.80151   0.00000  Uiso   1.00
C16    C     0.33249   0.53710   0.74389   0.00000  Uiso   1.00
C17    C     0.39746   0.52865   0.74709   0.00000  Uiso   1.00
C18    C     0.30408   0.64295   0.85013   0.00000  Uiso   1.00
C19    C     0.28614   0.69854   0.83340   0.00000  Uiso   1.00
C20    C     0.32990   0.76391   0.87753   0.00000  Uiso   1.00
C21    C     0.23277   0.51500   0.84981   0.00000  Uiso   1.00
C22    C     0.15486   0.46301   0.83282   0.00000  Uiso   1.00
C23    C     0.13858   0.42067   0.87670   0.00000  Uiso   1.00
H24    H     0.41966   0.59169   0.96297   0.00000  Uiso   1.00
H25    H     0.49987   0.56347   0.90898   0.00000  Uiso   1.00
H26    H     0.45351   0.72487   0.99847   0.00000  Uiso   1.00
H27    H     0.32226   0.48938   0.99790   0.00000  Uiso   1.00
H28    H     0.56255   0.52807   0.82323   0.00000  Uiso   1.00
H29    H     0.46479   0.86840   0.01193   0.00000  Uiso   1.00
H30    H     0.18801   0.37182   0.01072   0.00000  Uiso   1.00
H31    H     0.21729   0.55982   0.76340   0.00000  Uiso   1.00
H32    H     0.28640   0.52985   0.69845   0.00000  Uiso   1.00
H33    H     0.24004   0.69126   0.78795   0.00000  Uiso   1.00
H34    H     0.10879   0.45577   0.78737   0.00000  Uiso   1.00
H35    H     0.38929   0.50079   0.65236   0.00000  Uiso   1.00
H36    H     0.29152   0.84112   0.84106   0.00000  Uiso   1.00
H37    H     0.01475   0.34454   0.83985   0.00000  Uiso   1.00
O38    O     0.52504   0.49532   0.69867   0.00000  Uiso   1.00
O39    O     0.39677   0.94180   0.94625   0.00000  Uiso   1.00
O40    O     0.03365   0.29030   0.94466   0.00000  Uiso   1.00
N41    N     0.51228   0.52575   0.79192   0.00000  Uiso   1.00
N42    N     0.42089   0.84394   0.96835   0.00000  Uiso   1.00
N43    N     0.16212   0.37969   0.96723   0.00000  Uiso   1.00
N44    N     0.41905   0.51107   0.69998   0.00000  Uiso   1.00
N45    N     0.32766   0.82926   0.87640   0.00000  Uiso   1.00
N46    N     0.06889   0.36501   0.87528   0.00000  Uiso   1.00
C47    C     0.52223   0.92036   0.52264   0.00000  Uiso   1.00
C48    C     0.51026   0.84667   0.53790   0.00000  Uiso   1.00
C49    C     0.56303   0.81916   0.54569   0.00000  Uiso   1.00
C50    C     0.54116   0.75066   0.55947   0.00000  Uiso   1.00
C51    C     0.53352   0.64223   0.58225   0.00000  Uiso   1.00
C52    C     0.45102   0.90539   0.46170   0.00000  Uiso   1.00
C53    C     0.45399   0.92725   0.40542   0.00000  Uiso   1.00
C54    C     0.38226   0.90818   0.35505   0.00000  Uiso   1.00
C55    C     0.28265   0.89095   0.25954   0.00000  Uiso   1.00
C56    C     0.51448   0.95919   0.57560   0.00000  Uiso   1.00
C57    C     0.57081   0.02630   0.61508   0.00000  Uiso   1.00
C58    C     0.55250   0.05253   0.66061   0.00000  Uiso   1.00
C59    C     0.55143   0.11884   0.74195   0.00000  Uiso   1.00
C60    C     0.38956   0.84763   0.53326   0.00000  Uiso   1.00
C61    C     0.43819   0.80717   0.54367   0.00000  Uiso   1.00
C62    C     0.41624   0.73869   0.55744   0.00000  Uiso   1.00
C63    C     0.46897   0.71108   0.56525   0.00000  Uiso   1.00
C64    C     0.37896   0.86588   0.46746   0.00000  Uiso   1.00
C65    C     0.30720   0.84678   0.41717   0.00000  Uiso   1.00
C66    C     0.31006   0.86861   0.36083   0.00000  Uiso   1.00
C67    C     0.44242   0.91968   0.58137   0.00000  Uiso   1.00
C68    C     0.42402   0.94582   0.62684   0.00000  Uiso   1.00
C69    C     0.48031   0.01296   0.66639   0.00000  Uiso   1.00
H70    H     0.57833   0.95112   0.51814   0.00000  Uiso   1.00
H71    H     0.61879   0.84975   0.54121   0.00000  Uiso   1.00
H72    H     0.50976   0.95783   0.40097   0.00000  Uiso   1.00
H73    H     0.62656   0.05685   0.61060   0.00000  Uiso   1.00
H74    H     0.63185   0.71992   0.56931   0.00000  Uiso   1.00
H75    H     0.40197   0.94784   0.27360   0.00000  Uiso   1.00
H76    H     0.64827   0.15665   0.71566   0.00000  Uiso   1.00
H77    H     0.33345   0.81688   0.53776   0.00000  Uiso   1.00
H78    H     0.36047   0.70813   0.56191   0.00000  Uiso   1.00
H79    H     0.25145   0.81621   0.42166   0.00000  Uiso   1.00
H80    H     0.36825   0.91524   0.63129   0.00000  Uiso   1.00
H81    H     0.42219   0.60498   0.58610   0.00000  Uiso   1.00
H82    H     0.19231   0.83290   0.29039   0.00000  Uiso   1.00
H83    H     0.43861   0.04171   0.73245   0.00000  Uiso   1.00
O84    O     0.54920   0.59333   0.59322   0.00000  Uiso   1.00
O85    O     0.24762   0.89236   0.20526   0.00000  Uiso   1.00
O86    O     0.57075   0.16631   0.78523   0.00000  Uiso   1.00
N87    N     0.57880   0.70780   0.56996   0.00000  Uiso   1.00
N88    N     0.36388   0.92088   0.29349   0.00000  Uiso   1.00
N89    N     0.59414   0.11611   0.70676   0.00000  Uiso   1.00
N90    N     0.46599   0.64595   0.57900   0.00000  Uiso   1.00
N91    N     0.25107   0.85903   0.30252   0.00000  Uiso   1.00
N92    N     0.48133   0.05426   0.71580   0.00000  Uiso   1.00
C93    C     0.04588   0.28091   0.57514   0.00000  Uiso   1.00
C94    C     0.11872   0.28552   0.62881   0.00000  Uiso   1.00
C95    C     0.15064   0.23870   0.62917   0.00000  Uiso   1.00
C96    C     0.21744   0.25207   0.68275   0.00000  Uiso   1.00
C97    C     0.32540   0.25036   0.75828   0.00000  Uiso   1.00
C98    C     0.98884   0.27658   0.60575   0.00000  Uiso   1.00
C99    C     0.91157   0.22225   0.58672   0.00000  Uiso   1.00
C100   C     0.86904   0.22811   0.62087   0.00000  Uiso   1.00
C101   C     0.77534   0.21255   0.66057   0.00000  Uiso   1.00
C102   C     0.07248   0.35396   0.55563   0.00000  Uiso   1.00
C103   C     0.06552   0.36470   0.49446   0.00000  Uiso   1.00
C104   C     0.09340   0.43571   0.48642   0.00000  Uiso   1.00
C105   C     0.12957   0.54029   0.44831   0.00000  Uiso   1.00
C106   C     0.10775   0.38791   0.66963   0.00000  Uiso   1.00
C107   C     0.15232   0.34363   0.68013   0.00000  Uiso   1.00
C108   C     0.21909   0.35708   0.73371   0.00000  Uiso   1.00
C109   C     0.25111   0.31029   0.73416   0.00000  Uiso   1.00
C110   C     0.02244   0.33469   0.65707   0.00000  Uiso   1.00
C111   C     0.98002   0.34063   0.69126   0.00000  Uiso   1.00
C112   C     0.90270   0.28633   0.67229   0.00000  Uiso   1.00
C113   C     0.10609   0.41208   0.60695   0.00000  Uiso   1.00
C114   C     0.13397   0.48308   0.59901   0.00000  Uiso   1.00
C115   C     0.12706   0.49393   0.53784   0.00000  Uiso   1.00
H116   H     0.01972   0.23567   0.53519   0.00000  Uiso   1.00
H117   H     0.12461   0.19373   0.58945   0.00000  Uiso   1.00
H118   H     0.88558   0.17729   0.54699   0.00000  Uiso   1.00
H119   H     0.03951   0.31972   0.45476   0.00000  Uiso   1.00
H120   H     0.25571   0.17284   0.67225   0.00000  Uiso   1.00
H121   H     0.75168   0.13820   0.58272   0.00000  Uiso   1.00
H122   H     0.07628   0.43853   0.38822   0.00000  Uiso   1.00
H123   H     0.13391   0.43315   0.70959   0.00000  Uiso   1.00
H124   H     0.24508   0.40205   0.77342   0.00000  Uiso   1.00
H125   H     0.00604   0.38561   0.73097   0.00000  Uiso   1.00
H126   H     0.15997   0.52804   0.63873   0.00000  Uiso   1.00
H127   H     0.35348   0.34193   0.82157   0.00000  Uiso   1.00
H128   H     0.84945   0.30728   0.73204   0.00000  Uiso   1.00
H129   H     0.17405   0.60761   0.53754   0.00000  Uiso   1.00
O130   O     0.37565   0.23335   0.78577   0.00000  Uiso   1.00
O131   O     0.71438   0.18790   0.66830   0.00000  Uiso   1.00
O132   O     0.14025   0.58192   0.41312   0.00000  Uiso   1.00
N133   N     0.26348   0.21692   0.69863   0.00000  Uiso   1.00
N134   N     0.79224   0.18452   0.61493   0.00000  Uiso   1.00
N135   N     0.09570   0.46530   0.43308   0.00000  Uiso   1.00
N136   N     0.31609   0.30790   0.77898   0.00000  Uiso   1.00
N137   N     0.84485   0.27550   0.69528   0.00000  Uiso   1.00
N138   N     0.14831   0.55628   0.51343   0.00000  Uiso   1.00
C139   C     0.51380   0.09534   0.06082   0.00000  Uiso   1.00
C140   C     0.57498   0.10577   0.12700   0.00000  Uiso   1.00
C141   C     0.60551   0.05858   0.14685   0.00000  Uiso   1.00
C142   C     0.66095   0.07786   0.20927   0.00000  Uiso   1.00
C143   C     0.75233   0.08431   0.30578   0.00000  Uiso   1.00
C144   C     0.55121   0.16263   0.03564   0.00000  Uiso   1.00
C145   C     0.56174   0.16322   0.97867   0.00000  Uiso   1.00
C146   C     0.59716   0.23036   0.96419   0.00000  Uiso   1.00
C147   C     0.65158   0.32507   0.91884   0.00000  Uiso   1.00
C148   C     0.44548   0.09861   0.07159   0.00000  Uiso   1.00
C149   C     0.36710   0.04540   0.04484   0.00000  Uiso   1.00
C150   C     0.31350   0.05865   0.06061   0.00000  Uiso   1.00
C151   C     0.20376   0.05398   0.07108   0.00000  Uiso   1.00
C152   C     0.55797   0.21352   0.13637   0.00000  Uiso   1.00
C153   C     0.59897   0.16997   0.16803   0.00000  Uiso   1.00
C154   C     0.65438   0.18932   0.23044   0.00000  Uiso   1.00
C155   C     0.68499   0.14216   0.25038   0.00000  Uiso   1.00
C156   C     0.57520   0.22681   0.07667   0.00000  Uiso   1.00
C157   C     0.61061   0.29397   0.06227   0.00000  Uiso   1.00
C158   C     0.62120   0.29467   0.00530   0.00000  Uiso   1.00
C159   C     0.46947   0.16280   0.11263   0.00000  Uiso   1.00
C160   C     0.41597   0.17615   0.12844   0.00000  Uiso   1.00
C161   C     0.33753   0.12296   0.10172   0.00000  Uiso   1.00
H162   H     0.49512   0.04537   0.02886   0.00000  Uiso   1.00
H163   H     0.58693   0.00891   0.11507   0.00000  Uiso   1.00
H164   H     0.54316   0.11354   0.94692   0.00000  Uiso   1.00
H165   H     0.34856   0.99573   0.01308   0.00000  Uiso   1.00
H166   H     0.69933   0.99681   0.22874   0.00000  Uiso   1.00
H167   H     0.60700   0.21742   0.87418   0.00000  Uiso   1.00
H168   H     0.19664   0.96900   0.01368   0.00000  Uiso   1.00
H169   H     0.57665   0.26350   0.16832   0.00000  Uiso   1.00
H170   H     0.67294   0.23900   0.26219   0.00000  Uiso   1.00
H171   H     0.62917   0.34363   0.09403   0.00000  Uiso   1.00
H172   H     0.43456   0.22582   0.16020   0.00000  Uiso   1.00
H173   H     0.76913   0.18356   0.34815   0.00000  Uiso   1.00
H174   H     0.67681   0.40417   0.99358   0.00000  Uiso   1.00
H175   H     0.26645   0.15576   0.13309   0.00000  Uiso   1.00
O176   O     0.79612   0.07015   0.34767   0.00000  Uiso   1.00
O177   O     0.67498   0.35958   0.88248   0.00000  Uiso   1.00
O178   O     0.13660   0.03366   0.06552   0.00000  Uiso   1.00
N179   N     0.70253   0.04411   0.24397   0.00000  Uiso   1.00
N180   N     0.61623   0.25037   0.91247   0.00000  Uiso   1.00
N181   N     0.23257   0.01813   0.04289   0.00000  Uiso   1.00
N182   N     0.74009   0.14460   0.30822   0.00000  Uiso   1.00
N183   N     0.65379   0.35086   0.97672   0.00000  Uiso   1.00
N184   N     0.27013   0.11862   0.10714   0.00000  Uiso   1.00
C185   C     0.57489   0.39818   0.41195   0.00000  Uiso   1.00
C186   C     0.54294   0.32090   0.37729   0.00000  Uiso   1.00
C187   C     0.58006   0.27788   0.39290   0.00000  Uiso   1.00
C188   C     0.54117   0.20870   0.35534   0.00000  Uiso   1.00
C189   C     0.50271   0.09251   0.30934   0.00000  Uiso   1.00
C190   C     0.51119   0.39787   0.43257   0.00000  Uiso   1.00
C191   C     0.52163   0.41958   0.49466   0.00000  Uiso   1.00
C192   C     0.45601   0.41519   0.50363   0.00000  Uiso   1.00
C193   C     0.36827   0.41855   0.54346   0.00000  Uiso   1.00
C194   C     0.57795   0.44400   0.36125   0.00000  Uiso   1.00
C195   C     0.64451   0.50451   0.36339   0.00000  Uiso   1.00
C196   C     0.63508   0.53897   0.31232   0.00000  Uiso   1.00
C197   C     0.65100   0.61396   0.24142   0.00000  Uiso   1.00
C198   C     0.43981   0.35180   0.31747   0.00000  Uiso   1.00
C199   C     0.46957   0.29571   0.32597   0.00000  Uiso   1.00
C200   C     0.43061   0.22657   0.28837   0.00000  Uiso   1.00
C201   C     0.46767   0.18346   0.30393   0.00000  Uiso   1.00
C202   C     0.43782   0.37268   0.38126   0.00000  Uiso   1.00
C203   C     0.37217   0.36826   0.39014   0.00000  Uiso   1.00
C204   C     0.38250   0.38995   0.45222   0.00000  Uiso   1.00
C205   C     0.50458   0.41881   0.30994   0.00000  Uiso   1.00
C206   C     0.49505   0.45319   0.25886   0.00000  Uiso   1.00
C207   C     0.56158   0.51373   0.26091   0.00000  Uiso   1.00
H208   H     0.63201   0.41780   0.45191   0.00000  Uiso   1.00
H209   H     0.63684   0.29740   0.43262   0.00000  Uiso   1.00
H210   H     0.57841   0.43907   0.53436   0.00000  Uiso   1.00
H211   H     0.70127   0.52399   0.40311   0.00000  Uiso   1.00
H212   H     0.60983   0.15279   0.38863   0.00000  Uiso   1.00
H213   H     0.48664   0.45155   0.60315   0.00000  Uiso   1.00
H214   H     0.74572   0.63061   0.32638   0.00000  Uiso   1.00
H215   H     0.38268   0.33219   0.27752   0.00000  Uiso   1.00
H216   H     0.37383   0.20709   0.24866   0.00000  Uiso   1.00
H217   H     0.31541   0.34877   0.35041   0.00000  Uiso   1.00
H218   H     0.43827   0.43368   0.21916   0.00000  Uiso   1.00
H219   H     0.39636   0.07949   0.23932   0.00000  Uiso   1.00
H220   H     0.27317   0.37826   0.45385   0.00000  Uiso   1.00
H221   H     0.53225   0.55731   0.17707   0.00000  Uiso   1.00
O222   O     0.50176   0.03539   0.29815   0.00000  Uiso   1.00
O223   O     0.34015   0.42736   0.57960   0.00000  Uiso   1.00
O224   O     0.68005   0.66227   0.21648   0.00000  Uiso   1.00
N225   N     0.56081   0.15272   0.35744   0.00000  Uiso   1.00
N226   N     0.44563   0.43203   0.55801   0.00000  Uiso   1.00
N227   N     0.68784   0.59944   0.29926   0.00000  Uiso   1.00
N228   N     0.44595   0.11327   0.27710   0.00000  Uiso   1.00
N229   N     0.33077   0.39258   0.47767   0.00000  Uiso   1.00
N230   N     0.57298   0.56000   0.21892   0.00000  Uiso   1.00
C231   C     0.00279   0.63525   0.04168   0.00000  Uiso   1.00
C232   C     0.07887   0.64464   0.03661   0.00000  Uiso   1.00
C233   C     0.12281   0.61058   0.06634   0.00000  Uiso   1.00
C234   C     0.19061   0.62634   0.05570   0.00000  Uiso   1.00
C235   C     0.30524   0.63358   0.05374   0.00000  Uiso   1.00
C236   C     0.94077   0.61080   0.97328   0.00000  Uiso   1.00
C237   C     0.86859   0.54830   0.94977   0.00000  Uiso   1.00
C238   C     0.82013   0.53559   0.88582   0.00000  Uiso   1.00
C239   C     0.72033   0.49033   0.78555   0.00000  Uiso   1.00
C240   C     0.01769   0.71098   0.06595   0.00000  Uiso   1.00
C241   C     0.01016   0.73270   0.12034   0.00000  Uiso   1.00
C242   C     0.02644   0.80433   0.13439   0.00000  Uiso   1.00
C243   C     0.04606   0.91460   0.17800   0.00000  Uiso   1.00
C244   C     0.04507   0.72381   0.96991   0.00000  Uiso   1.00
C245   C     0.10184   0.69274   0.99763   0.00000  Uiso   1.00
C246   C     0.16960   0.70856   0.98694   0.00000  Uiso   1.00
C247   C     0.21363   0.67453   0.01665   0.00000  Uiso   1.00
C248   C     0.96374   0.65890   0.93430   0.00000  Uiso   1.00
C249   C     0.91537   0.64628   0.87037   0.00000  Uiso   1.00
C250   C     0.84314   0.58378   0.84677   0.00000  Uiso   1.00
C251   C     0.04066   0.75908   0.02697   0.00000  Uiso   1.00
C252   C     0.05695   0.83068   0.04094   0.00000  Uiso   1.00
C253   C     0.04945   0.85251   0.09534   0.00000  Uiso   1.00
H254   H     0.98490   0.59779   0.07202   0.00000  Uiso   1.00
H255   H     0.10501   0.57335   0.09650   0.00000  Uiso   1.00
H256   H     0.85083   0.51109   0.97995   0.00000  Uiso   1.00
H257   H     0.99238   0.69546   0.15049   0.00000  Uiso   1.00
H258   H     0.24829   0.56745   0.10643   0.00000  Uiso   1.00
H259   H     0.71232   0.43618   0.86068   0.00000  Uiso   1.00
H260   H     0.01081   0.82496   0.22030   0.00000  Uiso   1.00
H261   H     0.06295   0.76125   0.93956   0.00000  Uiso   1.00
H262   H     0.18735   0.74579   0.95678   0.00000  Uiso   1.00
H263   H     0.93317   0.68352   0.84022   0.00000  Uiso   1.00
H264   H     0.07472   0.86789   0.01076   0.00000  Uiso   1.00
H265   H     0.31512   0.70740   0.99302   0.00000  Uiso   1.00
H266   H     0.77915   0.57613   0.74728   0.00000  Uiso   1.00
H267   H     0.07764   0.96491   0.10689   0.00000  Uiso   1.00
O268   O     0.36212   0.62428   0.06342   0.00000  Uiso   1.00
O269   O     0.65894   0.45207   0.74102   0.00000  Uiso   1.00
O270   O     0.05055   0.96214   0.21282   0.00000  Uiso   1.00
N271   N     0.24696   0.60252   0.07738   0.00000  Uiso   1.00
N272   N     0.74586   0.47979   0.84763   0.00000  Uiso   1.00
N273   N     0.02490   0.84326   0.18383   0.00000  Uiso   1.00
N274   N     0.28292   0.67783   0.01636   0.00000  Uiso   1.00
N275   N     0.78182   0.55509   0.78660   0.00000  Uiso   1.00
N276   N     0.06086   0.91856   0.12281   0.00000  Uiso   1.00
C277   C     0.91256   0.52208   0.28251   0.00000  Uiso   1.00
C278   C     0.82267   0.48844   0.25645   0.00000  Uiso   1.00
C279   C     0.77533   0.50266   0.20383   0.00000  Uiso   1.00
C280   C     0.69436   0.46636   0.18765   0.00000  Uiso   1.00
C281   C     0.55970   0.42151   0.14181   0.00000  Uiso   1.00
C282   C     0.93145   0.45895   0.28307   0.00000  Uiso   1.00
C283   C     0.97558   0.44838   0.25284   0.00000  Uiso   1.00
C284   C     0.98619   0.38726   0.25907   0.00000  Uiso   1.00
C285   C     0.02047   0.29666   0.25461   0.00000  Uiso   1.00
C286   C     0.94269   0.55735   0.35242   0.00000  Uiso   1.00
C287   C     0.99630   0.62950   0.38051   0.00000  Uiso   1.00
C288   C     0.01639   0.65122   0.44513   0.00000  Uiso   1.00
C289   C     0.06813   0.71339   0.54833   0.00000  Uiso   1.00
C290   C     0.85292   0.43234   0.34733   0.00000  Uiso   1.00
C291   C     0.79027   0.43970   0.29166   0.00000  Uiso   1.00
C292   C     0.70935   0.40337   0.27555   0.00000  Uiso   1.00
C293   C     0.66191   0.41753   0.22292   0.00000  Uiso   1.00
C294   C     0.89905   0.41021   0.31828   0.00000  Uiso   1.00
C295   C     0.90960   0.34909   0.32456   0.00000  Uiso   1.00
C296   C     0.95374   0.33843   0.29435   0.00000  Uiso   1.00
C297   C     0.91030   0.50860   0.38763   0.00000  Uiso   1.00
C298   C     0.93031   0.53022   0.45222   0.00000  Uiso   1.00
C299   C     0.98394   0.60239   0.48040   0.00000  Uiso   1.00
H300   H     0.93778   0.56002   0.25510   0.00000  Uiso   1.00
H301   H     0.80042   0.54038   0.17659   0.00000  Uiso   1.00
H302   H     0.00065   0.48611   0.22560   0.00000  Uiso   1.00
H303   H     0.02136   0.66721   0.35324   0.00000  Uiso   1.00
H304   H     0.63385   0.49708   0.10507   0.00000  Uiso   1.00
H305   H     0.05606   0.38267   0.20843   0.00000  Uiso   1.00
H306   H     0.09973   0.76454   0.47759   0.00000  Uiso   1.00
H307   H     0.82770   0.39439   0.37475   0.00000  Uiso   1.00
H308   H     0.68430   0.36565   0.30281   0.00000  Uiso   1.00
H309   H     0.88453   0.31139   0.35182   0.00000  Uiso   1.00
H310   H     0.90523   0.49248   0.47946   0.00000  Uiso   1.00
H311   H     0.53960   0.35526   0.20751   0.00000  Uiso   1.00
H312   H     0.96182   0.24085   0.31087   0.00000  Uiso   1.00
H313   H     0.00548   0.62273   0.58003   0.00000  Uiso   1.00
O314   O     0.49438   0.41024   0.10680   0.00000  Uiso   1.00
O315   O     0.04832   0.26014   0.24241   0.00000  Uiso   1.00
O316   O     0.10560   0.76115   0.59553   0.00000  Uiso   1.00
N317   N     0.63135   0.46766   0.13906   0.00000  Uiso   1.00
N318   N     0.02608   0.36068   0.23568   0.00000  Uiso   1.00
N319   N     0.06693   0.71770   0.48733   0.00000  Uiso   1.00
N320   N     0.58064   0.39135   0.19418   0.00000  Uiso   1.00
N321   N     0.97537   0.28437   0.29081   0.00000  Uiso   1.00
N322   N     0.01621   0.64139   0.54245   0.00000  Uiso   1.00
C323   C     0.79096   0.43364   0.66702   0.00000  Uiso   1.00
C324   C     0.79587   0.50666   0.65535   0.00000  Uiso   1.00
C325   C     0.73427   0.52393   0.64062   0.00000  Uiso   1.00
C326   C     0.75073   0.59368   0.63173   0.00000  Uiso   1.00
C327   C     0.74689   0.69937   0.61278   0.00000  Uiso   1.00
C328   C     0.85482   0.44913   0.73316   0.00000  Uiso   1.00
C329   C     0.84279   0.41802   0.78386   0.00000  Uiso   1.00
C330   C     0.90888   0.43933   0.84047   0.00000  Uiso   1.00
C331   C     0.99658   0.45566   0.94232   0.00000  Uiso   1.00
C332   C     0.81728   0.40899   0.61967   0.00000  Uiso   1.00
C333   C     0.77370   0.34411   0.57495   0.00000  Uiso   1.00
C334   C     0.80820   0.33162   0.53601   0.00000  Uiso   1.00
C335   C     0.83761   0.28562   0.46165   0.00000  Uiso   1.00
C336   C     0.92972   0.52680   0.67741   0.00000  Uiso   1.00
C337   C     0.87124   0.55726   0.66099   0.00000  Uiso   1.00
C338   C     0.88779   0.62700   0.65212   0.00000  Uiso   1.00
C339   C     0.82623   0.64437   0.63738   0.00000  Uiso   1.00
C340   C     0.93019   0.49973   0.73881   0.00000  Uiso   1.00
C341   C     0.99631   0.52109   0.79536   0.00000  Uiso   1.00
C342   C     0.98438   0.49002   0.84613   0.00000  Uiso   1.00
C343   C     0.89265   0.45959   0.62531   0.00000  Uiso   1.00
C344   C     0.92722   0.44719   0.58644   0.00000  Uiso   1.00
C345   C     0.88370   0.38231   0.54167   0.00000  Uiso   1.00
H346   H     0.73229   0.39425   0.66263   0.00000  Uiso   1.00
H347   H     0.67596   0.48476   0.63626   0.00000  Uiso   1.00
H348   H     0.78446   0.37886   0.77948   0.00000  Uiso   1.00
H349   H     0.71539   0.30497   0.57059   0.00000  Uiso   1.00
H350   H     0.64675   0.60743   0.60955   0.00000  Uiso   1.00
H351   H     0.87554   0.38411   0.91151   0.00000  Uiso   1.00
H352   H     0.72988   0.22829   0.47105   0.00000  Uiso   1.00
H353   H     0.98840   0.56620   0.68180   0.00000  Uiso   1.00
H354   H     0.94612   0.66615   0.65649   0.00000  Uiso   1.00
H355   H     0.05462   0.56024   0.79971   0.00000  Uiso   1.00
H356   H     0.98554   0.48635   0.59082   0.00000  Uiso   1.00
H357   H     0.86602   0.75465   0.62597   0.00000  Uiso   1.00
H358   H     0.09482   0.53133   0.92793   0.00000  Uiso   1.00
H359   H     0.94915   0.37552   0.48747   0.00000  Uiso   1.00
O360   O     0.72396   0.74369   0.60078   0.00000  Uiso   1.00
O361   O     0.02413   0.45069   0.99694   0.00000  Uiso   1.00
O362   O     0.83301   0.24627   0.41906   0.00000  Uiso   1.00
N363   N     0.70415   0.62836   0.61687   0.00000  Uiso   1.00
N364   N     0.91806   0.41957   0.89920   0.00000  Uiso   1.00
N365   N     0.78188   0.27389   0.48741   0.00000  Uiso   1.00
N366   N     0.82214   0.70758   0.62571   0.00000  Uiso   1.00
N367   N     0.03605   0.49879   0.90803   0.00000  Uiso   1.00
N368   N     0.89987   0.35311   0.49624   0.00000  Uiso   1.00
C369   C     0.35124   0.14624   0.60465   0.00000  Uiso   1.00
C370   C     0.28183   0.14936   0.55300   0.00000  Uiso   1.00
C371   C     0.26375   0.20627   0.55227   0.00000  Uiso   1.00
C372   C     0.19778   0.19873   0.50078   0.00000  Uiso   1.00
C373   C     0.09705   0.21307   0.42802   0.00000  Uiso   1.00
C374   C     0.39804   0.13321   0.57033   0.00000  Uiso   1.00
C375   C     0.47768   0.17653   0.58418   0.00000  Uiso   1.00
C376   C     0.50953   0.15539   0.54728   0.00000  Uiso   1.00
C377   C     0.58923   0.14462   0.50146   0.00000  Uiso   1.00
C378   C     0.31559   0.07761   0.62883   0.00000  Uiso   1.00
C379   C     0.32591   0.07419   0.69187   0.00000  Uiso   1.00
C380   C     0.28835   0.00623   0.70424   0.00000  Uiso   1.00
C381   C     0.24004   0.90914   0.74925   0.00000  Uiso   1.00
C382   C     0.26621   0.03165   0.51451   0.00000  Uiso   1.00
C383   C     0.23565   0.08712   0.50404   0.00000  Uiso   1.00
C384   C     0.16968   0.07949   0.45254   0.00000  Uiso   1.00
C385   C     0.15151   0.13638   0.45173   0.00000  Uiso   1.00
C386   C     0.35186   0.07097   0.52137   0.00000  Uiso   1.00
C387   C     0.38360   0.04976   0.48445   0.00000  Uiso   1.00
C388   C     0.46326   0.09304   0.49823   0.00000  Uiso   1.00
C389   C     0.26940   0.01537   0.57987   0.00000  Uiso   1.00
C390   C     0.23183   0.94741   0.59214   0.00000  Uiso   1.00
C391   C     0.24209   0.94388   0.65519   0.00000  Uiso   1.00
H392   H     0.38720   0.19469   0.64276   0.00000  Uiso   1.00
H393   H     0.29952   0.25443   0.59016   0.00000  Uiso   1.00
H394   H     0.51340   0.22469   0.62207   0.00000  Uiso   1.00
H395   H     0.36166   0.12236   0.72975   0.00000  Uiso   1.00
H396   H     0.18195   0.29322   0.51024   0.00000  Uiso   1.00
H397   H     0.63295   0.23051   0.57754   0.00000  Uiso   1.00
H398   H     0.31296   0.01472   0.80460   0.00000  Uiso   1.00
H399   H     0.23026   0.98319   0.47639   0.00000  Uiso   1.00
H400   H     0.13395   0.03132   0.41466   0.00000  Uiso   1.00
H401   H     0.34784   0.00159   0.44657   0.00000  Uiso   1.00
H402   H     0.19609   0.89926   0.55424   0.00000  Uiso   1.00
H403   H     0.04757   0.11214   0.36780   0.00000  Uiso   1.00
H404   H     0.49858   0.04943   0.43510   0.00000  Uiso   1.00
H405   H     0.17858   0.83364   0.66215   0.00000  Uiso   1.00
O406   O     0.05425   0.23817   0.40140   0.00000  Uiso   1.00
O407   O     0.64595   0.15589   0.48971   0.00000  Uiso   1.00
O408   O     0.22613   0.87278   0.78759   0.00000  Uiso   1.00
N409   N     0.16353   0.24400   0.48520   0.00000  Uiso   1.00
N410   N     0.58519   0.18537   0.54811   0.00000  Uiso   1.00
N411   N     0.28604   0.98362   0.76039   0.00000  Uiso   1.00
N412   N     0.09122   0.14656   0.40855   0.00000  Uiso   1.00
N413   N     0.51288   0.08793   0.47146   0.00000  Uiso   1.00
N414   N     0.21373   0.88618   0.68374   0.00000  Uiso   1.00
C415   C     0.74670   0.92812   0.07091   0.00000  Uiso   1.00
C416   C     0.69522   0.93973   0.00989   0.00000  Uiso   1.00
C417   C     0.63786   0.96082   0.00459   0.00000  Uiso   1.00
C418   C     0.59715   0.96846   0.94459   0.00000  Uiso   1.00
C419   C     0.51474   0.98843   0.85786   0.00000  Uiso   1.00
C420   C     0.73317   0.85086   0.05567   0.00000  Uiso   1.00
C421   C     0.70772   0.79723   0.08887   0.00000  Uiso   1.00
C422   C     0.69896   0.73006   0.06742   0.00000  Uiso   1.00
C423   C     0.67551   0.61207   0.05179   0.00000  Uiso   1.00
C424   C     0.83207   0.97735   0.08061   0.00000  Uiso   1.00
C425   C     0.88979   0.03008   0.13478   0.00000  Uiso   1.00
C426   C     0.96430   0.06940   0.13433   0.00000  Uiso   1.00
C427   C     0.09441   0.14782   0.15742   0.00000  Uiso   1.00
C428   C     0.77641   0.90418   0.97378   0.00000  Uiso   1.00
C429   C     0.71136   0.92672   0.95713   0.00000  Uiso   1.00
C430   C     0.67073   0.93434   0.89712   0.00000  Uiso   1.00
C431   C     0.61332   0.95544   0.89174   0.00000  Uiso   1.00
C432   C     0.74930   0.83785   0.00292   0.00000  Uiso   1.00
C433   C     0.74058   0.77075   0.98141   0.00000  Uiso   1.00
C434   C     0.71512   0.71703   0.01456   0.00000  Uiso   1.00
C435   C     0.84820   0.96435   0.02785   0.00000  Uiso   1.00
C436   C     0.92265   0.00359   0.02731   0.00000  Uiso   1.00
C437   C     0.98047   0.05637   0.08147   0.00000  Uiso   1.00
H438   H     0.73414   0.93824   0.11199   0.00000  Uiso   1.00
H439   H     0.62539   0.97087   0.04543   0.00000  Uiso   1.00
H440   H     0.69524   0.80731   0.12970   0.00000  Uiso   1.00
H441   H     0.87728   0.04012   0.17560   0.00000  Uiso   1.00
H442   H     0.51191   0.00130   0.94837   0.00000  Uiso   1.00
H443   H     0.65923   0.65642   0.12607   0.00000  Uiso   1.00
H444   H     0.04309   0.14736   0.22286   0.00000  Uiso   1.00
H445   H     0.78897   0.89405   0.93270   0.00000  Uiso   1.00
H446   H     0.68323   0.92427   0.85630   0.00000  Uiso   1.00
H447   H     0.75308   0.76070   0.94058   0.00000  Uiso   1.00
H448   H     0.93512   0.99352   0.98648   0.00000  Uiso   1.00
H449   H     0.55886   0.96347   0.79486   0.00000  Uiso   1.00
H450   H     0.70617   0.61859   0.97257   0.00000  Uiso   1.00
H451   H     0.09003   0.10953   0.06936   0.00000  Uiso   1.00
O452   O     0.46482   0.00303   0.82459   0.00000  Uiso   1.00
O453   O     0.65810   0.55058   0.05774   0.00000  Uiso   1.00
O454   O     0.16171   0.19467   0.18472   0.00000  Uiso   1.00
N455   N     0.53748   0.98826   0.92273   0.00000  Uiso   1.00
N456   N     0.67520   0.66582   0.08887   0.00000  Uiso   1.00
N457   N     0.03408   0.12479   0.17936   0.00000  Uiso   1.00
N458   N     0.56275   0.96791   0.84013   0.00000  Uiso   1.00
N459   N     0.70046   0.64547   0.00627   0.00000  Uiso   1.00
N460   N     0.05935   0.10443   0.09676   0.00000  Uiso   1.00
C461   C     0.79881   0.89272   0.70044   0.00000  Uiso   1.00
C462   C     0.82636   0.96688   0.73908   0.00000  Uiso   1.00
C463   C     0.78618   0.00752   0.72612   0.00000  Uiso   1.00
C464   C     0.82125   0.07403   0.76716   0.00000  Uiso   1.00
C465   C     0.85300   0.18542   0.81922   0.00000  Uiso   1.00
C466   C     0.86533   0.90027   0.68041   0.00000  Uiso   1.00
C467   C     0.85790   0.88489   0.61811   0.00000  Uiso   1.00
C468   C     0.92579   0.89532   0.60977   0.00000  Uiso   1.00
C469   C     0.01803   0.90324   0.57073   0.00000  Uiso   1.00
C470   C     0.79640   0.84244   0.74758   0.00000  Uiso   1.00
C471   C     0.73103   0.77841   0.74176   0.00000  Uiso   1.00
C472   C     0.74088   0.74015   0.78996   0.00000  Uiso   1.00
C473   C     0.72609   0.65827   0.85521   0.00000  Uiso   1.00
C474   C     0.93256   0.93859   0.79638   0.00000  Uiso   1.00
C475   C     0.89901   0.99179   0.79119   0.00000  Uiso   1.00
C476   C     0.93416   0.05827   0.83227   0.00000  Uiso   1.00
C477   C     0.89403   0.09899   0.81937   0.00000  Uiso   1.00
C478   C     0.93798   0.92518   0.73252   0.00000  Uiso   1.00
C479   C     0.00589   0.93564   0.72426   0.00000  Uiso   1.00
C480   C     0.99857   0.92028   0.66197   0.00000  Uiso   1.00
C481   C     0.86905   0.86735   0.79969   0.00000  Uiso   1.00
C482   C     0.87901   0.82917   0.84790   0.00000  Uiso   1.00
C483   C     0.81366   0.76511   0.84216   0.00000  Uiso   1.00
H484   H     0.74225   0.87332   0.65987   0.00000  Uiso   1.00
H485   H     0.72996   0.98822   0.68579   0.00000  Uiso   1.00
H486   H     0.80167   0.86560   0.57780   0.00000  Uiso   1.00
H487   H     0.67482   0.75915   0.70142   0.00000  Uiso   1.00
H488   H     0.74838   0.12660   0.73749   0.00000  Uiso   1.00
H489   H     0.89959   0.86804   0.50979   0.00000  Uiso   1.00
H490   H     0.63209   0.64356   0.77048   0.00000  Uiso   1.00
H491   H     0.98913   0.95798   0.83695   0.00000  Uiso   1.00
H492   H     0.99038   0.07753   0.87259   0.00000  Uiso   1.00
H493   H     0.06210   0.95491   0.76460   0.00000  Uiso   1.00
H494   H     0.93524   0.84847   0.88822   0.00000  Uiso   1.00
H495   H     0.95975   0.19910   0.88910   0.00000  Uiso   1.00
H496   H     0.11097   0.94052   0.66140   0.00000  Uiso   1.00
H497   H     0.84346   0.71606   0.92209   0.00000  Uiso   1.00
O498   O     0.85045   0.23998   0.83353   0.00000  Uiso   1.00
O499   O     0.04883   0.90073   0.53480   0.00000  Uiso   1.00
O500   O     0.69787   0.60623   0.87681   0.00000  Uiso   1.00
N501   N     0.79795   0.12725   0.76829   0.00000  Uiso   1.00
N502   N     0.93933   0.88552   0.55540   0.00000  Uiso   1.00
N503   N     0.68923   0.67565   0.79911   0.00000  Uiso   1.00
N504   N     0.91168   0.16626   0.84987   0.00000  Uiso   1.00
N505   N     0.05306   0.92452   0.63698   0.00000  Uiso   1.00
N506   N     0.80297   0.71465   0.88070   0.00000  Uiso   1.00
C507   C     0.38609   0.59993   0.22752   0.00000  Uiso   1.00
C508   C     0.32766   0.61209   0.24759   0.00000  Uiso   1.00
C509   C     0.29637   0.65837   0.22612   0.00000  Uiso   1.00
C510   C     0.24384   0.66186   0.25021   0.00000  Uiso   1.00
C511   C     0.15626   0.68706   0.27471   0.00000  Uiso   1.00
C512   C     0.45727   0.61677   0.28914   0.00000  Uiso   1.00
C513   C     0.53495   0.66698   0.30258   0.00000  Uiso   1.00
C514   C     0.59153   0.67440   0.36164   0.00000  Uiso   1.00
C515   C     0.70517   0.70683   0.45062   0.00000  Uiso   1.00
C516   C     0.34757   0.51878   0.20135   0.00000  Uiso   1.00
C517   C     0.33302   0.48659   0.14098   0.00000  Uiso   1.00
C518   C     0.29725   0.41152   0.12614   0.00000  Uiso   1.00
C519   C     0.24056   0.29180   0.07880   0.00000  Uiso   1.00
C520   C     0.34847   0.52384   0.30851   0.00000  Uiso   1.00
C521   C     0.30723   0.57076   0.29158   0.00000  Uiso   1.00
C522   C     0.25473   0.57418   0.31571   0.00000  Uiso   1.00
C523   C     0.22337   0.62046   0.29427   0.00000  Uiso   1.00
C524   C     0.43684   0.57545   0.33312   0.00000  Uiso   1.00
C525   C     0.49332   0.58279   0.39218   0.00000  Uiso   1.00
C526   C     0.57106   0.63300   0.40571   0.00000  Uiso   1.00
C527   C     0.32713   0.47745   0.24533   0.00000  Uiso   1.00
C528   C     0.29138   0.40241   0.23058   0.00000  Uiso   1.00
C529   C     0.27678   0.37011   0.17020   0.00000  Uiso   1.00
H530   H     0.40201   0.63211   0.19328   0.00000  Uiso   1.00
H531   H     0.31220   0.69035   0.19208   0.00000  Uiso   1.00
H532   H     0.55075   0.69895   0.26853   0.00000  Uiso   1.00
H533   H     0.34884   0.51859   0.10696   0.00000  Uiso   1.00
H534   H     0.20365   0.73671   0.21016   0.00000  Uiso   1.00
H535   H     0.70663   0.75483   0.37135   0.00000  Uiso   1.00
H536   H     0.28089   0.37452   0.03064   0.00000  Uiso   1.00
H537   H     0.33255   0.49166   0.34275   0.00000  Uiso   1.00
H538   H     0.23893   0.54219   0.34975   0.00000  Uiso   1.00
H539   H     0.47748   0.55080   0.42620   0.00000  Uiso   1.00
H540   H     0.27558   0.37044   0.26463   0.00000  Uiso   1.00
H541   H     0.14418   0.61647   0.33814   0.00000  Uiso   1.00
H542   H     0.64717   0.63458   0.49933   0.00000  Uiso   1.00
H543   H     0.22142   0.25427   0.15861   0.00000  Uiso   1.00
O544   O     0.11360   0.71239   0.27607   0.00000  Uiso   1.00
O545   O     0.77350   0.73614   0.48754   0.00000  Uiso   1.00
O546   O     0.21493   0.23719   0.04053   0.00000  Uiso   1.00
N547   N     0.20249   0.70147   0.23931   0.00000  Uiso   1.00
N548   N     0.67275   0.71841   0.39002   0.00000  Uiso   1.00
N549   N     0.27473   0.36286   0.07149   0.00000  Uiso   1.00
N550   N     0.17049   0.63676   0.30817   0.00000  Uiso   1.00
N551   N     0.64075   0.65371   0.45888   0.00000  Uiso   1.00
N552   N     0.24273   0.29815   0.14035   0.00000  Uiso   1.00
