data_job_00039
_audit_creation_date              2018-12-19
_audit_creation_method            'Materials Studio'
_symmetry_space_group_name_H-M    'P1'
_symmetry_Int_Tables_number       1
_symmetry_cell_setting            triclinic
loop_
_symmetry_equiv_pos_as_xyz
  x,y,z
_cell_length_a                    12.7850
_cell_length_b                    7.5861
_cell_length_c                    11.8749
_cell_angle_alpha                 90.0000
_cell_angle_beta                  106.4684
_cell_angle_gamma                 90.0000
loop_
_atom_site_label
_atom_site_type_symbol
_atom_site_fract_x
_atom_site_fract_y
_atom_site_fract_z
_atom_site_U_iso_or_equiv
_atom_site_adp_type
_atom_site_occupancy
C1     C     0.20804   0.41994   0.34082   0.00000  Uiso   1.00
C2     C     0.30754   0.34230   0.31223   0.00000  Uiso   1.00
C3     C     0.39120   0.43801   0.28818   0.00000  Uiso   1.00
C4     C     0.47496   0.34247   0.26409   0.00000  Uiso   1.00
C5     C     0.10883   0.34230   0.25105   0.00000  Uiso   1.00
C6     C     0.02541   0.43801   0.17557   0.00000  Uiso   1.00
C7     C     0.94189   0.34247   0.09998   0.00000  Uiso   1.00
C8     C     0.20773   0.34230   0.45918   0.00000  Uiso   1.00
C9     C     0.20743   0.43802   0.55868   0.00000  Uiso   1.00
C10    C     0.20714   0.34247   0.65832   0.00000  Uiso   1.00
H11    H     0.20803   0.56366   0.34082   0.00000  Uiso   1.00
H12    H     0.39117   0.58087   0.28818   0.00000  Uiso   1.00
H13    H     0.02543   0.58087   0.17559   0.00000  Uiso   1.00
H14    H     0.20743   0.58087   0.55865   0.00000  Uiso   1.00
H15    H     0.59418   0.51855   0.22977   0.00000  Uiso   1.00
H16    H     0.82299   0.51855   0.99241   0.00000  Uiso   1.00
H17    H     0.20676   0.51855   0.80016   0.00000  Uiso   1.00
N18    N     0.56906   0.39450   0.23702   0.00000  Uiso   1.00
N19    N     0.84805   0.39450   0.01509   0.00000  Uiso   1.00
N20    N     0.20681   0.39450   0.77026   0.00000  Uiso   1.00
C21    C     0.79196   0.91994   0.65918   0.00000  Uiso   1.00
C22    C     0.69246   0.84230   0.68777   0.00000  Uiso   1.00
C23    C     0.60880   0.93801   0.71182   0.00000  Uiso   1.00
C24    C     0.52504   0.84247   0.73591   0.00000  Uiso   1.00
C25    C     0.89117   0.84230   0.74895   0.00000  Uiso   1.00
C26    C     0.97459   0.93801   0.82443   0.00000  Uiso   1.00
C27    C     0.05811   0.84247   0.90002   0.00000  Uiso   1.00
C28    C     0.79227   0.84230   0.54082   0.00000  Uiso   1.00
C29    C     0.79257   0.93802   0.44132   0.00000  Uiso   1.00
C30    C     0.79286   0.84247   0.34168   0.00000  Uiso   1.00
H31    H     0.79197   0.06366   0.65918   0.00000  Uiso   1.00
H32    H     0.60883   0.08087   0.71182   0.00000  Uiso   1.00
H33    H     0.97457   0.08087   0.82441   0.00000  Uiso   1.00
H34    H     0.79257   0.08087   0.44135   0.00000  Uiso   1.00
H35    H     0.40582   0.01855   0.77023   0.00000  Uiso   1.00
H36    H     0.17701   0.01855   0.00759   0.00000  Uiso   1.00
H37    H     0.79324   0.01855   0.19984   0.00000  Uiso   1.00
N38    N     0.43094   0.89450   0.76298   0.00000  Uiso   1.00
N39    N     0.15195   0.89450   0.98491   0.00000  Uiso   1.00
N40    N     0.79319   0.89450   0.22974   0.00000  Uiso   1.00
C41    C     0.79196   0.58006   0.65918   0.00000  Uiso   1.00
C42    C     0.69246   0.65770   0.68777   0.00000  Uiso   1.00
C43    C     0.60880   0.56199   0.71182   0.00000  Uiso   1.00
C44    C     0.52504   0.65753   0.73591   0.00000  Uiso   1.00
C45    C     0.89117   0.65770   0.74895   0.00000  Uiso   1.00
C46    C     0.97459   0.56199   0.82443   0.00000  Uiso   1.00
C47    C     0.05811   0.65753   0.90002   0.00000  Uiso   1.00
C48    C     0.79227   0.65770   0.54082   0.00000  Uiso   1.00
C49    C     0.79257   0.56198   0.44132   0.00000  Uiso   1.00
C50    C     0.79286   0.65753   0.34168   0.00000  Uiso   1.00
H51    H     0.79197   0.43634   0.65918   0.00000  Uiso   1.00
H52    H     0.60883   0.41913   0.71182   0.00000  Uiso   1.00
H53    H     0.97457   0.41913   0.82441   0.00000  Uiso   1.00
H54    H     0.79257   0.41913   0.44135   0.00000  Uiso   1.00
H55    H     0.40582   0.48145   0.77023   0.00000  Uiso   1.00
H56    H     0.17701   0.48145   0.00759   0.00000  Uiso   1.00
H57    H     0.79324   0.48145   0.19984   0.00000  Uiso   1.00
N58    N     0.43094   0.60550   0.76298   0.00000  Uiso   1.00
N59    N     0.15195   0.60550   0.98491   0.00000  Uiso   1.00
N60    N     0.79319   0.60550   0.22974   0.00000  Uiso   1.00
C61    C     0.20804   0.08006   0.34082   0.00000  Uiso   1.00
C62    C     0.30754   0.15770   0.31223   0.00000  Uiso   1.00
C63    C     0.39120   0.06199   0.28818   0.00000  Uiso   1.00
C64    C     0.47496   0.15753   0.26409   0.00000  Uiso   1.00
C65    C     0.10883   0.15770   0.25105   0.00000  Uiso   1.00
C66    C     0.02541   0.06199   0.17557   0.00000  Uiso   1.00
C67    C     0.94189   0.15753   0.09998   0.00000  Uiso   1.00
C68    C     0.20773   0.15770   0.45918   0.00000  Uiso   1.00
C69    C     0.20743   0.06198   0.55868   0.00000  Uiso   1.00
C70    C     0.20714   0.15753   0.65832   0.00000  Uiso   1.00
H71    H     0.20803   0.93634   0.34082   0.00000  Uiso   1.00
H72    H     0.39117   0.91913   0.28818   0.00000  Uiso   1.00
H73    H     0.02543   0.91913   0.17559   0.00000  Uiso   1.00
H74    H     0.20743   0.91913   0.55865   0.00000  Uiso   1.00
H75    H     0.59418   0.98145   0.22977   0.00000  Uiso   1.00
H76    H     0.82299   0.98145   0.99241   0.00000  Uiso   1.00
H77    H     0.20676   0.98145   0.80016   0.00000  Uiso   1.00
N78    N     0.56906   0.10550   0.23702   0.00000  Uiso   1.00
N79    N     0.84805   0.10550   0.01509   0.00000  Uiso   1.00
N80    N     0.20681   0.10550   0.77026   0.00000  Uiso   1.00
C81    C     0.62944   0.25000   0.21964   0.00000  Uiso   1.00
C82    C     0.78783   0.25000   0.96060   0.00000  Uiso   1.00
C83    C     0.20663   0.25000   0.84209   0.00000  Uiso   1.00
O84    O     0.71464   0.25000   0.19510   0.00000  Uiso   1.00
O85    O     0.70286   0.25000   0.88371   0.00000  Uiso   1.00
O86    O     0.20636   0.25000   0.94346   0.00000  Uiso   1.00
C87    C     0.37056   0.75000   0.78036   0.00000  Uiso   1.00
C88    C     0.21217   0.75000   0.03940   0.00000  Uiso   1.00
C89    C     0.79337   0.75000   0.15791   0.00000  Uiso   1.00
O90    O     0.28536   0.75000   0.80490   0.00000  Uiso   1.00
O91    O     0.29714   0.75000   0.11629   0.00000  Uiso   1.00
O92    O     0.79364   0.75000   0.05654   0.00000  Uiso   1.00
