data_job_00450
_audit_creation_date              2018-12-19
_audit_creation_method            'Materials Studio'
_symmetry_space_group_name_H-M    'P1'
_symmetry_Int_Tables_number       1
_symmetry_cell_setting            triclinic
loop_
_symmetry_equiv_pos_as_xyz
  x,y,z
_cell_length_a                    7.3817
_cell_length_b                    18.4340
_cell_length_c                    20.3086
_cell_angle_alpha                 90.0000
_cell_angle_beta                  111.3462
_cell_angle_gamma                 90.0000
loop_
_atom_site_label
_atom_site_type_symbol
_atom_site_fract_x
_atom_site_fract_y
_atom_site_fract_z
_atom_site_U_iso_or_equiv
_atom_site_adp_type
_atom_site_occupancy
C1     C     0.73527   0.93630   0.81062   0.00000  Uiso   1.00
C2     C     0.69260   0.00239   0.84777   0.00000  Uiso   1.00
C3     C     0.82222   0.05795   0.87905   0.00000  Uiso   1.00
C4     C     0.75528   0.11358   0.91032   0.00000  Uiso   1.00
C5     C     0.71792   0.21618   0.96804   0.00000  Uiso   1.00
C6     C     0.69267   0.87022   0.84780   0.00000  Uiso   1.00
C7     C     0.82235   0.81467   0.87910   0.00000  Uiso   1.00
C8     C     0.75546   0.75904   0.91039   0.00000  Uiso   1.00
C9     C     0.71816   0.65643   0.96812   0.00000  Uiso   1.00
C10    C     0.58113   0.93627   0.73624   0.00000  Uiso   1.00
C11    C     0.61701   0.93622   0.67374   0.00000  Uiso   1.00
C12    C     0.45620   0.93618   0.61110   0.00000  Uiso   1.00
C13    C     0.24571   0.93611   0.49561   0.00000  Uiso   1.00
C14    C     0.38590   0.93628   0.81053   0.00000  Uiso   1.00
C15    C     0.50283   0.00237   0.84772   0.00000  Uiso   1.00
C16    C     0.43568   0.05793   0.87895   0.00000  Uiso   1.00
C17    C     0.56517   0.11358   0.91027   0.00000  Uiso   1.00
C18    C     0.50291   0.87021   0.84775   0.00000  Uiso   1.00
C19    C     0.43581   0.81465   0.87900   0.00000  Uiso   1.00
C20    C     0.56535   0.75903   0.91034   0.00000  Uiso   1.00
C21    C     0.39136   0.93626   0.73619   0.00000  Uiso   1.00
C22    C     0.23046   0.93621   0.67364   0.00000  Uiso   1.00
C23    C     0.26609   0.93617   0.61105   0.00000  Uiso   1.00
H24    H     0.88302   0.93630   0.81066   0.00000  Uiso   1.00
H25    H     0.96908   0.05794   0.87908   0.00000  Uiso   1.00
H26    H     0.96919   0.81469   0.87912   0.00000  Uiso   1.00
H27    H     0.76388   0.93623   0.67380   0.00000  Uiso   1.00
H28    H     0.98082   0.19278   0.95494   0.00000  Uiso   1.00
H29    H     0.98104   0.67986   0.95501   0.00000  Uiso   1.00
H30    H     0.54811   0.93615   0.52203   0.00000  Uiso   1.00
H31    H     0.23815   0.93627   0.81049   0.00000  Uiso   1.00
H32    H     0.28882   0.05791   0.87890   0.00000  Uiso   1.00
H33    H     0.28894   0.81465   0.87895   0.00000  Uiso   1.00
H34    H     0.08363   0.93620   0.67362   0.00000  Uiso   1.00
H35    H     0.42870   0.19275   0.95480   0.00000  Uiso   1.00
H36    H     0.42893   0.67983   0.95487   0.00000  Uiso   1.00
H37    H     0.99599   0.93612   0.52189   0.00000  Uiso   1.00
O38    O     0.74975   0.27277   0.99990   0.00000  Uiso   1.00
O39    O     0.75004   0.59984   0.99998   0.00000  Uiso   1.00
O40    O     0.18204   0.93609   0.43192   0.00000  Uiso   1.00
N41    N     0.84391   0.17609   0.94551   0.00000  Uiso   1.00
N42    N     0.84413   0.69654   0.94558   0.00000  Uiso   1.00
N43    N     0.43937   0.93614   0.54078   0.00000  Uiso   1.00
N44    N     0.54682   0.17607   0.94543   0.00000  Uiso   1.00
N45    N     0.54704   0.69653   0.94550   0.00000  Uiso   1.00
N46    N     0.14228   0.93612   0.54070   0.00000  Uiso   1.00
C47    C     0.26473   0.43630   0.68938   0.00000  Uiso   1.00
C48    C     0.30740   0.50239   0.65223   0.00000  Uiso   1.00
C49    C     0.17778   0.55795   0.62095   0.00000  Uiso   1.00
C50    C     0.24472   0.61358   0.58968   0.00000  Uiso   1.00
C51    C     0.28208   0.71618   0.53196   0.00000  Uiso   1.00
C52    C     0.30733   0.37022   0.65220   0.00000  Uiso   1.00
C53    C     0.17765   0.31467   0.62090   0.00000  Uiso   1.00
C54    C     0.24454   0.25904   0.58961   0.00000  Uiso   1.00
C55    C     0.28184   0.15643   0.53188   0.00000  Uiso   1.00
C56    C     0.41887   0.43627   0.76376   0.00000  Uiso   1.00
C57    C     0.38299   0.43622   0.82626   0.00000  Uiso   1.00
C58    C     0.54380   0.43618   0.88890   0.00000  Uiso   1.00
C59    C     0.75429   0.43611   0.00439   0.00000  Uiso   1.00
C60    C     0.61410   0.43628   0.68947   0.00000  Uiso   1.00
C61    C     0.49717   0.50237   0.65228   0.00000  Uiso   1.00
C62    C     0.56432   0.55793   0.62105   0.00000  Uiso   1.00
C63    C     0.43483   0.61358   0.58973   0.00000  Uiso   1.00
C64    C     0.49709   0.37021   0.65225   0.00000  Uiso   1.00
C65    C     0.56419   0.31465   0.62100   0.00000  Uiso   1.00
C66    C     0.43465   0.25903   0.58966   0.00000  Uiso   1.00
C67    C     0.60864   0.43626   0.76381   0.00000  Uiso   1.00
C68    C     0.76954   0.43621   0.82636   0.00000  Uiso   1.00
C69    C     0.73391   0.43617   0.88895   0.00000  Uiso   1.00
H70    H     0.11698   0.43630   0.68934   0.00000  Uiso   1.00
H71    H     0.03092   0.55794   0.62092   0.00000  Uiso   1.00
H72    H     0.03081   0.31469   0.62088   0.00000  Uiso   1.00
H73    H     0.23612   0.43623   0.82620   0.00000  Uiso   1.00
H74    H     0.01918   0.69278   0.54506   0.00000  Uiso   1.00
H75    H     0.01896   0.17986   0.54499   0.00000  Uiso   1.00
H76    H     0.45189   0.43615   0.97797   0.00000  Uiso   1.00
H77    H     0.76185   0.43627   0.68951   0.00000  Uiso   1.00
H78    H     0.71118   0.55791   0.62110   0.00000  Uiso   1.00
H79    H     0.71106   0.31465   0.62105   0.00000  Uiso   1.00
H80    H     0.91637   0.43620   0.82638   0.00000  Uiso   1.00
H81    H     0.57130   0.69275   0.54520   0.00000  Uiso   1.00
H82    H     0.57107   0.17983   0.54513   0.00000  Uiso   1.00
H83    H     0.00401   0.43612   0.97811   0.00000  Uiso   1.00
O84    O     0.25025   0.77277   0.50010   0.00000  Uiso   1.00
O85    O     0.24996   0.09984   0.50002   0.00000  Uiso   1.00
O86    O     0.81796   0.43609   0.06808   0.00000  Uiso   1.00
N87    N     0.15609   0.67609   0.55449   0.00000  Uiso   1.00
N88    N     0.15587   0.19654   0.55442   0.00000  Uiso   1.00
N89    N     0.56063   0.43614   0.95922   0.00000  Uiso   1.00
N90    N     0.45318   0.67607   0.55457   0.00000  Uiso   1.00
N91    N     0.45296   0.19653   0.55450   0.00000  Uiso   1.00
N92    N     0.85772   0.43612   0.95930   0.00000  Uiso   1.00
C93    C     0.26473   0.06370   0.18938   0.00000  Uiso   1.00
C94    C     0.30740   0.99761   0.15223   0.00000  Uiso   1.00
C95    C     0.17778   0.94205   0.12095   0.00000  Uiso   1.00
C96    C     0.24472   0.88642   0.08968   0.00000  Uiso   1.00
C97    C     0.28208   0.78382   0.03196   0.00000  Uiso   1.00
C98    C     0.30733   0.12978   0.15220   0.00000  Uiso   1.00
C99    C     0.17765   0.18533   0.12090   0.00000  Uiso   1.00
C100   C     0.24454   0.24096   0.08961   0.00000  Uiso   1.00
C101   C     0.28184   0.34357   0.03188   0.00000  Uiso   1.00
C102   C     0.41887   0.06373   0.26376   0.00000  Uiso   1.00
C103   C     0.38299   0.06378   0.32626   0.00000  Uiso   1.00
C104   C     0.54380   0.06382   0.38890   0.00000  Uiso   1.00
C105   C     0.75429   0.06389   0.50439   0.00000  Uiso   1.00
C106   C     0.61410   0.06372   0.18947   0.00000  Uiso   1.00
C107   C     0.49717   0.99763   0.15228   0.00000  Uiso   1.00
C108   C     0.56432   0.94207   0.12105   0.00000  Uiso   1.00
C109   C     0.43483   0.88642   0.08973   0.00000  Uiso   1.00
C110   C     0.49709   0.12979   0.15225   0.00000  Uiso   1.00
C111   C     0.56419   0.18535   0.12100   0.00000  Uiso   1.00
C112   C     0.43465   0.24097   0.08966   0.00000  Uiso   1.00
C113   C     0.60864   0.06374   0.26381   0.00000  Uiso   1.00
C114   C     0.76954   0.06379   0.32636   0.00000  Uiso   1.00
C115   C     0.73391   0.06383   0.38895   0.00000  Uiso   1.00
H116   H     0.11698   0.06370   0.18934   0.00000  Uiso   1.00
H117   H     0.03092   0.94206   0.12092   0.00000  Uiso   1.00
H118   H     0.03081   0.18531   0.12088   0.00000  Uiso   1.00
H119   H     0.23612   0.06377   0.32620   0.00000  Uiso   1.00
H120   H     0.01918   0.80722   0.04506   0.00000  Uiso   1.00
H121   H     0.01896   0.32014   0.04499   0.00000  Uiso   1.00
H122   H     0.45189   0.06385   0.47797   0.00000  Uiso   1.00
H123   H     0.76185   0.06373   0.18951   0.00000  Uiso   1.00
H124   H     0.71118   0.94209   0.12110   0.00000  Uiso   1.00
H125   H     0.71106   0.18535   0.12105   0.00000  Uiso   1.00
H126   H     0.91637   0.06380   0.32638   0.00000  Uiso   1.00
H127   H     0.57130   0.80725   0.04520   0.00000  Uiso   1.00
H128   H     0.57107   0.32017   0.04513   0.00000  Uiso   1.00
H129   H     0.00401   0.06388   0.47811   0.00000  Uiso   1.00
O130   O     0.25025   0.72723   0.00010   0.00000  Uiso   1.00
O131   O     0.24996   0.40016   0.00002   0.00000  Uiso   1.00
O132   O     0.81796   0.06391   0.56808   0.00000  Uiso   1.00
N133   N     0.15609   0.82391   0.05449   0.00000  Uiso   1.00
N134   N     0.15587   0.30346   0.05442   0.00000  Uiso   1.00
N135   N     0.56063   0.06386   0.45922   0.00000  Uiso   1.00
N136   N     0.45318   0.82393   0.05457   0.00000  Uiso   1.00
N137   N     0.45296   0.30347   0.05450   0.00000  Uiso   1.00
N138   N     0.85772   0.06388   0.45930   0.00000  Uiso   1.00
C139   C     0.73527   0.56370   0.31062   0.00000  Uiso   1.00
C140   C     0.69260   0.49761   0.34777   0.00000  Uiso   1.00
C141   C     0.82222   0.44205   0.37905   0.00000  Uiso   1.00
C142   C     0.75528   0.38642   0.41032   0.00000  Uiso   1.00
C143   C     0.71792   0.28382   0.46804   0.00000  Uiso   1.00
C144   C     0.69267   0.62978   0.34780   0.00000  Uiso   1.00
C145   C     0.82235   0.68533   0.37910   0.00000  Uiso   1.00
C146   C     0.75546   0.74096   0.41039   0.00000  Uiso   1.00
C147   C     0.71816   0.84357   0.46812   0.00000  Uiso   1.00
C148   C     0.58113   0.56373   0.23624   0.00000  Uiso   1.00
C149   C     0.61701   0.56378   0.17374   0.00000  Uiso   1.00
C150   C     0.45620   0.56382   0.11110   0.00000  Uiso   1.00
C151   C     0.24571   0.56389   0.99561   0.00000  Uiso   1.00
C152   C     0.38590   0.56372   0.31053   0.00000  Uiso   1.00
C153   C     0.50283   0.49763   0.34772   0.00000  Uiso   1.00
C154   C     0.43568   0.44207   0.37895   0.00000  Uiso   1.00
C155   C     0.56517   0.38642   0.41027   0.00000  Uiso   1.00
C156   C     0.50291   0.62979   0.34775   0.00000  Uiso   1.00
C157   C     0.43581   0.68535   0.37900   0.00000  Uiso   1.00
C158   C     0.56535   0.74097   0.41034   0.00000  Uiso   1.00
C159   C     0.39136   0.56374   0.23619   0.00000  Uiso   1.00
C160   C     0.23046   0.56379   0.17364   0.00000  Uiso   1.00
C161   C     0.26609   0.56383   0.11105   0.00000  Uiso   1.00
H162   H     0.88302   0.56370   0.31066   0.00000  Uiso   1.00
H163   H     0.96908   0.44206   0.37908   0.00000  Uiso   1.00
H164   H     0.96919   0.68531   0.37912   0.00000  Uiso   1.00
H165   H     0.76388   0.56377   0.17380   0.00000  Uiso   1.00
H166   H     0.98082   0.30722   0.45494   0.00000  Uiso   1.00
H167   H     0.98104   0.82014   0.45501   0.00000  Uiso   1.00
H168   H     0.54811   0.56385   0.02203   0.00000  Uiso   1.00
H169   H     0.23815   0.56373   0.31049   0.00000  Uiso   1.00
H170   H     0.28882   0.44209   0.37890   0.00000  Uiso   1.00
H171   H     0.28894   0.68535   0.37895   0.00000  Uiso   1.00
H172   H     0.08363   0.56380   0.17362   0.00000  Uiso   1.00
H173   H     0.42870   0.30725   0.45480   0.00000  Uiso   1.00
H174   H     0.42893   0.82017   0.45487   0.00000  Uiso   1.00
H175   H     0.99599   0.56388   0.02189   0.00000  Uiso   1.00
O176   O     0.74975   0.22723   0.49990   0.00000  Uiso   1.00
O177   O     0.75004   0.90016   0.49998   0.00000  Uiso   1.00
O178   O     0.18204   0.56391   0.93192   0.00000  Uiso   1.00
N179   N     0.84391   0.32391   0.44551   0.00000  Uiso   1.00
N180   N     0.84413   0.80346   0.44558   0.00000  Uiso   1.00
N181   N     0.43937   0.56386   0.04078   0.00000  Uiso   1.00
N182   N     0.54682   0.32393   0.44543   0.00000  Uiso   1.00
N183   N     0.54704   0.80347   0.44550   0.00000  Uiso   1.00
N184   N     0.14228   0.56388   0.04070   0.00000  Uiso   1.00
