data_job_01176
_audit_creation_date              2018-12-19
_audit_creation_method            'Materials Studio'
_symmetry_space_group_name_H-M    'P1'
_symmetry_Int_Tables_number       1
_symmetry_cell_setting            triclinic
loop_
_symmetry_equiv_pos_as_xyz
  x,y,z
_cell_length_a                    9.4359
_cell_length_b                    12.4636
_cell_length_c                    20.8600
_cell_angle_alpha                 90.0000
_cell_angle_beta                  106.0658
_cell_angle_gamma                 90.0000
loop_
_atom_site_label
_atom_site_type_symbol
_atom_site_fract_x
_atom_site_fract_y
_atom_site_fract_z
_atom_site_U_iso_or_equiv
_atom_site_adp_type
_atom_site_occupancy
C1     C     0.29579   0.82358   0.10622   0.00000  Uiso   1.00
C2     C     0.29058   0.72201   0.06487   0.00000  Uiso   1.00
C3     C     0.34725   0.71110   0.01051   0.00000  Uiso   1.00
C4     C     0.33140   0.61163   0.97937   0.00000  Uiso   1.00
C5     C     0.33390   0.46693   0.91174   0.00000  Uiso   1.00
C6     C     0.13632   0.84874   0.10396   0.00000  Uiso   1.00
C7     C     0.06331   0.94441   0.08248   0.00000  Uiso   1.00
C8     C     0.91761   0.95162   0.08425   0.00000  Uiso   1.00
C9     C     0.68067   0.00370   0.07735   0.00000  Uiso   1.00
C10    C     0.37209   0.79222   0.17816   0.00000  Uiso   1.00
C11    C     0.49729   0.84037   0.21907   0.00000  Uiso   1.00
C12    C     0.55006   0.80001   0.28332   0.00000  Uiso   1.00
C13    C     0.67918   0.76433   0.39162   0.00000  Uiso   1.00
C14    C     0.16686   0.66631   0.14758   0.00000  Uiso   1.00
C15    C     0.22055   0.63659   0.08734   0.00000  Uiso   1.00
C16    C     0.20461   0.53710   0.05628   0.00000  Uiso   1.00
C17    C     0.26125   0.52605   0.00188   0.00000  Uiso   1.00
C18    C     0.06629   0.76333   0.12643   0.00000  Uiso   1.00
C19    C     0.92067   0.77040   0.12824   0.00000  Uiso   1.00
C20    C     0.84745   0.86605   0.10676   0.00000  Uiso   1.00
C21    C     0.30206   0.70679   0.20063   0.00000  Uiso   1.00
C22    C     0.35465   0.66636   0.26483   0.00000  Uiso   1.00
C23    C     0.47991   0.71444   0.30583   0.00000  Uiso   1.00
H24    H     0.35030   0.89009   0.08873   0.00000  Uiso   1.00
H25    H     0.40143   0.77723   0.99314   0.00000  Uiso   1.00
H26    H     0.11754   0.01050   0.06510   0.00000  Uiso   1.00
H27    H     0.55145   0.90647   0.20166   0.00000  Uiso   1.00
H28    H     0.42718   0.61445   0.89705   0.00000  Uiso   1.00
H29    H     0.82861   0.10632   0.04881   0.00000  Uiso   1.00
H30    H     0.74359   0.88696   0.33679   0.00000  Uiso   1.00
H31    H     0.11233   0.59980   0.16507   0.00000  Uiso   1.00
H32    H     0.15041   0.47101   0.07367   0.00000  Uiso   1.00
H33    H     0.86652   0.70428   0.14563   0.00000  Uiso   1.00
H34    H     0.30043   0.60026   0.28220   0.00000  Uiso   1.00
H35    H     0.22344   0.36592   0.96242   0.00000  Uiso   1.00
H36    H     0.62486   0.85779   0.11417   0.00000  Uiso   1.00
H37    H     0.53985   0.63843   0.40215   0.00000  Uiso   1.00
O38    O     0.35460   0.41071   0.86822   0.00000  Uiso   1.00
O39    O     0.56931   0.05603   0.06733   0.00000  Uiso   1.00
O40    O     0.76975   0.76824   0.44514   0.00000  Uiso   1.00
N41    N     0.37403   0.57363   0.92499   0.00000  Uiso   1.00
N42    N     0.81439   0.03349   0.06686   0.00000  Uiso   1.00
N43    N     0.66980   0.82843   0.33610   0.00000  Uiso   1.00
N44    N     0.26440   0.43989   0.96016   0.00000  Uiso   1.00
N45    N     0.70476   0.89975   0.10203   0.00000  Uiso   1.00
N46    N     0.56017   0.69469   0.37127   0.00000  Uiso   1.00
C47    C     0.70421   0.32358   0.39378   0.00000  Uiso   1.00
C48    C     0.70942   0.22201   0.43513   0.00000  Uiso   1.00
C49    C     0.65275   0.21110   0.48949   0.00000  Uiso   1.00
C50    C     0.66860   0.11163   0.52063   0.00000  Uiso   1.00
C51    C     0.66610   0.96693   0.58826   0.00000  Uiso   1.00
C52    C     0.86368   0.34874   0.39604   0.00000  Uiso   1.00
C53    C     0.93669   0.44441   0.41752   0.00000  Uiso   1.00
C54    C     0.08239   0.45162   0.41575   0.00000  Uiso   1.00
C55    C     0.31933   0.50370   0.42265   0.00000  Uiso   1.00
C56    C     0.62791   0.29222   0.32184   0.00000  Uiso   1.00
C57    C     0.50271   0.34037   0.28093   0.00000  Uiso   1.00
C58    C     0.44994   0.30001   0.21668   0.00000  Uiso   1.00
C59    C     0.32082   0.26433   0.10838   0.00000  Uiso   1.00
C60    C     0.83314   0.16631   0.35242   0.00000  Uiso   1.00
C61    C     0.77945   0.13659   0.41266   0.00000  Uiso   1.00
C62    C     0.79539   0.03710   0.44372   0.00000  Uiso   1.00
C63    C     0.73875   0.02605   0.49812   0.00000  Uiso   1.00
C64    C     0.93371   0.26333   0.37357   0.00000  Uiso   1.00
C65    C     0.07933   0.27040   0.37176   0.00000  Uiso   1.00
C66    C     0.15255   0.36605   0.39324   0.00000  Uiso   1.00
C67    C     0.69794   0.20679   0.29937   0.00000  Uiso   1.00
C68    C     0.64535   0.16636   0.23517   0.00000  Uiso   1.00
C69    C     0.52009   0.21444   0.19417   0.00000  Uiso   1.00
H70    H     0.64970   0.39009   0.41127   0.00000  Uiso   1.00
H71    H     0.59857   0.27723   0.50686   0.00000  Uiso   1.00
H72    H     0.88246   0.51050   0.43490   0.00000  Uiso   1.00
H73    H     0.44855   0.40647   0.29834   0.00000  Uiso   1.00
H74    H     0.57282   0.11445   0.60295   0.00000  Uiso   1.00
H75    H     0.17139   0.60632   0.45119   0.00000  Uiso   1.00
H76    H     0.25641   0.38696   0.16321   0.00000  Uiso   1.00
H77    H     0.88767   0.09980   0.33493   0.00000  Uiso   1.00
H78    H     0.84959   0.97101   0.42633   0.00000  Uiso   1.00
H79    H     0.13348   0.20428   0.35437   0.00000  Uiso   1.00
H80    H     0.69957   0.10026   0.21780   0.00000  Uiso   1.00
H81    H     0.77656   0.86592   0.53758   0.00000  Uiso   1.00
H82    H     0.37514   0.35779   0.38583   0.00000  Uiso   1.00
H83    H     0.46015   0.13843   0.09785   0.00000  Uiso   1.00
O84    O     0.64540   0.91071   0.63178   0.00000  Uiso   1.00
O85    O     0.43069   0.55603   0.43267   0.00000  Uiso   1.00
O86    O     0.23025   0.26824   0.05486   0.00000  Uiso   1.00
N87    N     0.62597   0.07363   0.57501   0.00000  Uiso   1.00
N88    N     0.18561   0.53349   0.43314   0.00000  Uiso   1.00
N89    N     0.33020   0.32843   0.16390   0.00000  Uiso   1.00
N90    N     0.73560   0.93989   0.53984   0.00000  Uiso   1.00
N91    N     0.29524   0.39975   0.39797   0.00000  Uiso   1.00
N92    N     0.43983   0.19469   0.12873   0.00000  Uiso   1.00
C93    C     0.70421   0.17642   0.89378   0.00000  Uiso   1.00
C94    C     0.70942   0.27799   0.93513   0.00000  Uiso   1.00
C95    C     0.65275   0.28890   0.98949   0.00000  Uiso   1.00
C96    C     0.66860   0.38837   0.02063   0.00000  Uiso   1.00
C97    C     0.66610   0.53307   0.08826   0.00000  Uiso   1.00
C98    C     0.86368   0.15126   0.89604   0.00000  Uiso   1.00
C99    C     0.93669   0.05559   0.91752   0.00000  Uiso   1.00
C100   C     0.08239   0.04838   0.91575   0.00000  Uiso   1.00
C101   C     0.31933   0.99630   0.92265   0.00000  Uiso   1.00
C102   C     0.62791   0.20778   0.82184   0.00000  Uiso   1.00
C103   C     0.50271   0.15963   0.78093   0.00000  Uiso   1.00
C104   C     0.44994   0.19999   0.71668   0.00000  Uiso   1.00
C105   C     0.32082   0.23567   0.60838   0.00000  Uiso   1.00
C106   C     0.83314   0.33369   0.85242   0.00000  Uiso   1.00
C107   C     0.77945   0.36341   0.91266   0.00000  Uiso   1.00
C108   C     0.79539   0.46290   0.94372   0.00000  Uiso   1.00
C109   C     0.73875   0.47395   0.99812   0.00000  Uiso   1.00
C110   C     0.93371   0.23667   0.87357   0.00000  Uiso   1.00
C111   C     0.07933   0.22960   0.87176   0.00000  Uiso   1.00
C112   C     0.15255   0.13395   0.89324   0.00000  Uiso   1.00
C113   C     0.69794   0.29321   0.79937   0.00000  Uiso   1.00
C114   C     0.64535   0.33364   0.73517   0.00000  Uiso   1.00
C115   C     0.52009   0.28556   0.69417   0.00000  Uiso   1.00
H116   H     0.64970   0.10991   0.91127   0.00000  Uiso   1.00
H117   H     0.59857   0.22277   0.00686   0.00000  Uiso   1.00
H118   H     0.88246   0.98950   0.93490   0.00000  Uiso   1.00
H119   H     0.44855   0.09353   0.79834   0.00000  Uiso   1.00
H120   H     0.57282   0.38555   0.10295   0.00000  Uiso   1.00
H121   H     0.17139   0.89368   0.95119   0.00000  Uiso   1.00
H122   H     0.25641   0.11304   0.66321   0.00000  Uiso   1.00
H123   H     0.88767   0.40020   0.83493   0.00000  Uiso   1.00
H124   H     0.84959   0.52899   0.92633   0.00000  Uiso   1.00
H125   H     0.13348   0.29572   0.85437   0.00000  Uiso   1.00
H126   H     0.69957   0.39974   0.71780   0.00000  Uiso   1.00
H127   H     0.77656   0.63408   0.03758   0.00000  Uiso   1.00
H128   H     0.37514   0.14221   0.88583   0.00000  Uiso   1.00
H129   H     0.46015   0.36157   0.59785   0.00000  Uiso   1.00
O130   O     0.64540   0.58929   0.13178   0.00000  Uiso   1.00
O131   O     0.43069   0.94397   0.93267   0.00000  Uiso   1.00
O132   O     0.23025   0.23176   0.55486   0.00000  Uiso   1.00
N133   N     0.62597   0.42637   0.07501   0.00000  Uiso   1.00
N134   N     0.18561   0.96651   0.93314   0.00000  Uiso   1.00
N135   N     0.33020   0.17157   0.66390   0.00000  Uiso   1.00
N136   N     0.73560   0.56011   0.03984   0.00000  Uiso   1.00
N137   N     0.29524   0.10025   0.89797   0.00000  Uiso   1.00
N138   N     0.43983   0.30531   0.62873   0.00000  Uiso   1.00
C139   C     0.29579   0.67642   0.60622   0.00000  Uiso   1.00
C140   C     0.29058   0.77799   0.56487   0.00000  Uiso   1.00
C141   C     0.34725   0.78890   0.51051   0.00000  Uiso   1.00
C142   C     0.33140   0.88837   0.47937   0.00000  Uiso   1.00
C143   C     0.33390   0.03307   0.41174   0.00000  Uiso   1.00
C144   C     0.13632   0.65126   0.60396   0.00000  Uiso   1.00
C145   C     0.06331   0.55559   0.58248   0.00000  Uiso   1.00
C146   C     0.91761   0.54838   0.58425   0.00000  Uiso   1.00
C147   C     0.68067   0.49630   0.57735   0.00000  Uiso   1.00
C148   C     0.37209   0.70778   0.67816   0.00000  Uiso   1.00
C149   C     0.49729   0.65963   0.71907   0.00000  Uiso   1.00
C150   C     0.55006   0.69999   0.78332   0.00000  Uiso   1.00
C151   C     0.67918   0.73567   0.89162   0.00000  Uiso   1.00
C152   C     0.16686   0.83369   0.64758   0.00000  Uiso   1.00
C153   C     0.22055   0.86341   0.58734   0.00000  Uiso   1.00
C154   C     0.20461   0.96290   0.55628   0.00000  Uiso   1.00
C155   C     0.26125   0.97395   0.50188   0.00000  Uiso   1.00
C156   C     0.06629   0.73667   0.62643   0.00000  Uiso   1.00
C157   C     0.92067   0.72960   0.62824   0.00000  Uiso   1.00
C158   C     0.84745   0.63395   0.60676   0.00000  Uiso   1.00
C159   C     0.30206   0.79321   0.70063   0.00000  Uiso   1.00
C160   C     0.35465   0.83364   0.76483   0.00000  Uiso   1.00
C161   C     0.47991   0.78556   0.80583   0.00000  Uiso   1.00
H162   H     0.35030   0.60991   0.58873   0.00000  Uiso   1.00
H163   H     0.40143   0.72277   0.49314   0.00000  Uiso   1.00
H164   H     0.11754   0.48950   0.56510   0.00000  Uiso   1.00
H165   H     0.55145   0.59353   0.70166   0.00000  Uiso   1.00
H166   H     0.42718   0.88555   0.39705   0.00000  Uiso   1.00
H167   H     0.82861   0.39368   0.54881   0.00000  Uiso   1.00
H168   H     0.74359   0.61304   0.83679   0.00000  Uiso   1.00
H169   H     0.11233   0.90020   0.66507   0.00000  Uiso   1.00
H170   H     0.15041   0.02899   0.57367   0.00000  Uiso   1.00
H171   H     0.86652   0.79572   0.64563   0.00000  Uiso   1.00
H172   H     0.30043   0.89974   0.78220   0.00000  Uiso   1.00
H173   H     0.22344   0.13408   0.46242   0.00000  Uiso   1.00
H174   H     0.62486   0.64221   0.61417   0.00000  Uiso   1.00
H175   H     0.53985   0.86157   0.90215   0.00000  Uiso   1.00
O176   O     0.35460   0.08929   0.36822   0.00000  Uiso   1.00
O177   O     0.56931   0.44397   0.56733   0.00000  Uiso   1.00
O178   O     0.76975   0.73176   0.94514   0.00000  Uiso   1.00
N179   N     0.37403   0.92637   0.42499   0.00000  Uiso   1.00
N180   N     0.81439   0.46651   0.56686   0.00000  Uiso   1.00
N181   N     0.66980   0.67157   0.83610   0.00000  Uiso   1.00
N182   N     0.26440   0.06011   0.46016   0.00000  Uiso   1.00
N183   N     0.70476   0.60025   0.60203   0.00000  Uiso   1.00
N184   N     0.56017   0.80531   0.87127   0.00000  Uiso   1.00
