data_job_04459
_audit_creation_date              2018-12-19
_audit_creation_method            'Materials Studio'
_symmetry_space_group_name_H-M    'P1'
_symmetry_Int_Tables_number       1
_symmetry_cell_setting            triclinic
loop_
_symmetry_equiv_pos_as_xyz
  x,y,z
_cell_length_a                    24.2272
_cell_length_b                    9.9060
_cell_length_c                    22.6667
_cell_angle_alpha                 90.0000
_cell_angle_beta                  90.0000
_cell_angle_gamma                 90.0000
loop_
_atom_site_label
_atom_site_type_symbol
_atom_site_fract_x
_atom_site_fract_y
_atom_site_fract_z
_atom_site_U_iso_or_equiv
_atom_site_adp_type
_atom_site_occupancy
C1     C     0.43138   0.15573   0.64169   0.00000  Uiso   1.00
C2     C     0.38863   0.19299   0.59508   0.00000  Uiso   1.00
C3     C     0.39362   0.29612   0.55399   0.00000  Uiso   1.00
C4     C     0.34994   0.31405   0.51511   0.00000  Uiso   1.00
C5     C     0.29069   0.38448   0.44242   0.00000  Uiso   1.00
C6     C     0.40161   0.16338   0.70088   0.00000  Uiso   1.00
C7     C     0.41752   0.24161   0.74874   0.00000  Uiso   1.00
C8     C     0.38479   0.23460   0.79892   0.00000  Uiso   1.00
C9     C     0.34571   0.25899   0.89049   0.00000  Uiso   1.00
C10    C     0.44467   0.00695   0.63189   0.00000  Uiso   1.00
C11    C     0.49679   0.95363   0.62175   0.00000  Uiso   1.00
C12    C     0.50030   0.81490   0.61386   0.00000  Uiso   1.00
C13    C     0.52808   0.59639   0.59832   0.00000  Uiso   1.00
C14    C     0.34495   0.00415   0.64572   0.00000  Uiso   1.00
C15    C     0.34168   0.11066   0.59727   0.00000  Uiso   1.00
C16    C     0.29799   0.12843   0.55844   0.00000  Uiso   1.00
C17    C     0.30291   0.23157   0.51730   0.00000  Uiso   1.00
C18    C     0.35467   0.08106   0.70306   0.00000  Uiso   1.00
C19    C     0.32190   0.07392   0.75319   0.00000  Uiso   1.00
C20    C     0.33775   0.15212   0.80111   0.00000  Uiso   1.00
C21    C     0.39772   0.92461   0.63407   0.00000  Uiso   1.00
C22    C     0.40116   0.78594   0.62620   0.00000  Uiso   1.00
C23    C     0.45327   0.73242   0.61605   0.00000  Uiso   1.00
H24    H     0.46793   0.21982   0.64000   0.00000  Uiso   1.00
H25    H     0.42995   0.35982   0.55232   0.00000  Uiso   1.00
H26    H     0.45386   0.30531   0.74704   0.00000  Uiso   1.00
H27    H     0.53311   0.01737   0.62007   0.00000  Uiso   1.00
H28    H     0.36713   0.47877   0.45609   0.00000  Uiso   1.00
H29    H     0.41756   0.36378   0.86667   0.00000  Uiso   1.00
H30    H     0.58467   0.75661   0.59893   0.00000  Uiso   1.00
H31    H     0.30840   0.94005   0.64742   0.00000  Uiso   1.00
H32    H     0.26166   0.06470   0.56014   0.00000  Uiso   1.00
H33    H     0.28557   0.01019   0.75486   0.00000  Uiso   1.00
H34    H     0.36482   0.72226   0.62789   0.00000  Uiso   1.00
H35    H     0.23054   0.23924   0.46244   0.00000  Uiso   1.00
H36    H     0.28097   0.12425   0.87302   0.00000  Uiso   1.00
H37    H     0.44808   0.51708   0.60528   0.00000  Uiso   1.00
O38    O     0.27097   0.44608   0.40173   0.00000  Uiso   1.00
O39    O     0.33713   0.29520   0.94040   0.00000  Uiso   1.00
O40    O     0.55637   0.49861   0.58913   0.00000  Uiso   1.00
N41    N     0.34141   0.40527   0.46955   0.00000  Uiso   1.00
N42    N     0.38854   0.29778   0.85342   0.00000  Uiso   1.00
N43    N     0.54478   0.73012   0.60312   0.00000  Uiso   1.00
N44    N     0.26791   0.27638   0.47297   0.00000  Uiso   1.00
N45    N     0.31505   0.16889   0.85683   0.00000  Uiso   1.00
N46    N     0.47128   0.60124   0.60654   0.00000  Uiso   1.00
C47    C     0.06862   0.34427   0.14169   0.00000  Uiso   1.00
C48    C     0.11137   0.30701   0.09508   0.00000  Uiso   1.00
C49    C     0.10638   0.20388   0.05399   0.00000  Uiso   1.00
C50    C     0.15006   0.18595   0.01511   0.00000  Uiso   1.00
C51    C     0.20931   0.11552   0.94242   0.00000  Uiso   1.00
C52    C     0.09839   0.33662   0.20088   0.00000  Uiso   1.00
C53    C     0.08248   0.25839   0.24874   0.00000  Uiso   1.00
C54    C     0.11521   0.26540   0.29892   0.00000  Uiso   1.00
C55    C     0.15429   0.24101   0.39049   0.00000  Uiso   1.00
C56    C     0.05533   0.49305   0.13189   0.00000  Uiso   1.00
C57    C     0.00321   0.54637   0.12175   0.00000  Uiso   1.00
C58    C     0.99970   0.68510   0.11386   0.00000  Uiso   1.00
C59    C     0.97192   0.90361   0.09832   0.00000  Uiso   1.00
C60    C     0.15505   0.49585   0.14572   0.00000  Uiso   1.00
C61    C     0.15832   0.38934   0.09727   0.00000  Uiso   1.00
C62    C     0.20201   0.37157   0.05844   0.00000  Uiso   1.00
C63    C     0.19709   0.26843   0.01730   0.00000  Uiso   1.00
C64    C     0.14533   0.41894   0.20306   0.00000  Uiso   1.00
C65    C     0.17810   0.42608   0.25319   0.00000  Uiso   1.00
C66    C     0.16225   0.34788   0.30111   0.00000  Uiso   1.00
C67    C     0.10228   0.57539   0.13407   0.00000  Uiso   1.00
C68    C     0.09884   0.71406   0.12620   0.00000  Uiso   1.00
C69    C     0.04673   0.76758   0.11605   0.00000  Uiso   1.00
H70    H     0.03207   0.28018   0.14000   0.00000  Uiso   1.00
H71    H     0.07005   0.14018   0.05232   0.00000  Uiso   1.00
H72    H     0.04614   0.19469   0.24704   0.00000  Uiso   1.00
H73    H     0.96689   0.48263   0.12007   0.00000  Uiso   1.00
H74    H     0.13287   0.02123   0.95609   0.00000  Uiso   1.00
H75    H     0.08244   0.13622   0.36667   0.00000  Uiso   1.00
H76    H     0.91533   0.74339   0.09893   0.00000  Uiso   1.00
H77    H     0.19160   0.55995   0.14742   0.00000  Uiso   1.00
H78    H     0.23834   0.43530   0.06014   0.00000  Uiso   1.00
H79    H     0.21443   0.48981   0.25486   0.00000  Uiso   1.00
H80    H     0.13518   0.77774   0.12789   0.00000  Uiso   1.00
H81    H     0.26946   0.26076   0.96244   0.00000  Uiso   1.00
H82    H     0.21903   0.37575   0.37302   0.00000  Uiso   1.00
H83    H     0.05192   0.98292   0.10528   0.00000  Uiso   1.00
O84    O     0.22903   0.05392   0.90173   0.00000  Uiso   1.00
O85    O     0.16287   0.20480   0.44040   0.00000  Uiso   1.00
O86    O     0.94363   0.00139   0.08913   0.00000  Uiso   1.00
N87    N     0.15859   0.09473   0.96955   0.00000  Uiso   1.00
N88    N     0.11146   0.20222   0.35342   0.00000  Uiso   1.00
N89    N     0.95522   0.76988   0.10312   0.00000  Uiso   1.00
N90    N     0.23209   0.22362   0.97297   0.00000  Uiso   1.00
N91    N     0.18495   0.33111   0.35683   0.00000  Uiso   1.00
N92    N     0.02872   0.89876   0.10654   0.00000  Uiso   1.00
C93    C     0.56862   0.15573   0.85831   0.00000  Uiso   1.00
C94    C     0.61137   0.19299   0.90492   0.00000  Uiso   1.00
C95    C     0.60638   0.29612   0.94601   0.00000  Uiso   1.00
C96    C     0.65006   0.31405   0.98489   0.00000  Uiso   1.00
C97    C     0.70931   0.38448   0.05758   0.00000  Uiso   1.00
C98    C     0.59839   0.16338   0.79912   0.00000  Uiso   1.00
C99    C     0.58248   0.24161   0.75126   0.00000  Uiso   1.00
C100   C     0.61521   0.23460   0.70108   0.00000  Uiso   1.00
C101   C     0.65429   0.25899   0.60951   0.00000  Uiso   1.00
C102   C     0.55533   0.00695   0.86811   0.00000  Uiso   1.00
C103   C     0.50321   0.95363   0.87825   0.00000  Uiso   1.00
C104   C     0.49970   0.81490   0.88614   0.00000  Uiso   1.00
C105   C     0.47192   0.59639   0.90168   0.00000  Uiso   1.00
C106   C     0.65505   0.00415   0.85428   0.00000  Uiso   1.00
C107   C     0.65832   0.11066   0.90273   0.00000  Uiso   1.00
C108   C     0.70201   0.12843   0.94156   0.00000  Uiso   1.00
C109   C     0.69709   0.23157   0.98270   0.00000  Uiso   1.00
C110   C     0.64533   0.08106   0.79694   0.00000  Uiso   1.00
C111   C     0.67810   0.07392   0.74681   0.00000  Uiso   1.00
C112   C     0.66225   0.15212   0.69889   0.00000  Uiso   1.00
C113   C     0.60228   0.92461   0.86593   0.00000  Uiso   1.00
C114   C     0.59884   0.78594   0.87380   0.00000  Uiso   1.00
C115   C     0.54673   0.73242   0.88395   0.00000  Uiso   1.00
H116   H     0.53207   0.21982   0.86000   0.00000  Uiso   1.00
H117   H     0.57005   0.35982   0.94768   0.00000  Uiso   1.00
H118   H     0.54614   0.30531   0.75296   0.00000  Uiso   1.00
H119   H     0.46689   0.01737   0.87993   0.00000  Uiso   1.00
H120   H     0.63287   0.47877   0.04391   0.00000  Uiso   1.00
H121   H     0.58244   0.36378   0.63333   0.00000  Uiso   1.00
H122   H     0.41533   0.75661   0.90107   0.00000  Uiso   1.00
H123   H     0.69160   0.94005   0.85258   0.00000  Uiso   1.00
H124   H     0.73834   0.06470   0.93986   0.00000  Uiso   1.00
H125   H     0.71443   0.01019   0.74514   0.00000  Uiso   1.00
H126   H     0.63518   0.72226   0.87211   0.00000  Uiso   1.00
H127   H     0.76946   0.23924   0.03756   0.00000  Uiso   1.00
H128   H     0.71903   0.12425   0.62698   0.00000  Uiso   1.00
H129   H     0.55192   0.51708   0.89472   0.00000  Uiso   1.00
O130   O     0.72903   0.44608   0.09827   0.00000  Uiso   1.00
O131   O     0.66287   0.29520   0.55960   0.00000  Uiso   1.00
O132   O     0.44363   0.49861   0.91087   0.00000  Uiso   1.00
N133   N     0.65859   0.40527   0.03045   0.00000  Uiso   1.00
N134   N     0.61146   0.29778   0.64658   0.00000  Uiso   1.00
N135   N     0.45522   0.73012   0.89688   0.00000  Uiso   1.00
N136   N     0.73209   0.27638   0.02703   0.00000  Uiso   1.00
N137   N     0.68495   0.16889   0.64317   0.00000  Uiso   1.00
N138   N     0.52872   0.60124   0.89346   0.00000  Uiso   1.00
C139   C     0.93138   0.34427   0.35831   0.00000  Uiso   1.00
C140   C     0.88863   0.30701   0.40492   0.00000  Uiso   1.00
C141   C     0.89362   0.20388   0.44601   0.00000  Uiso   1.00
C142   C     0.84994   0.18595   0.48489   0.00000  Uiso   1.00
C143   C     0.79069   0.11552   0.55758   0.00000  Uiso   1.00
C144   C     0.90161   0.33662   0.29912   0.00000  Uiso   1.00
C145   C     0.91752   0.25839   0.25126   0.00000  Uiso   1.00
C146   C     0.88479   0.26540   0.20108   0.00000  Uiso   1.00
C147   C     0.84571   0.24101   0.10951   0.00000  Uiso   1.00
C148   C     0.94467   0.49305   0.36811   0.00000  Uiso   1.00
C149   C     0.99679   0.54637   0.37825   0.00000  Uiso   1.00
C150   C     0.00030   0.68510   0.38614   0.00000  Uiso   1.00
C151   C     0.02808   0.90361   0.40168   0.00000  Uiso   1.00
C152   C     0.84495   0.49585   0.35428   0.00000  Uiso   1.00
C153   C     0.84168   0.38934   0.40273   0.00000  Uiso   1.00
C154   C     0.79799   0.37157   0.44156   0.00000  Uiso   1.00
C155   C     0.80291   0.26843   0.48270   0.00000  Uiso   1.00
C156   C     0.85467   0.41894   0.29694   0.00000  Uiso   1.00
C157   C     0.82190   0.42608   0.24681   0.00000  Uiso   1.00
C158   C     0.83775   0.34788   0.19889   0.00000  Uiso   1.00
C159   C     0.89772   0.57539   0.36593   0.00000  Uiso   1.00
C160   C     0.90116   0.71406   0.37380   0.00000  Uiso   1.00
C161   C     0.95327   0.76758   0.38395   0.00000  Uiso   1.00
H162   H     0.96793   0.28018   0.36000   0.00000  Uiso   1.00
H163   H     0.92995   0.14018   0.44768   0.00000  Uiso   1.00
H164   H     0.95386   0.19469   0.25296   0.00000  Uiso   1.00
H165   H     0.03311   0.48263   0.37993   0.00000  Uiso   1.00
H166   H     0.86713   0.02123   0.54391   0.00000  Uiso   1.00
H167   H     0.91756   0.13622   0.13333   0.00000  Uiso   1.00
H168   H     0.08467   0.74339   0.40107   0.00000  Uiso   1.00
H169   H     0.80840   0.55995   0.35258   0.00000  Uiso   1.00
H170   H     0.76166   0.43530   0.43986   0.00000  Uiso   1.00
H171   H     0.78557   0.48981   0.24514   0.00000  Uiso   1.00
H172   H     0.86482   0.77774   0.37211   0.00000  Uiso   1.00
H173   H     0.73054   0.26076   0.53756   0.00000  Uiso   1.00
H174   H     0.78097   0.37575   0.12698   0.00000  Uiso   1.00
H175   H     0.94808   0.98292   0.39472   0.00000  Uiso   1.00
O176   O     0.77097   0.05392   0.59827   0.00000  Uiso   1.00
O177   O     0.83713   0.20480   0.05960   0.00000  Uiso   1.00
O178   O     0.05637   0.00139   0.41087   0.00000  Uiso   1.00
N179   N     0.84141   0.09473   0.53045   0.00000  Uiso   1.00
N180   N     0.88854   0.20222   0.14658   0.00000  Uiso   1.00
N181   N     0.04478   0.76988   0.39688   0.00000  Uiso   1.00
N182   N     0.76791   0.22362   0.52703   0.00000  Uiso   1.00
N183   N     0.81505   0.33111   0.14317   0.00000  Uiso   1.00
N184   N     0.97128   0.89876   0.39346   0.00000  Uiso   1.00
C185   C     0.56862   0.84427   0.35831   0.00000  Uiso   1.00
C186   C     0.61137   0.80701   0.40492   0.00000  Uiso   1.00
C187   C     0.60638   0.70388   0.44601   0.00000  Uiso   1.00
C188   C     0.65006   0.68595   0.48489   0.00000  Uiso   1.00
C189   C     0.70931   0.61552   0.55758   0.00000  Uiso   1.00
C190   C     0.59839   0.83662   0.29912   0.00000  Uiso   1.00
C191   C     0.58248   0.75839   0.25126   0.00000  Uiso   1.00
C192   C     0.61521   0.76540   0.20108   0.00000  Uiso   1.00
C193   C     0.65429   0.74101   0.10951   0.00000  Uiso   1.00
C194   C     0.55533   0.99305   0.36811   0.00000  Uiso   1.00
C195   C     0.50321   0.04637   0.37825   0.00000  Uiso   1.00
C196   C     0.49970   0.18510   0.38614   0.00000  Uiso   1.00
C197   C     0.47192   0.40361   0.40168   0.00000  Uiso   1.00
C198   C     0.65505   0.99585   0.35428   0.00000  Uiso   1.00
C199   C     0.65832   0.88934   0.40273   0.00000  Uiso   1.00
C200   C     0.70201   0.87157   0.44156   0.00000  Uiso   1.00
C201   C     0.69709   0.76843   0.48270   0.00000  Uiso   1.00
C202   C     0.64533   0.91894   0.29694   0.00000  Uiso   1.00
C203   C     0.67810   0.92608   0.24681   0.00000  Uiso   1.00
C204   C     0.66225   0.84788   0.19889   0.00000  Uiso   1.00
C205   C     0.60228   0.07539   0.36593   0.00000  Uiso   1.00
C206   C     0.59884   0.21406   0.37380   0.00000  Uiso   1.00
C207   C     0.54673   0.26758   0.38395   0.00000  Uiso   1.00
H208   H     0.53207   0.78018   0.36000   0.00000  Uiso   1.00
H209   H     0.57005   0.64018   0.44768   0.00000  Uiso   1.00
H210   H     0.54614   0.69469   0.25296   0.00000  Uiso   1.00
H211   H     0.46689   0.98263   0.37993   0.00000  Uiso   1.00
H212   H     0.63287   0.52123   0.54391   0.00000  Uiso   1.00
H213   H     0.58244   0.63622   0.13333   0.00000  Uiso   1.00
H214   H     0.41533   0.24339   0.40107   0.00000  Uiso   1.00
H215   H     0.69160   0.05995   0.35258   0.00000  Uiso   1.00
H216   H     0.73834   0.93530   0.43986   0.00000  Uiso   1.00
H217   H     0.71443   0.98981   0.24514   0.00000  Uiso   1.00
H218   H     0.63518   0.27774   0.37211   0.00000  Uiso   1.00
H219   H     0.76946   0.76076   0.53756   0.00000  Uiso   1.00
H220   H     0.71903   0.87575   0.12698   0.00000  Uiso   1.00
H221   H     0.55192   0.48292   0.39472   0.00000  Uiso   1.00
O222   O     0.72903   0.55392   0.59827   0.00000  Uiso   1.00
O223   O     0.66287   0.70480   0.05960   0.00000  Uiso   1.00
O224   O     0.44363   0.50139   0.41087   0.00000  Uiso   1.00
N225   N     0.65859   0.59473   0.53045   0.00000  Uiso   1.00
N226   N     0.61146   0.70222   0.14658   0.00000  Uiso   1.00
N227   N     0.45522   0.26988   0.39688   0.00000  Uiso   1.00
N228   N     0.73209   0.72362   0.52703   0.00000  Uiso   1.00
N229   N     0.68495   0.83111   0.14317   0.00000  Uiso   1.00
N230   N     0.52872   0.39876   0.39346   0.00000  Uiso   1.00
C231   C     0.93138   0.65573   0.85831   0.00000  Uiso   1.00
C232   C     0.88863   0.69299   0.90492   0.00000  Uiso   1.00
C233   C     0.89362   0.79612   0.94601   0.00000  Uiso   1.00
C234   C     0.84994   0.81405   0.98489   0.00000  Uiso   1.00
C235   C     0.79069   0.88448   0.05758   0.00000  Uiso   1.00
C236   C     0.90161   0.66338   0.79912   0.00000  Uiso   1.00
C237   C     0.91752   0.74161   0.75126   0.00000  Uiso   1.00
C238   C     0.88479   0.73460   0.70108   0.00000  Uiso   1.00
C239   C     0.84571   0.75899   0.60951   0.00000  Uiso   1.00
C240   C     0.94467   0.50695   0.86811   0.00000  Uiso   1.00
C241   C     0.99679   0.45363   0.87825   0.00000  Uiso   1.00
C242   C     0.00030   0.31490   0.88614   0.00000  Uiso   1.00
C243   C     0.02808   0.09639   0.90168   0.00000  Uiso   1.00
C244   C     0.84495   0.50415   0.85428   0.00000  Uiso   1.00
C245   C     0.84168   0.61066   0.90273   0.00000  Uiso   1.00
C246   C     0.79799   0.62843   0.94156   0.00000  Uiso   1.00
C247   C     0.80291   0.73157   0.98270   0.00000  Uiso   1.00
C248   C     0.85467   0.58106   0.79694   0.00000  Uiso   1.00
C249   C     0.82190   0.57392   0.74681   0.00000  Uiso   1.00
C250   C     0.83775   0.65212   0.69889   0.00000  Uiso   1.00
C251   C     0.89772   0.42461   0.86593   0.00000  Uiso   1.00
C252   C     0.90116   0.28594   0.87380   0.00000  Uiso   1.00
C253   C     0.95327   0.23242   0.88395   0.00000  Uiso   1.00
H254   H     0.96793   0.71982   0.86000   0.00000  Uiso   1.00
H255   H     0.92995   0.85982   0.94768   0.00000  Uiso   1.00
H256   H     0.95386   0.80531   0.75296   0.00000  Uiso   1.00
H257   H     0.03311   0.51737   0.87993   0.00000  Uiso   1.00
H258   H     0.86713   0.97877   0.04391   0.00000  Uiso   1.00
H259   H     0.91756   0.86378   0.63333   0.00000  Uiso   1.00
H260   H     0.08467   0.25661   0.90107   0.00000  Uiso   1.00
H261   H     0.80840   0.44005   0.85258   0.00000  Uiso   1.00
H262   H     0.76166   0.56470   0.93986   0.00000  Uiso   1.00
H263   H     0.78557   0.51019   0.74514   0.00000  Uiso   1.00
H264   H     0.86482   0.22226   0.87211   0.00000  Uiso   1.00
H265   H     0.73054   0.73924   0.03756   0.00000  Uiso   1.00
H266   H     0.78097   0.62425   0.62698   0.00000  Uiso   1.00
H267   H     0.94808   0.01708   0.89472   0.00000  Uiso   1.00
O268   O     0.77097   0.94608   0.09827   0.00000  Uiso   1.00
O269   O     0.83713   0.79520   0.55960   0.00000  Uiso   1.00
O270   O     0.05637   0.99861   0.91087   0.00000  Uiso   1.00
N271   N     0.84141   0.90527   0.03045   0.00000  Uiso   1.00
N272   N     0.88854   0.79778   0.64658   0.00000  Uiso   1.00
N273   N     0.04478   0.23012   0.89688   0.00000  Uiso   1.00
N274   N     0.76791   0.77638   0.02703   0.00000  Uiso   1.00
N275   N     0.81505   0.66889   0.64317   0.00000  Uiso   1.00
N276   N     0.97128   0.10124   0.89346   0.00000  Uiso   1.00
C277   C     0.43138   0.84427   0.14169   0.00000  Uiso   1.00
C278   C     0.38863   0.80701   0.09508   0.00000  Uiso   1.00
C279   C     0.39362   0.70388   0.05399   0.00000  Uiso   1.00
C280   C     0.34994   0.68595   0.01511   0.00000  Uiso   1.00
C281   C     0.29069   0.61552   0.94242   0.00000  Uiso   1.00
C282   C     0.40161   0.83662   0.20088   0.00000  Uiso   1.00
C283   C     0.41752   0.75839   0.24874   0.00000  Uiso   1.00
C284   C     0.38479   0.76540   0.29892   0.00000  Uiso   1.00
C285   C     0.34571   0.74101   0.39049   0.00000  Uiso   1.00
C286   C     0.44467   0.99305   0.13189   0.00000  Uiso   1.00
C287   C     0.49679   0.04637   0.12175   0.00000  Uiso   1.00
C288   C     0.50030   0.18510   0.11386   0.00000  Uiso   1.00
C289   C     0.52808   0.40361   0.09832   0.00000  Uiso   1.00
C290   C     0.34495   0.99585   0.14572   0.00000  Uiso   1.00
C291   C     0.34168   0.88934   0.09727   0.00000  Uiso   1.00
C292   C     0.29799   0.87157   0.05844   0.00000  Uiso   1.00
C293   C     0.30291   0.76843   0.01730   0.00000  Uiso   1.00
C294   C     0.35467   0.91894   0.20306   0.00000  Uiso   1.00
C295   C     0.32190   0.92608   0.25319   0.00000  Uiso   1.00
C296   C     0.33775   0.84788   0.30111   0.00000  Uiso   1.00
C297   C     0.39772   0.07539   0.13407   0.00000  Uiso   1.00
C298   C     0.40116   0.21406   0.12620   0.00000  Uiso   1.00
C299   C     0.45327   0.26758   0.11605   0.00000  Uiso   1.00
H300   H     0.46793   0.78018   0.14000   0.00000  Uiso   1.00
H301   H     0.42995   0.64018   0.05232   0.00000  Uiso   1.00
H302   H     0.45386   0.69469   0.24704   0.00000  Uiso   1.00
H303   H     0.53311   0.98263   0.12007   0.00000  Uiso   1.00
H304   H     0.36713   0.52123   0.95609   0.00000  Uiso   1.00
H305   H     0.41756   0.63622   0.36667   0.00000  Uiso   1.00
H306   H     0.58467   0.24339   0.09893   0.00000  Uiso   1.00
H307   H     0.30840   0.05995   0.14742   0.00000  Uiso   1.00
H308   H     0.26166   0.93530   0.06014   0.00000  Uiso   1.00
H309   H     0.28557   0.98981   0.25486   0.00000  Uiso   1.00
H310   H     0.36482   0.27774   0.12789   0.00000  Uiso   1.00
H311   H     0.23054   0.76076   0.96244   0.00000  Uiso   1.00
H312   H     0.28097   0.87575   0.37302   0.00000  Uiso   1.00
H313   H     0.44808   0.48292   0.10528   0.00000  Uiso   1.00
O314   O     0.27097   0.55392   0.90173   0.00000  Uiso   1.00
O315   O     0.33713   0.70480   0.44040   0.00000  Uiso   1.00
O316   O     0.55637   0.50139   0.08913   0.00000  Uiso   1.00
N317   N     0.34141   0.59473   0.96955   0.00000  Uiso   1.00
N318   N     0.38854   0.70222   0.35342   0.00000  Uiso   1.00
N319   N     0.54478   0.26988   0.10312   0.00000  Uiso   1.00
N320   N     0.26791   0.72362   0.97297   0.00000  Uiso   1.00
N321   N     0.31505   0.83111   0.35683   0.00000  Uiso   1.00
N322   N     0.47128   0.39876   0.10654   0.00000  Uiso   1.00
C323   C     0.06862   0.65573   0.64169   0.00000  Uiso   1.00
C324   C     0.11137   0.69299   0.59508   0.00000  Uiso   1.00
C325   C     0.10638   0.79612   0.55399   0.00000  Uiso   1.00
C326   C     0.15006   0.81405   0.51511   0.00000  Uiso   1.00
C327   C     0.20931   0.88448   0.44242   0.00000  Uiso   1.00
C328   C     0.09839   0.66338   0.70088   0.00000  Uiso   1.00
C329   C     0.08248   0.74161   0.74874   0.00000  Uiso   1.00
C330   C     0.11521   0.73460   0.79892   0.00000  Uiso   1.00
C331   C     0.15429   0.75899   0.89049   0.00000  Uiso   1.00
C332   C     0.05533   0.50695   0.63189   0.00000  Uiso   1.00
C333   C     0.00321   0.45363   0.62175   0.00000  Uiso   1.00
C334   C     0.99970   0.31490   0.61386   0.00000  Uiso   1.00
C335   C     0.97192   0.09639   0.59832   0.00000  Uiso   1.00
C336   C     0.15505   0.50415   0.64572   0.00000  Uiso   1.00
C337   C     0.15832   0.61066   0.59727   0.00000  Uiso   1.00
C338   C     0.20201   0.62843   0.55844   0.00000  Uiso   1.00
C339   C     0.19709   0.73157   0.51730   0.00000  Uiso   1.00
C340   C     0.14533   0.58106   0.70306   0.00000  Uiso   1.00
C341   C     0.17810   0.57392   0.75319   0.00000  Uiso   1.00
C342   C     0.16225   0.65212   0.80111   0.00000  Uiso   1.00
C343   C     0.10228   0.42461   0.63407   0.00000  Uiso   1.00
C344   C     0.09884   0.28594   0.62620   0.00000  Uiso   1.00
C345   C     0.04673   0.23242   0.61605   0.00000  Uiso   1.00
H346   H     0.03207   0.71982   0.64000   0.00000  Uiso   1.00
H347   H     0.07005   0.85982   0.55232   0.00000  Uiso   1.00
H348   H     0.04614   0.80531   0.74704   0.00000  Uiso   1.00
H349   H     0.96689   0.51737   0.62007   0.00000  Uiso   1.00
H350   H     0.13287   0.97877   0.45609   0.00000  Uiso   1.00
H351   H     0.08244   0.86378   0.86667   0.00000  Uiso   1.00
H352   H     0.91533   0.25661   0.59893   0.00000  Uiso   1.00
H353   H     0.19160   0.44005   0.64742   0.00000  Uiso   1.00
H354   H     0.23834   0.56470   0.56014   0.00000  Uiso   1.00
H355   H     0.21443   0.51019   0.75486   0.00000  Uiso   1.00
H356   H     0.13518   0.22226   0.62789   0.00000  Uiso   1.00
H357   H     0.26946   0.73924   0.46244   0.00000  Uiso   1.00
H358   H     0.21903   0.62425   0.87302   0.00000  Uiso   1.00
H359   H     0.05192   0.01708   0.60528   0.00000  Uiso   1.00
O360   O     0.22903   0.94608   0.40173   0.00000  Uiso   1.00
O361   O     0.16287   0.79520   0.94040   0.00000  Uiso   1.00
O362   O     0.94363   0.99861   0.58913   0.00000  Uiso   1.00
N363   N     0.15859   0.90527   0.46955   0.00000  Uiso   1.00
N364   N     0.11146   0.79778   0.85342   0.00000  Uiso   1.00
N365   N     0.95522   0.23012   0.60312   0.00000  Uiso   1.00
N366   N     0.23209   0.77638   0.47297   0.00000  Uiso   1.00
N367   N     0.18495   0.66889   0.85683   0.00000  Uiso   1.00
N368   N     0.02872   0.10124   0.60654   0.00000  Uiso   1.00
