data_job_03056
_audit_creation_date              2018-12-19
_audit_creation_method            'Materials Studio'
_symmetry_space_group_name_H-M    'P1'
_symmetry_Int_Tables_number       1
_symmetry_cell_setting            triclinic
loop_
_symmetry_equiv_pos_as_xyz
  x,y,z
_cell_length_a                    21.8421
_cell_length_b                    14.6573
_cell_length_c                    33.8685
_cell_angle_alpha                 90.0000
_cell_angle_beta                  151.3371
_cell_angle_gamma                 90.0000
loop_
_atom_site_label
_atom_site_type_symbol
_atom_site_fract_x
_atom_site_fract_y
_atom_site_fract_z
_atom_site_U_iso_or_equiv
_atom_site_adp_type
_atom_site_occupancy
C1     C     0.67691   0.63497   0.97963   0.00000  Uiso   1.00
C2     C     0.71399   0.59351   0.04029   0.00000  Uiso   1.00
C3     C     0.79315   0.63354   0.11300   0.00000  Uiso   1.00
C4     C     0.81539   0.58459   0.16000   0.00000  Uiso   1.00
C5     C     0.88139   0.53325   0.25799   0.00000  Uiso   1.00
C6     C     0.71593   0.56540   0.97049   0.00000  Uiso   1.00
C7     C     0.79671   0.58179   0.98451   0.00000  Uiso   1.00
C8     C     0.82056   0.50917   0.97274   0.00000  Uiso   1.00
C9     C     0.88950   0.41421   0.96231   0.00000  Uiso   1.00
C10    C     0.53142   0.63765   0.89672   0.00000  Uiso   1.00
C11    C     0.45705   0.71479   0.84870   0.00000  Uiso   1.00
C12    C     0.32557   0.70300   0.77481   0.00000  Uiso   1.00
C13    C     0.10802   0.72022   0.64984   0.00000  Uiso   1.00
C14    C     0.57564   0.47686   0.93380   0.00000  Uiso   1.00
C15    C     0.65899   0.50763   0.01539   0.00000  Uiso   1.00
C16    C     0.68111   0.45860   0.06229   0.00000  Uiso   1.00
C17    C     0.76029   0.49855   0.13506   0.00000  Uiso   1.00
C18    C     0.66093   0.47952   0.94560   0.00000  Uiso   1.00
C19    C     0.68467   0.40686   0.93380   0.00000  Uiso   1.00
C20    C     0.76546   0.42314   0.94780   0.00000  Uiso   1.00
C21    C     0.47641   0.55177   0.87183   0.00000  Uiso   1.00
C22    C     0.34502   0.53986   0.79800   0.00000  Uiso   1.00
C23    C     0.27046   0.61697   0.74987   0.00000  Uiso   1.00
H24    H     0.71974   0.70183   0.99901   0.00000  Uiso   1.00
H25    H     0.83571   0.70000   0.13224   0.00000  Uiso   1.00
H26    H     0.83925   0.64826   0.00376   0.00000  Uiso   1.00
H27    H     0.49965   0.78124   0.86798   0.00000  Uiso   1.00
H28    H     0.94007   0.66008   0.26899   0.00000  Uiso   1.00
H29    H     0.94750   0.55100   0.99806   0.00000  Uiso   1.00
H30    H     0.23139   0.83141   0.71173   0.00000  Uiso   1.00
H31    H     0.53282   0.40999   0.91442   0.00000  Uiso   1.00
H32    H     0.63853   0.39214   0.04302   0.00000  Uiso   1.00
H33    H     0.64208   0.34041   0.91453   0.00000  Uiso   1.00
H34    H     0.30248   0.47339   0.77875   0.00000  Uiso   1.00
H35    H     0.78004   0.41021   0.19657   0.00000  Uiso   1.00
H36    H     0.78746   0.30113   0.92563   0.00000  Uiso   1.00
H37    H     0.07136   0.58154   0.63931   0.00000  Uiso   1.00
O38    O     0.93300   0.52865   0.31892   0.00000  Uiso   1.00
O39    O     0.94273   0.38556   0.96344   0.00000  Uiso   1.00
O40    O     0.00322   0.75345   0.58779   0.00000  Uiso   1.00
N41    N     0.88787   0.60373   0.23429   0.00000  Uiso   1.00
N42    N     0.89484   0.50174   0.98100   0.00000  Uiso   1.00
N43    N     0.22534   0.76390   0.71329   0.00000  Uiso   1.00
N44    N     0.80176   0.46928   0.19532   0.00000  Uiso   1.00
N45    N     0.80873   0.36729   0.94203   0.00000  Uiso   1.00
N46    N     0.13923   0.62945   0.67432   0.00000  Uiso   1.00
C47    C     0.17691   0.13497   0.97963   0.00000  Uiso   1.00
C48    C     0.21399   0.09351   0.04029   0.00000  Uiso   1.00
C49    C     0.29315   0.13354   0.11300   0.00000  Uiso   1.00
C50    C     0.31539   0.08459   0.16000   0.00000  Uiso   1.00
C51    C     0.38139   0.03325   0.25799   0.00000  Uiso   1.00
C52    C     0.21593   0.06540   0.97049   0.00000  Uiso   1.00
C53    C     0.29671   0.08179   0.98451   0.00000  Uiso   1.00
C54    C     0.32056   0.00917   0.97274   0.00000  Uiso   1.00
C55    C     0.38950   0.91421   0.96231   0.00000  Uiso   1.00
C56    C     0.03142   0.13765   0.89672   0.00000  Uiso   1.00
C57    C     0.95705   0.21479   0.84870   0.00000  Uiso   1.00
C58    C     0.82557   0.20300   0.77481   0.00000  Uiso   1.00
C59    C     0.60802   0.22022   0.64984   0.00000  Uiso   1.00
C60    C     0.07564   0.97686   0.93380   0.00000  Uiso   1.00
C61    C     0.15899   0.00763   0.01539   0.00000  Uiso   1.00
C62    C     0.18111   0.95860   0.06229   0.00000  Uiso   1.00
C63    C     0.26029   0.99855   0.13506   0.00000  Uiso   1.00
C64    C     0.16093   0.97952   0.94560   0.00000  Uiso   1.00
C65    C     0.18467   0.90686   0.93380   0.00000  Uiso   1.00
C66    C     0.26546   0.92314   0.94780   0.00000  Uiso   1.00
C67    C     0.97641   0.05177   0.87183   0.00000  Uiso   1.00
C68    C     0.84502   0.03986   0.79800   0.00000  Uiso   1.00
C69    C     0.77046   0.11697   0.74987   0.00000  Uiso   1.00
H70    H     0.21974   0.20183   0.99901   0.00000  Uiso   1.00
H71    H     0.33571   0.20000   0.13224   0.00000  Uiso   1.00
H72    H     0.33925   0.14826   0.00376   0.00000  Uiso   1.00
H73    H     0.99965   0.28124   0.86798   0.00000  Uiso   1.00
H74    H     0.44007   0.16008   0.26899   0.00000  Uiso   1.00
H75    H     0.44750   0.05100   0.99806   0.00000  Uiso   1.00
H76    H     0.73139   0.33141   0.71173   0.00000  Uiso   1.00
H77    H     0.03282   0.90999   0.91442   0.00000  Uiso   1.00
H78    H     0.13853   0.89214   0.04302   0.00000  Uiso   1.00
H79    H     0.14208   0.84041   0.91453   0.00000  Uiso   1.00
H80    H     0.80248   0.97339   0.77875   0.00000  Uiso   1.00
H81    H     0.28004   0.91021   0.19657   0.00000  Uiso   1.00
H82    H     0.28746   0.80113   0.92563   0.00000  Uiso   1.00
H83    H     0.57136   0.08154   0.63931   0.00000  Uiso   1.00
O84    O     0.43300   0.02865   0.31892   0.00000  Uiso   1.00
O85    O     0.44273   0.88556   0.96344   0.00000  Uiso   1.00
O86    O     0.50322   0.25345   0.58779   0.00000  Uiso   1.00
N87    N     0.38787   0.10373   0.23429   0.00000  Uiso   1.00
N88    N     0.39484   0.00174   0.98100   0.00000  Uiso   1.00
N89    N     0.72534   0.26390   0.71329   0.00000  Uiso   1.00
N90    N     0.30176   0.96928   0.19532   0.00000  Uiso   1.00
N91    N     0.30873   0.86729   0.94203   0.00000  Uiso   1.00
N92    N     0.63923   0.12945   0.67432   0.00000  Uiso   1.00
C93    C     0.32309   0.63497   0.52037   0.00000  Uiso   1.00
C94    C     0.28601   0.59351   0.45971   0.00000  Uiso   1.00
C95    C     0.20685   0.63354   0.38700   0.00000  Uiso   1.00
C96    C     0.18461   0.58459   0.34000   0.00000  Uiso   1.00
C97    C     0.11861   0.53325   0.24201   0.00000  Uiso   1.00
C98    C     0.28407   0.56540   0.52951   0.00000  Uiso   1.00
C99    C     0.20329   0.58179   0.51549   0.00000  Uiso   1.00
C100   C     0.17944   0.50917   0.52726   0.00000  Uiso   1.00
C101   C     0.11050   0.41421   0.53769   0.00000  Uiso   1.00
C102   C     0.46858   0.63765   0.60328   0.00000  Uiso   1.00
C103   C     0.54295   0.71479   0.65130   0.00000  Uiso   1.00
C104   C     0.67443   0.70300   0.72519   0.00000  Uiso   1.00
C105   C     0.89198   0.72022   0.85016   0.00000  Uiso   1.00
C106   C     0.42436   0.47686   0.56620   0.00000  Uiso   1.00
C107   C     0.34101   0.50763   0.48461   0.00000  Uiso   1.00
C108   C     0.31889   0.45860   0.43771   0.00000  Uiso   1.00
C109   C     0.23971   0.49855   0.36494   0.00000  Uiso   1.00
C110   C     0.33907   0.47952   0.55440   0.00000  Uiso   1.00
C111   C     0.31533   0.40686   0.56620   0.00000  Uiso   1.00
C112   C     0.23454   0.42314   0.55220   0.00000  Uiso   1.00
C113   C     0.52359   0.55177   0.62817   0.00000  Uiso   1.00
C114   C     0.65498   0.53986   0.70200   0.00000  Uiso   1.00
C115   C     0.72954   0.61697   0.75013   0.00000  Uiso   1.00
H116   H     0.28026   0.70183   0.50099   0.00000  Uiso   1.00
H117   H     0.16429   0.70000   0.36776   0.00000  Uiso   1.00
H118   H     0.16075   0.64826   0.49624   0.00000  Uiso   1.00
H119   H     0.50035   0.78124   0.63202   0.00000  Uiso   1.00
H120   H     0.05993   0.66008   0.23101   0.00000  Uiso   1.00
H121   H     0.05250   0.55100   0.50194   0.00000  Uiso   1.00
H122   H     0.76861   0.83141   0.78827   0.00000  Uiso   1.00
H123   H     0.46718   0.40999   0.58558   0.00000  Uiso   1.00
H124   H     0.36147   0.39214   0.45698   0.00000  Uiso   1.00
H125   H     0.35792   0.34041   0.58547   0.00000  Uiso   1.00
H126   H     0.69752   0.47339   0.72125   0.00000  Uiso   1.00
H127   H     0.21996   0.41021   0.30343   0.00000  Uiso   1.00
H128   H     0.21254   0.30113   0.57437   0.00000  Uiso   1.00
H129   H     0.92864   0.58154   0.86069   0.00000  Uiso   1.00
O130   O     0.06700   0.52865   0.18108   0.00000  Uiso   1.00
O131   O     0.05727   0.38556   0.53656   0.00000  Uiso   1.00
O132   O     0.99678   0.75345   0.91221   0.00000  Uiso   1.00
N133   N     0.11213   0.60373   0.26571   0.00000  Uiso   1.00
N134   N     0.10516   0.50174   0.51900   0.00000  Uiso   1.00
N135   N     0.77466   0.76390   0.78671   0.00000  Uiso   1.00
N136   N     0.19824   0.46928   0.30468   0.00000  Uiso   1.00
N137   N     0.19127   0.36729   0.55797   0.00000  Uiso   1.00
N138   N     0.86077   0.62945   0.82568   0.00000  Uiso   1.00
C139   C     0.82309   0.13497   0.52037   0.00000  Uiso   1.00
C140   C     0.78601   0.09351   0.45971   0.00000  Uiso   1.00
C141   C     0.70685   0.13354   0.38700   0.00000  Uiso   1.00
C142   C     0.68461   0.08459   0.34000   0.00000  Uiso   1.00
C143   C     0.61861   0.03325   0.24201   0.00000  Uiso   1.00
C144   C     0.78407   0.06540   0.52951   0.00000  Uiso   1.00
C145   C     0.70329   0.08179   0.51549   0.00000  Uiso   1.00
C146   C     0.67944   0.00917   0.52726   0.00000  Uiso   1.00
C147   C     0.61050   0.91421   0.53769   0.00000  Uiso   1.00
C148   C     0.96858   0.13765   0.60328   0.00000  Uiso   1.00
C149   C     0.04295   0.21479   0.65130   0.00000  Uiso   1.00
C150   C     0.17443   0.20300   0.72519   0.00000  Uiso   1.00
C151   C     0.39198   0.22022   0.85016   0.00000  Uiso   1.00
C152   C     0.92436   0.97686   0.56620   0.00000  Uiso   1.00
C153   C     0.84101   0.00763   0.48461   0.00000  Uiso   1.00
C154   C     0.81889   0.95860   0.43771   0.00000  Uiso   1.00
C155   C     0.73971   0.99855   0.36494   0.00000  Uiso   1.00
C156   C     0.83907   0.97952   0.55440   0.00000  Uiso   1.00
C157   C     0.81533   0.90686   0.56620   0.00000  Uiso   1.00
C158   C     0.73454   0.92314   0.55220   0.00000  Uiso   1.00
C159   C     0.02359   0.05177   0.62817   0.00000  Uiso   1.00
C160   C     0.15498   0.03986   0.70200   0.00000  Uiso   1.00
C161   C     0.22954   0.11697   0.75013   0.00000  Uiso   1.00
H162   H     0.78026   0.20183   0.50099   0.00000  Uiso   1.00
H163   H     0.66429   0.20000   0.36776   0.00000  Uiso   1.00
H164   H     0.66075   0.14826   0.49624   0.00000  Uiso   1.00
H165   H     0.00035   0.28124   0.63202   0.00000  Uiso   1.00
H166   H     0.55993   0.16008   0.23101   0.00000  Uiso   1.00
H167   H     0.55250   0.05100   0.50194   0.00000  Uiso   1.00
H168   H     0.26861   0.33141   0.78827   0.00000  Uiso   1.00
H169   H     0.96718   0.90999   0.58558   0.00000  Uiso   1.00
H170   H     0.86147   0.89214   0.45698   0.00000  Uiso   1.00
H171   H     0.85792   0.84041   0.58547   0.00000  Uiso   1.00
H172   H     0.19752   0.97339   0.72125   0.00000  Uiso   1.00
H173   H     0.71996   0.91021   0.30343   0.00000  Uiso   1.00
H174   H     0.71254   0.80113   0.57437   0.00000  Uiso   1.00
H175   H     0.42864   0.08154   0.86069   0.00000  Uiso   1.00
O176   O     0.56700   0.02865   0.18108   0.00000  Uiso   1.00
O177   O     0.55727   0.88556   0.53656   0.00000  Uiso   1.00
O178   O     0.49678   0.25345   0.91221   0.00000  Uiso   1.00
N179   N     0.61213   0.10373   0.26571   0.00000  Uiso   1.00
N180   N     0.60516   0.00174   0.51900   0.00000  Uiso   1.00
N181   N     0.27466   0.26390   0.78671   0.00000  Uiso   1.00
N182   N     0.69824   0.96928   0.30468   0.00000  Uiso   1.00
N183   N     0.69127   0.86729   0.55797   0.00000  Uiso   1.00
N184   N     0.36077   0.12945   0.82568   0.00000  Uiso   1.00
C185   C     0.32309   0.36503   0.02037   0.00000  Uiso   1.00
C186   C     0.28601   0.40649   0.95971   0.00000  Uiso   1.00
C187   C     0.20685   0.36646   0.88700   0.00000  Uiso   1.00
C188   C     0.18461   0.41541   0.84000   0.00000  Uiso   1.00
C189   C     0.11861   0.46675   0.74201   0.00000  Uiso   1.00
C190   C     0.28407   0.43460   0.02951   0.00000  Uiso   1.00
C191   C     0.20329   0.41821   0.01549   0.00000  Uiso   1.00
C192   C     0.17944   0.49083   0.02726   0.00000  Uiso   1.00
C193   C     0.11050   0.58579   0.03769   0.00000  Uiso   1.00
C194   C     0.46858   0.36235   0.10328   0.00000  Uiso   1.00
C195   C     0.54295   0.28521   0.15130   0.00000  Uiso   1.00
C196   C     0.67443   0.29700   0.22519   0.00000  Uiso   1.00
C197   C     0.89198   0.27978   0.35016   0.00000  Uiso   1.00
C198   C     0.42436   0.52314   0.06620   0.00000  Uiso   1.00
C199   C     0.34101   0.49237   0.98461   0.00000  Uiso   1.00
C200   C     0.31889   0.54140   0.93771   0.00000  Uiso   1.00
C201   C     0.23971   0.50145   0.86494   0.00000  Uiso   1.00
C202   C     0.33907   0.52048   0.05440   0.00000  Uiso   1.00
C203   C     0.31533   0.59314   0.06620   0.00000  Uiso   1.00
C204   C     0.23454   0.57686   0.05220   0.00000  Uiso   1.00
C205   C     0.52359   0.44823   0.12817   0.00000  Uiso   1.00
C206   C     0.65498   0.46014   0.20200   0.00000  Uiso   1.00
C207   C     0.72954   0.38303   0.25013   0.00000  Uiso   1.00
H208   H     0.28026   0.29817   0.00099   0.00000  Uiso   1.00
H209   H     0.16429   0.30000   0.86776   0.00000  Uiso   1.00
H210   H     0.16075   0.35174   0.99624   0.00000  Uiso   1.00
H211   H     0.50035   0.21876   0.13202   0.00000  Uiso   1.00
H212   H     0.05993   0.33992   0.73101   0.00000  Uiso   1.00
H213   H     0.05250   0.44900   0.00194   0.00000  Uiso   1.00
H214   H     0.76861   0.16859   0.28827   0.00000  Uiso   1.00
H215   H     0.46718   0.59001   0.08558   0.00000  Uiso   1.00
H216   H     0.36147   0.60786   0.95698   0.00000  Uiso   1.00
H217   H     0.35792   0.65959   0.08547   0.00000  Uiso   1.00
H218   H     0.69752   0.52661   0.22125   0.00000  Uiso   1.00
H219   H     0.21996   0.58979   0.80343   0.00000  Uiso   1.00
H220   H     0.21254   0.69887   0.07437   0.00000  Uiso   1.00
H221   H     0.92864   0.41846   0.36069   0.00000  Uiso   1.00
O222   O     0.06700   0.47135   0.68108   0.00000  Uiso   1.00
O223   O     0.05727   0.61444   0.03656   0.00000  Uiso   1.00
O224   O     0.99678   0.24655   0.41221   0.00000  Uiso   1.00
N225   N     0.11213   0.39627   0.76571   0.00000  Uiso   1.00
N226   N     0.10516   0.49826   0.01900   0.00000  Uiso   1.00
N227   N     0.77466   0.23610   0.28671   0.00000  Uiso   1.00
N228   N     0.19824   0.53072   0.80468   0.00000  Uiso   1.00
N229   N     0.19127   0.63271   0.05797   0.00000  Uiso   1.00
N230   N     0.86077   0.37055   0.32568   0.00000  Uiso   1.00
C231   C     0.82309   0.86503   0.02037   0.00000  Uiso   1.00
C232   C     0.78601   0.90649   0.95971   0.00000  Uiso   1.00
C233   C     0.70685   0.86646   0.88700   0.00000  Uiso   1.00
C234   C     0.68461   0.91541   0.84000   0.00000  Uiso   1.00
C235   C     0.61861   0.96675   0.74201   0.00000  Uiso   1.00
C236   C     0.78407   0.93460   0.02951   0.00000  Uiso   1.00
C237   C     0.70329   0.91821   0.01549   0.00000  Uiso   1.00
C238   C     0.67944   0.99083   0.02726   0.00000  Uiso   1.00
C239   C     0.61050   0.08579   0.03769   0.00000  Uiso   1.00
C240   C     0.96858   0.86235   0.10328   0.00000  Uiso   1.00
C241   C     0.04295   0.78521   0.15130   0.00000  Uiso   1.00
C242   C     0.17443   0.79700   0.22519   0.00000  Uiso   1.00
C243   C     0.39198   0.77978   0.35016   0.00000  Uiso   1.00
C244   C     0.92436   0.02314   0.06620   0.00000  Uiso   1.00
C245   C     0.84101   0.99237   0.98461   0.00000  Uiso   1.00
C246   C     0.81889   0.04140   0.93771   0.00000  Uiso   1.00
C247   C     0.73971   0.00145   0.86494   0.00000  Uiso   1.00
C248   C     0.83907   0.02048   0.05440   0.00000  Uiso   1.00
C249   C     0.81533   0.09314   0.06620   0.00000  Uiso   1.00
C250   C     0.73454   0.07686   0.05220   0.00000  Uiso   1.00
C251   C     0.02359   0.94823   0.12817   0.00000  Uiso   1.00
C252   C     0.15498   0.96014   0.20200   0.00000  Uiso   1.00
C253   C     0.22954   0.88303   0.25013   0.00000  Uiso   1.00
H254   H     0.78026   0.79817   0.00099   0.00000  Uiso   1.00
H255   H     0.66429   0.80000   0.86776   0.00000  Uiso   1.00
H256   H     0.66075   0.85174   0.99624   0.00000  Uiso   1.00
H257   H     0.00035   0.71876   0.13202   0.00000  Uiso   1.00
H258   H     0.55993   0.83992   0.73101   0.00000  Uiso   1.00
H259   H     0.55250   0.94900   0.00194   0.00000  Uiso   1.00
H260   H     0.26861   0.66859   0.28827   0.00000  Uiso   1.00
H261   H     0.96718   0.09001   0.08558   0.00000  Uiso   1.00
H262   H     0.86147   0.10786   0.95698   0.00000  Uiso   1.00
H263   H     0.85792   0.15959   0.08547   0.00000  Uiso   1.00
H264   H     0.19752   0.02661   0.22125   0.00000  Uiso   1.00
H265   H     0.71996   0.08979   0.80343   0.00000  Uiso   1.00
H266   H     0.71254   0.19887   0.07437   0.00000  Uiso   1.00
H267   H     0.42864   0.91846   0.36069   0.00000  Uiso   1.00
O268   O     0.56700   0.97135   0.68108   0.00000  Uiso   1.00
O269   O     0.55727   0.11444   0.03656   0.00000  Uiso   1.00
O270   O     0.49678   0.74655   0.41221   0.00000  Uiso   1.00
N271   N     0.61213   0.89627   0.76571   0.00000  Uiso   1.00
N272   N     0.60516   0.99826   0.01900   0.00000  Uiso   1.00
N273   N     0.27466   0.73610   0.28671   0.00000  Uiso   1.00
N274   N     0.69824   0.03072   0.80468   0.00000  Uiso   1.00
N275   N     0.69127   0.13271   0.05797   0.00000  Uiso   1.00
N276   N     0.36077   0.87055   0.32568   0.00000  Uiso   1.00
C277   C     0.67691   0.36503   0.47963   0.00000  Uiso   1.00
C278   C     0.71399   0.40649   0.54029   0.00000  Uiso   1.00
C279   C     0.79315   0.36646   0.61300   0.00000  Uiso   1.00
C280   C     0.81539   0.41541   0.66000   0.00000  Uiso   1.00
C281   C     0.88139   0.46675   0.75799   0.00000  Uiso   1.00
C282   C     0.71593   0.43460   0.47049   0.00000  Uiso   1.00
C283   C     0.79671   0.41821   0.48451   0.00000  Uiso   1.00
C284   C     0.82056   0.49083   0.47274   0.00000  Uiso   1.00
C285   C     0.88950   0.58579   0.46231   0.00000  Uiso   1.00
C286   C     0.53142   0.36235   0.39672   0.00000  Uiso   1.00
C287   C     0.45705   0.28521   0.34870   0.00000  Uiso   1.00
C288   C     0.32557   0.29700   0.27481   0.00000  Uiso   1.00
C289   C     0.10802   0.27978   0.14984   0.00000  Uiso   1.00
C290   C     0.57564   0.52314   0.43380   0.00000  Uiso   1.00
C291   C     0.65899   0.49237   0.51539   0.00000  Uiso   1.00
C292   C     0.68111   0.54140   0.56229   0.00000  Uiso   1.00
C293   C     0.76029   0.50145   0.63506   0.00000  Uiso   1.00
C294   C     0.66093   0.52048   0.44560   0.00000  Uiso   1.00
C295   C     0.68467   0.59314   0.43380   0.00000  Uiso   1.00
C296   C     0.76546   0.57686   0.44780   0.00000  Uiso   1.00
C297   C     0.47641   0.44823   0.37183   0.00000  Uiso   1.00
C298   C     0.34502   0.46014   0.29800   0.00000  Uiso   1.00
C299   C     0.27046   0.38303   0.24987   0.00000  Uiso   1.00
H300   H     0.71974   0.29817   0.49901   0.00000  Uiso   1.00
H301   H     0.83571   0.30000   0.63224   0.00000  Uiso   1.00
H302   H     0.83925   0.35174   0.50376   0.00000  Uiso   1.00
H303   H     0.49965   0.21876   0.36798   0.00000  Uiso   1.00
H304   H     0.94007   0.33992   0.76899   0.00000  Uiso   1.00
H305   H     0.94750   0.44900   0.49806   0.00000  Uiso   1.00
H306   H     0.23139   0.16859   0.21173   0.00000  Uiso   1.00
H307   H     0.53282   0.59001   0.41442   0.00000  Uiso   1.00
H308   H     0.63853   0.60786   0.54302   0.00000  Uiso   1.00
H309   H     0.64208   0.65959   0.41453   0.00000  Uiso   1.00
H310   H     0.30248   0.52661   0.27875   0.00000  Uiso   1.00
H311   H     0.78004   0.58979   0.69657   0.00000  Uiso   1.00
H312   H     0.78746   0.69887   0.42563   0.00000  Uiso   1.00
H313   H     0.07136   0.41846   0.13931   0.00000  Uiso   1.00
O314   O     0.93300   0.47135   0.81892   0.00000  Uiso   1.00
O315   O     0.94273   0.61444   0.46344   0.00000  Uiso   1.00
O316   O     0.00322   0.24655   0.08779   0.00000  Uiso   1.00
N317   N     0.88787   0.39627   0.73429   0.00000  Uiso   1.00
N318   N     0.89484   0.49826   0.48100   0.00000  Uiso   1.00
N319   N     0.22534   0.23610   0.21329   0.00000  Uiso   1.00
N320   N     0.80176   0.53072   0.69532   0.00000  Uiso   1.00
N321   N     0.80873   0.63271   0.44203   0.00000  Uiso   1.00
N322   N     0.13923   0.37055   0.17432   0.00000  Uiso   1.00
C323   C     0.17691   0.86503   0.47963   0.00000  Uiso   1.00
C324   C     0.21399   0.90649   0.54029   0.00000  Uiso   1.00
C325   C     0.29315   0.86646   0.61300   0.00000  Uiso   1.00
C326   C     0.31539   0.91541   0.66000   0.00000  Uiso   1.00
C327   C     0.38139   0.96675   0.75799   0.00000  Uiso   1.00
C328   C     0.21593   0.93460   0.47049   0.00000  Uiso   1.00
C329   C     0.29671   0.91821   0.48451   0.00000  Uiso   1.00
C330   C     0.32056   0.99083   0.47274   0.00000  Uiso   1.00
C331   C     0.38950   0.08579   0.46231   0.00000  Uiso   1.00
C332   C     0.03142   0.86235   0.39672   0.00000  Uiso   1.00
C333   C     0.95705   0.78521   0.34870   0.00000  Uiso   1.00
C334   C     0.82557   0.79700   0.27481   0.00000  Uiso   1.00
C335   C     0.60802   0.77978   0.14984   0.00000  Uiso   1.00
C336   C     0.07564   0.02314   0.43380   0.00000  Uiso   1.00
C337   C     0.15899   0.99237   0.51539   0.00000  Uiso   1.00
C338   C     0.18111   0.04140   0.56229   0.00000  Uiso   1.00
C339   C     0.26029   0.00145   0.63506   0.00000  Uiso   1.00
C340   C     0.16093   0.02048   0.44560   0.00000  Uiso   1.00
C341   C     0.18467   0.09314   0.43380   0.00000  Uiso   1.00
C342   C     0.26546   0.07686   0.44780   0.00000  Uiso   1.00
C343   C     0.97641   0.94823   0.37183   0.00000  Uiso   1.00
C344   C     0.84502   0.96014   0.29800   0.00000  Uiso   1.00
C345   C     0.77046   0.88303   0.24987   0.00000  Uiso   1.00
H346   H     0.21974   0.79817   0.49901   0.00000  Uiso   1.00
H347   H     0.33571   0.80000   0.63224   0.00000  Uiso   1.00
H348   H     0.33925   0.85174   0.50376   0.00000  Uiso   1.00
H349   H     0.99965   0.71876   0.36798   0.00000  Uiso   1.00
H350   H     0.44007   0.83992   0.76899   0.00000  Uiso   1.00
H351   H     0.44750   0.94900   0.49806   0.00000  Uiso   1.00
H352   H     0.73139   0.66859   0.21173   0.00000  Uiso   1.00
H353   H     0.03282   0.09001   0.41442   0.00000  Uiso   1.00
H354   H     0.13853   0.10786   0.54302   0.00000  Uiso   1.00
H355   H     0.14208   0.15959   0.41453   0.00000  Uiso   1.00
H356   H     0.80248   0.02661   0.27875   0.00000  Uiso   1.00
H357   H     0.28004   0.08979   0.69657   0.00000  Uiso   1.00
H358   H     0.28746   0.19887   0.42563   0.00000  Uiso   1.00
H359   H     0.57136   0.91846   0.13931   0.00000  Uiso   1.00
O360   O     0.43300   0.97135   0.81892   0.00000  Uiso   1.00
O361   O     0.44273   0.11444   0.46344   0.00000  Uiso   1.00
O362   O     0.50322   0.74655   0.08779   0.00000  Uiso   1.00
N363   N     0.38787   0.89627   0.73429   0.00000  Uiso   1.00
N364   N     0.39484   0.99826   0.48100   0.00000  Uiso   1.00
N365   N     0.72534   0.73610   0.21329   0.00000  Uiso   1.00
N366   N     0.30176   0.03072   0.69532   0.00000  Uiso   1.00
N367   N     0.30873   0.13271   0.44203   0.00000  Uiso   1.00
N368   N     0.63923   0.87055   0.17432   0.00000  Uiso   1.00
