data_job_03940
_audit_creation_date              2018-12-19
_audit_creation_method            'Materials Studio'
_symmetry_space_group_name_H-M    'P1'
_symmetry_Int_Tables_number       1
_symmetry_cell_setting            triclinic
loop_
_symmetry_equiv_pos_as_xyz
  x,y,z
_cell_length_a                    30.2666
_cell_length_b                    30.2666
_cell_length_c                    8.7060
_cell_angle_alpha                 90.0000
_cell_angle_beta                  90.0000
_cell_angle_gamma                 90.0000
loop_
_atom_site_label
_atom_site_type_symbol
_atom_site_fract_x
_atom_site_fract_y
_atom_site_fract_z
_atom_site_U_iso_or_equiv
_atom_site_adp_type
_atom_site_occupancy
C1     C     0.03281   0.20228   0.60494   0.00000  Uiso   1.00
C2     C     0.00123   0.20439   0.46865   0.00000  Uiso   1.00
C3     C     0.95895   0.22212   0.47074   0.00000  Uiso   1.00
C4     C     0.93531   0.22090   0.33414   0.00000  Uiso   1.00
C5     C     0.88352   0.22695   0.14289   0.00000  Uiso   1.00
C6     C     0.04503   0.15370   0.62382   0.00000  Uiso   1.00
C7     C     0.03957   0.12882   0.75637   0.00000  Uiso   1.00
C8     C     0.05280   0.08493   0.75038   0.00000  Uiso   1.00
C9     C     0.06904   0.01228   0.80006   0.00000  Uiso   1.00
C10    C     0.07493   0.22565   0.55357   0.00000  Uiso   1.00
C11    C     0.09463   0.26125   0.62707   0.00000  Uiso   1.00
C12    C     0.13304   0.27793   0.56196   0.00000  Uiso   1.00
C13    C     0.19570   0.31700   0.50257   0.00000  Uiso   1.00
C14    C     0.06601   0.16858   0.35864   0.00000  Uiso   1.00
C15    C     0.01927   0.18609   0.33488   0.00000  Uiso   1.00
C16    C     0.99568   0.18484   0.19824   0.00000  Uiso   1.00
C17    C     0.95338   0.20257   0.20011   0.00000  Uiso   1.00
C18    C     0.06306   0.13540   0.49004   0.00000  Uiso   1.00
C19    C     0.07630   0.09154   0.48387   0.00000  Uiso   1.00
C20    C     0.07087   0.06659   0.61636   0.00000  Uiso   1.00
C21    C     0.09296   0.20735   0.41979   0.00000  Uiso   1.00
C22    C     0.13136   0.22397   0.35456   0.00000  Uiso   1.00
C23    C     0.15111   0.25960   0.42795   0.00000  Uiso   1.00
H24    H     0.01877   0.21653   0.70910   0.00000  Uiso   1.00
H25    H     0.94501   0.23628   0.57429   0.00000  Uiso   1.00
H26    H     0.02562   0.14299   0.85988   0.00000  Uiso   1.00
H27    H     0.08066   0.27541   0.73059   0.00000  Uiso   1.00
H28    H     0.87117   0.25010   0.36586   0.00000  Uiso   1.00
H29    H     0.04116   0.05339   0.96804   0.00000  Uiso   1.00
H30    H     0.15723   0.33262   0.69543   0.00000  Uiso   1.00
H31    H     0.08005   0.15433   0.25449   0.00000  Uiso   1.00
H32    H     0.00965   0.17068   0.09473   0.00000  Uiso   1.00
H33    H     0.09026   0.07739   0.38032   0.00000  Uiso   1.00
H34    H     0.14530   0.20980   0.25104   0.00000  Uiso   1.00
H35    H     0.92363   0.19685   0.97663   0.00000  Uiso   1.00
H36    H     0.09362   0.00014   0.57882   0.00000  Uiso   1.00
H37    H     0.20969   0.27937   0.30620   0.00000  Uiso   1.00
O38    O     0.84997   0.23533   0.07437   0.00000  Uiso   1.00
O39    O     0.07300   0.97727   0.86442   0.00000  Uiso   1.00
O40    O     0.22528   0.34360   0.50676   0.00000  Uiso   1.00
N41    N     0.89318   0.23533   0.29617   0.00000  Uiso   1.00
N42    N     0.05211   0.05142   0.85917   0.00000  Uiso   1.00
N43    N     0.16063   0.31247   0.60433   0.00000  Uiso   1.00
N44    N     0.92141   0.20668   0.08673   0.00000  Uiso   1.00
N45    N     0.08034   0.02277   0.64973   0.00000  Uiso   1.00
N46    N     0.18886   0.28381   0.39488   0.00000  Uiso   1.00
C47    C     0.96719   0.79772   0.60494   0.00000  Uiso   1.00
C48    C     0.99877   0.79561   0.46865   0.00000  Uiso   1.00
C49    C     0.04105   0.77788   0.47074   0.00000  Uiso   1.00
C50    C     0.06469   0.77910   0.33414   0.00000  Uiso   1.00
C51    C     0.11648   0.77305   0.14289   0.00000  Uiso   1.00
C52    C     0.95497   0.84630   0.62382   0.00000  Uiso   1.00
C53    C     0.96043   0.87118   0.75637   0.00000  Uiso   1.00
C54    C     0.94720   0.91507   0.75038   0.00000  Uiso   1.00
C55    C     0.93096   0.98772   0.80006   0.00000  Uiso   1.00
C56    C     0.92507   0.77435   0.55357   0.00000  Uiso   1.00
C57    C     0.90537   0.73875   0.62707   0.00000  Uiso   1.00
C58    C     0.86696   0.72207   0.56196   0.00000  Uiso   1.00
C59    C     0.80430   0.68300   0.50257   0.00000  Uiso   1.00
C60    C     0.93399   0.83142   0.35864   0.00000  Uiso   1.00
C61    C     0.98073   0.81391   0.33488   0.00000  Uiso   1.00
C62    C     0.00432   0.81516   0.19824   0.00000  Uiso   1.00
C63    C     0.04662   0.79743   0.20011   0.00000  Uiso   1.00
C64    C     0.93694   0.86460   0.49004   0.00000  Uiso   1.00
C65    C     0.92370   0.90846   0.48387   0.00000  Uiso   1.00
C66    C     0.92913   0.93341   0.61636   0.00000  Uiso   1.00
C67    C     0.90704   0.79265   0.41979   0.00000  Uiso   1.00
C68    C     0.86864   0.77603   0.35456   0.00000  Uiso   1.00
C69    C     0.84889   0.74040   0.42795   0.00000  Uiso   1.00
H70    H     0.98123   0.78347   0.70910   0.00000  Uiso   1.00
H71    H     0.05499   0.76372   0.57429   0.00000  Uiso   1.00
H72    H     0.97438   0.85701   0.85988   0.00000  Uiso   1.00
H73    H     0.91934   0.72459   0.73059   0.00000  Uiso   1.00
H74    H     0.12883   0.74990   0.36586   0.00000  Uiso   1.00
H75    H     0.95884   0.94661   0.96804   0.00000  Uiso   1.00
H76    H     0.84277   0.66738   0.69543   0.00000  Uiso   1.00
H77    H     0.91995   0.84567   0.25449   0.00000  Uiso   1.00
H78    H     0.99035   0.82932   0.09473   0.00000  Uiso   1.00
H79    H     0.90974   0.92261   0.38032   0.00000  Uiso   1.00
H80    H     0.85470   0.79020   0.25104   0.00000  Uiso   1.00
H81    H     0.07637   0.80315   0.97663   0.00000  Uiso   1.00
H82    H     0.90638   0.99986   0.57882   0.00000  Uiso   1.00
H83    H     0.79031   0.72063   0.30620   0.00000  Uiso   1.00
O84    O     0.15003   0.76467   0.07437   0.00000  Uiso   1.00
O85    O     0.92700   0.02273   0.86442   0.00000  Uiso   1.00
O86    O     0.77472   0.65640   0.50676   0.00000  Uiso   1.00
N87    N     0.10682   0.76467   0.29617   0.00000  Uiso   1.00
N88    N     0.94789   0.94858   0.85917   0.00000  Uiso   1.00
N89    N     0.83937   0.68753   0.60433   0.00000  Uiso   1.00
N90    N     0.07859   0.79332   0.08673   0.00000  Uiso   1.00
N91    N     0.91966   0.97723   0.64973   0.00000  Uiso   1.00
N92    N     0.81114   0.71619   0.39488   0.00000  Uiso   1.00
C93    C     0.29772   0.53281   0.60494   0.00000  Uiso   1.00
C94    C     0.29561   0.50123   0.46865   0.00000  Uiso   1.00
C95    C     0.27788   0.45895   0.47074   0.00000  Uiso   1.00
C96    C     0.27910   0.43531   0.33414   0.00000  Uiso   1.00
C97    C     0.27305   0.38352   0.14289   0.00000  Uiso   1.00
C98    C     0.34630   0.54503   0.62382   0.00000  Uiso   1.00
C99    C     0.37118   0.53957   0.75637   0.00000  Uiso   1.00
C100   C     0.41507   0.55280   0.75038   0.00000  Uiso   1.00
C101   C     0.48772   0.56904   0.80006   0.00000  Uiso   1.00
C102   C     0.27435   0.57493   0.55357   0.00000  Uiso   1.00
C103   C     0.23875   0.59463   0.62707   0.00000  Uiso   1.00
C104   C     0.22207   0.63304   0.56196   0.00000  Uiso   1.00
C105   C     0.18300   0.69570   0.50257   0.00000  Uiso   1.00
C106   C     0.33142   0.56601   0.35864   0.00000  Uiso   1.00
C107   C     0.31391   0.51927   0.33488   0.00000  Uiso   1.00
C108   C     0.31516   0.49568   0.19824   0.00000  Uiso   1.00
C109   C     0.29743   0.45338   0.20011   0.00000  Uiso   1.00
C110   C     0.36460   0.56306   0.49004   0.00000  Uiso   1.00
C111   C     0.40846   0.57630   0.48387   0.00000  Uiso   1.00
C112   C     0.43341   0.57087   0.61636   0.00000  Uiso   1.00
C113   C     0.29265   0.59296   0.41979   0.00000  Uiso   1.00
C114   C     0.27603   0.63136   0.35456   0.00000  Uiso   1.00
C115   C     0.24040   0.65111   0.42795   0.00000  Uiso   1.00
H116   H     0.28347   0.51877   0.70910   0.00000  Uiso   1.00
H117   H     0.26372   0.44501   0.57429   0.00000  Uiso   1.00
H118   H     0.35701   0.52562   0.85988   0.00000  Uiso   1.00
H119   H     0.22459   0.58066   0.73059   0.00000  Uiso   1.00
H120   H     0.24990   0.37117   0.36586   0.00000  Uiso   1.00
H121   H     0.44661   0.54116   0.96804   0.00000  Uiso   1.00
H122   H     0.16738   0.65723   0.69543   0.00000  Uiso   1.00
H123   H     0.34567   0.58005   0.25449   0.00000  Uiso   1.00
H124   H     0.32932   0.50965   0.09473   0.00000  Uiso   1.00
H125   H     0.42261   0.59026   0.38032   0.00000  Uiso   1.00
H126   H     0.29020   0.64530   0.25104   0.00000  Uiso   1.00
H127   H     0.30315   0.42363   0.97663   0.00000  Uiso   1.00
H128   H     0.49986   0.59362   0.57882   0.00000  Uiso   1.00
H129   H     0.22063   0.70969   0.30620   0.00000  Uiso   1.00
O130   O     0.26467   0.34997   0.07437   0.00000  Uiso   1.00
O131   O     0.52273   0.57300   0.86442   0.00000  Uiso   1.00
O132   O     0.15640   0.72528   0.50676   0.00000  Uiso   1.00
N133   N     0.26467   0.39318   0.29617   0.00000  Uiso   1.00
N134   N     0.44858   0.55211   0.85917   0.00000  Uiso   1.00
N135   N     0.18753   0.66063   0.60433   0.00000  Uiso   1.00
N136   N     0.29332   0.42141   0.08673   0.00000  Uiso   1.00
N137   N     0.47723   0.58034   0.64973   0.00000  Uiso   1.00
N138   N     0.21619   0.68886   0.39488   0.00000  Uiso   1.00
C139   C     0.70228   0.46719   0.60494   0.00000  Uiso   1.00
C140   C     0.70439   0.49877   0.46865   0.00000  Uiso   1.00
C141   C     0.72212   0.54105   0.47074   0.00000  Uiso   1.00
C142   C     0.72090   0.56469   0.33414   0.00000  Uiso   1.00
C143   C     0.72695   0.61648   0.14289   0.00000  Uiso   1.00
C144   C     0.65370   0.45497   0.62382   0.00000  Uiso   1.00
C145   C     0.62882   0.46043   0.75637   0.00000  Uiso   1.00
C146   C     0.58493   0.44720   0.75038   0.00000  Uiso   1.00
C147   C     0.51228   0.43096   0.80006   0.00000  Uiso   1.00
C148   C     0.72565   0.42507   0.55357   0.00000  Uiso   1.00
C149   C     0.76125   0.40537   0.62707   0.00000  Uiso   1.00
C150   C     0.77793   0.36696   0.56196   0.00000  Uiso   1.00
C151   C     0.81700   0.30430   0.50257   0.00000  Uiso   1.00
C152   C     0.66858   0.43399   0.35864   0.00000  Uiso   1.00
C153   C     0.68609   0.48073   0.33488   0.00000  Uiso   1.00
C154   C     0.68484   0.50432   0.19824   0.00000  Uiso   1.00
C155   C     0.70257   0.54662   0.20011   0.00000  Uiso   1.00
C156   C     0.63540   0.43694   0.49004   0.00000  Uiso   1.00
C157   C     0.59154   0.42370   0.48387   0.00000  Uiso   1.00
C158   C     0.56659   0.42913   0.61636   0.00000  Uiso   1.00
C159   C     0.70735   0.40704   0.41979   0.00000  Uiso   1.00
C160   C     0.72397   0.36864   0.35456   0.00000  Uiso   1.00
C161   C     0.75960   0.34889   0.42795   0.00000  Uiso   1.00
H162   H     0.71653   0.48123   0.70910   0.00000  Uiso   1.00
H163   H     0.73628   0.55499   0.57429   0.00000  Uiso   1.00
H164   H     0.64299   0.47438   0.85988   0.00000  Uiso   1.00
H165   H     0.77541   0.41934   0.73059   0.00000  Uiso   1.00
H166   H     0.75010   0.62883   0.36586   0.00000  Uiso   1.00
H167   H     0.55339   0.45884   0.96804   0.00000  Uiso   1.00
H168   H     0.83262   0.34277   0.69543   0.00000  Uiso   1.00
H169   H     0.65433   0.41995   0.25449   0.00000  Uiso   1.00
H170   H     0.67068   0.49035   0.09473   0.00000  Uiso   1.00
H171   H     0.57739   0.40974   0.38032   0.00000  Uiso   1.00
H172   H     0.70980   0.35470   0.25104   0.00000  Uiso   1.00
H173   H     0.69685   0.57637   0.97663   0.00000  Uiso   1.00
H174   H     0.50014   0.40638   0.57882   0.00000  Uiso   1.00
H175   H     0.77937   0.29031   0.30620   0.00000  Uiso   1.00
O176   O     0.73533   0.65003   0.07437   0.00000  Uiso   1.00
O177   O     0.47727   0.42700   0.86442   0.00000  Uiso   1.00
O178   O     0.84360   0.27472   0.50676   0.00000  Uiso   1.00
N179   N     0.73533   0.60682   0.29617   0.00000  Uiso   1.00
N180   N     0.55142   0.44789   0.85917   0.00000  Uiso   1.00
N181   N     0.81247   0.33937   0.60433   0.00000  Uiso   1.00
N182   N     0.70668   0.57859   0.08673   0.00000  Uiso   1.00
N183   N     0.52277   0.41966   0.64973   0.00000  Uiso   1.00
N184   N     0.78381   0.31114   0.39488   0.00000  Uiso   1.00
C185   C     0.46719   0.29772   0.39506   0.00000  Uiso   1.00
C186   C     0.49877   0.29561   0.53135   0.00000  Uiso   1.00
C187   C     0.54105   0.27788   0.52926   0.00000  Uiso   1.00
C188   C     0.56469   0.27910   0.66586   0.00000  Uiso   1.00
C189   C     0.61648   0.27305   0.85711   0.00000  Uiso   1.00
C190   C     0.45497   0.34630   0.37618   0.00000  Uiso   1.00
C191   C     0.46043   0.37118   0.24363   0.00000  Uiso   1.00
C192   C     0.44720   0.41507   0.24962   0.00000  Uiso   1.00
C193   C     0.43096   0.48772   0.19994   0.00000  Uiso   1.00
C194   C     0.42507   0.27435   0.44643   0.00000  Uiso   1.00
C195   C     0.40537   0.23875   0.37293   0.00000  Uiso   1.00
C196   C     0.36696   0.22207   0.43804   0.00000  Uiso   1.00
C197   C     0.30430   0.18300   0.49743   0.00000  Uiso   1.00
C198   C     0.43399   0.33142   0.64136   0.00000  Uiso   1.00
C199   C     0.48073   0.31391   0.66512   0.00000  Uiso   1.00
C200   C     0.50432   0.31516   0.80176   0.00000  Uiso   1.00
C201   C     0.54662   0.29743   0.79989   0.00000  Uiso   1.00
C202   C     0.43694   0.36460   0.50996   0.00000  Uiso   1.00
C203   C     0.42370   0.40846   0.51613   0.00000  Uiso   1.00
C204   C     0.42913   0.43341   0.38364   0.00000  Uiso   1.00
C205   C     0.40704   0.29265   0.58021   0.00000  Uiso   1.00
C206   C     0.36864   0.27603   0.64544   0.00000  Uiso   1.00
C207   C     0.34889   0.24040   0.57205   0.00000  Uiso   1.00
H208   H     0.48123   0.28347   0.29090   0.00000  Uiso   1.00
H209   H     0.55499   0.26372   0.42571   0.00000  Uiso   1.00
H210   H     0.47438   0.35701   0.14012   0.00000  Uiso   1.00
H211   H     0.41934   0.22459   0.26941   0.00000  Uiso   1.00
H212   H     0.62883   0.24990   0.63414   0.00000  Uiso   1.00
H213   H     0.45884   0.44661   0.03196   0.00000  Uiso   1.00
H214   H     0.34277   0.16738   0.30457   0.00000  Uiso   1.00
H215   H     0.41995   0.34567   0.74551   0.00000  Uiso   1.00
H216   H     0.49035   0.32932   0.90527   0.00000  Uiso   1.00
H217   H     0.40974   0.42261   0.61968   0.00000  Uiso   1.00
H218   H     0.35470   0.29020   0.74896   0.00000  Uiso   1.00
H219   H     0.57637   0.30315   0.02337   0.00000  Uiso   1.00
H220   H     0.40638   0.49986   0.42118   0.00000  Uiso   1.00
H221   H     0.29031   0.22063   0.69380   0.00000  Uiso   1.00
O222   O     0.65003   0.26467   0.92563   0.00000  Uiso   1.00
O223   O     0.42700   0.52273   0.13558   0.00000  Uiso   1.00
O224   O     0.27472   0.15640   0.49324   0.00000  Uiso   1.00
N225   N     0.60682   0.26467   0.70383   0.00000  Uiso   1.00
N226   N     0.44789   0.44858   0.14083   0.00000  Uiso   1.00
N227   N     0.33937   0.18753   0.39567   0.00000  Uiso   1.00
N228   N     0.57859   0.29332   0.91327   0.00000  Uiso   1.00
N229   N     0.41966   0.47723   0.35027   0.00000  Uiso   1.00
N230   N     0.31114   0.21619   0.60512   0.00000  Uiso   1.00
C231   C     0.53281   0.70228   0.39506   0.00000  Uiso   1.00
C232   C     0.50123   0.70439   0.53135   0.00000  Uiso   1.00
C233   C     0.45895   0.72212   0.52926   0.00000  Uiso   1.00
C234   C     0.43531   0.72090   0.66586   0.00000  Uiso   1.00
C235   C     0.38352   0.72695   0.85711   0.00000  Uiso   1.00
C236   C     0.54503   0.65370   0.37618   0.00000  Uiso   1.00
C237   C     0.53957   0.62882   0.24363   0.00000  Uiso   1.00
C238   C     0.55280   0.58493   0.24962   0.00000  Uiso   1.00
C239   C     0.56904   0.51228   0.19994   0.00000  Uiso   1.00
C240   C     0.57493   0.72565   0.44643   0.00000  Uiso   1.00
C241   C     0.59463   0.76125   0.37293   0.00000  Uiso   1.00
C242   C     0.63304   0.77793   0.43804   0.00000  Uiso   1.00
C243   C     0.69570   0.81700   0.49743   0.00000  Uiso   1.00
C244   C     0.56601   0.66858   0.64136   0.00000  Uiso   1.00
C245   C     0.51927   0.68609   0.66512   0.00000  Uiso   1.00
C246   C     0.49568   0.68484   0.80176   0.00000  Uiso   1.00
C247   C     0.45338   0.70257   0.79989   0.00000  Uiso   1.00
C248   C     0.56306   0.63540   0.50996   0.00000  Uiso   1.00
C249   C     0.57630   0.59154   0.51613   0.00000  Uiso   1.00
C250   C     0.57087   0.56659   0.38364   0.00000  Uiso   1.00
C251   C     0.59296   0.70735   0.58021   0.00000  Uiso   1.00
C252   C     0.63136   0.72397   0.64544   0.00000  Uiso   1.00
C253   C     0.65111   0.75960   0.57205   0.00000  Uiso   1.00
H254   H     0.51877   0.71653   0.29090   0.00000  Uiso   1.00
H255   H     0.44501   0.73628   0.42571   0.00000  Uiso   1.00
H256   H     0.52562   0.64299   0.14012   0.00000  Uiso   1.00
H257   H     0.58066   0.77541   0.26941   0.00000  Uiso   1.00
H258   H     0.37117   0.75010   0.63414   0.00000  Uiso   1.00
H259   H     0.54116   0.55339   0.03196   0.00000  Uiso   1.00
H260   H     0.65723   0.83262   0.30457   0.00000  Uiso   1.00
H261   H     0.58005   0.65433   0.74551   0.00000  Uiso   1.00
H262   H     0.50965   0.67068   0.90527   0.00000  Uiso   1.00
H263   H     0.59026   0.57739   0.61968   0.00000  Uiso   1.00
H264   H     0.64530   0.70980   0.74896   0.00000  Uiso   1.00
H265   H     0.42363   0.69685   0.02337   0.00000  Uiso   1.00
H266   H     0.59362   0.50014   0.42118   0.00000  Uiso   1.00
H267   H     0.70969   0.77937   0.69380   0.00000  Uiso   1.00
O268   O     0.34997   0.73533   0.92563   0.00000  Uiso   1.00
O269   O     0.57300   0.47727   0.13558   0.00000  Uiso   1.00
O270   O     0.72528   0.84360   0.49324   0.00000  Uiso   1.00
N271   N     0.39318   0.73533   0.70383   0.00000  Uiso   1.00
N272   N     0.55211   0.55142   0.14083   0.00000  Uiso   1.00
N273   N     0.66063   0.81247   0.39567   0.00000  Uiso   1.00
N274   N     0.42141   0.70668   0.91327   0.00000  Uiso   1.00
N275   N     0.58034   0.52277   0.35027   0.00000  Uiso   1.00
N276   N     0.68886   0.78381   0.60512   0.00000  Uiso   1.00
C277   C     0.20228   0.96719   0.39506   0.00000  Uiso   1.00
C278   C     0.20439   0.99877   0.53135   0.00000  Uiso   1.00
C279   C     0.22212   0.04105   0.52926   0.00000  Uiso   1.00
C280   C     0.22090   0.06469   0.66586   0.00000  Uiso   1.00
C281   C     0.22695   0.11648   0.85711   0.00000  Uiso   1.00
C282   C     0.15370   0.95497   0.37618   0.00000  Uiso   1.00
C283   C     0.12882   0.96043   0.24363   0.00000  Uiso   1.00
C284   C     0.08493   0.94720   0.24962   0.00000  Uiso   1.00
C285   C     0.01228   0.93096   0.19994   0.00000  Uiso   1.00
C286   C     0.22565   0.92507   0.44643   0.00000  Uiso   1.00
C287   C     0.26125   0.90537   0.37293   0.00000  Uiso   1.00
C288   C     0.27793   0.86696   0.43804   0.00000  Uiso   1.00
C289   C     0.31700   0.80430   0.49743   0.00000  Uiso   1.00
C290   C     0.16858   0.93399   0.64136   0.00000  Uiso   1.00
C291   C     0.18609   0.98073   0.66512   0.00000  Uiso   1.00
C292   C     0.18484   0.00432   0.80176   0.00000  Uiso   1.00
C293   C     0.20257   0.04662   0.79989   0.00000  Uiso   1.00
C294   C     0.13540   0.93694   0.50996   0.00000  Uiso   1.00
C295   C     0.09154   0.92370   0.51613   0.00000  Uiso   1.00
C296   C     0.06659   0.92913   0.38364   0.00000  Uiso   1.00
C297   C     0.20735   0.90704   0.58021   0.00000  Uiso   1.00
C298   C     0.22397   0.86864   0.64544   0.00000  Uiso   1.00
C299   C     0.25960   0.84889   0.57205   0.00000  Uiso   1.00
H300   H     0.21653   0.98123   0.29090   0.00000  Uiso   1.00
H301   H     0.23628   0.05499   0.42571   0.00000  Uiso   1.00
H302   H     0.14299   0.97438   0.14012   0.00000  Uiso   1.00
H303   H     0.27541   0.91934   0.26941   0.00000  Uiso   1.00
H304   H     0.25010   0.12883   0.63414   0.00000  Uiso   1.00
H305   H     0.05339   0.95884   0.03196   0.00000  Uiso   1.00
H306   H     0.33262   0.84277   0.30457   0.00000  Uiso   1.00
H307   H     0.15433   0.91995   0.74551   0.00000  Uiso   1.00
H308   H     0.17068   0.99035   0.90527   0.00000  Uiso   1.00
H309   H     0.07739   0.90974   0.61968   0.00000  Uiso   1.00
H310   H     0.20980   0.85470   0.74896   0.00000  Uiso   1.00
H311   H     0.19685   0.07637   0.02337   0.00000  Uiso   1.00
H312   H     0.00014   0.90638   0.42118   0.00000  Uiso   1.00
H313   H     0.27937   0.79031   0.69380   0.00000  Uiso   1.00
O314   O     0.23533   0.15003   0.92563   0.00000  Uiso   1.00
O315   O     0.97727   0.92700   0.13558   0.00000  Uiso   1.00
O316   O     0.34360   0.77472   0.49324   0.00000  Uiso   1.00
N317   N     0.23533   0.10682   0.70383   0.00000  Uiso   1.00
N318   N     0.05142   0.94789   0.14083   0.00000  Uiso   1.00
N319   N     0.31247   0.83937   0.39567   0.00000  Uiso   1.00
N320   N     0.20668   0.07859   0.91327   0.00000  Uiso   1.00
N321   N     0.02277   0.91966   0.35027   0.00000  Uiso   1.00
N322   N     0.28381   0.81114   0.60512   0.00000  Uiso   1.00
C323   C     0.79772   0.03281   0.39506   0.00000  Uiso   1.00
C324   C     0.79561   0.00123   0.53135   0.00000  Uiso   1.00
C325   C     0.77788   0.95895   0.52926   0.00000  Uiso   1.00
C326   C     0.77910   0.93531   0.66586   0.00000  Uiso   1.00
C327   C     0.77305   0.88352   0.85711   0.00000  Uiso   1.00
C328   C     0.84630   0.04503   0.37618   0.00000  Uiso   1.00
C329   C     0.87118   0.03957   0.24363   0.00000  Uiso   1.00
C330   C     0.91507   0.05280   0.24962   0.00000  Uiso   1.00
C331   C     0.98772   0.06904   0.19994   0.00000  Uiso   1.00
C332   C     0.77435   0.07493   0.44643   0.00000  Uiso   1.00
C333   C     0.73875   0.09463   0.37293   0.00000  Uiso   1.00
C334   C     0.72207   0.13304   0.43804   0.00000  Uiso   1.00
C335   C     0.68300   0.19570   0.49743   0.00000  Uiso   1.00
C336   C     0.83142   0.06601   0.64136   0.00000  Uiso   1.00
C337   C     0.81391   0.01927   0.66512   0.00000  Uiso   1.00
C338   C     0.81516   0.99568   0.80176   0.00000  Uiso   1.00
C339   C     0.79743   0.95338   0.79989   0.00000  Uiso   1.00
C340   C     0.86460   0.06306   0.50996   0.00000  Uiso   1.00
C341   C     0.90846   0.07630   0.51613   0.00000  Uiso   1.00
C342   C     0.93341   0.07087   0.38364   0.00000  Uiso   1.00
C343   C     0.79265   0.09296   0.58021   0.00000  Uiso   1.00
C344   C     0.77603   0.13136   0.64544   0.00000  Uiso   1.00
C345   C     0.74040   0.15111   0.57205   0.00000  Uiso   1.00
H346   H     0.78347   0.01877   0.29090   0.00000  Uiso   1.00
H347   H     0.76372   0.94501   0.42571   0.00000  Uiso   1.00
H348   H     0.85701   0.02562   0.14012   0.00000  Uiso   1.00
H349   H     0.72459   0.08066   0.26941   0.00000  Uiso   1.00
H350   H     0.74990   0.87117   0.63414   0.00000  Uiso   1.00
H351   H     0.94661   0.04116   0.03196   0.00000  Uiso   1.00
H352   H     0.66738   0.15723   0.30457   0.00000  Uiso   1.00
H353   H     0.84567   0.08005   0.74551   0.00000  Uiso   1.00
H354   H     0.82932   0.00965   0.90527   0.00000  Uiso   1.00
H355   H     0.92261   0.09026   0.61968   0.00000  Uiso   1.00
H356   H     0.79020   0.14530   0.74896   0.00000  Uiso   1.00
H357   H     0.80315   0.92363   0.02337   0.00000  Uiso   1.00
H358   H     0.99986   0.09362   0.42118   0.00000  Uiso   1.00
H359   H     0.72063   0.20969   0.69380   0.00000  Uiso   1.00
O360   O     0.76467   0.84997   0.92563   0.00000  Uiso   1.00
O361   O     0.02273   0.07300   0.13558   0.00000  Uiso   1.00
O362   O     0.65640   0.22528   0.49324   0.00000  Uiso   1.00
N363   N     0.76467   0.89318   0.70383   0.00000  Uiso   1.00
N364   N     0.94858   0.05211   0.14083   0.00000  Uiso   1.00
N365   N     0.68753   0.16063   0.39567   0.00000  Uiso   1.00
N366   N     0.79332   0.92141   0.91327   0.00000  Uiso   1.00
N367   N     0.97723   0.08034   0.35027   0.00000  Uiso   1.00
N368   N     0.71619   0.18886   0.60512   0.00000  Uiso   1.00
