data_job_06708
_audit_creation_date              2018-12-19
_audit_creation_method            'Materials Studio'
_symmetry_space_group_name_H-M    'P1'
_symmetry_Int_Tables_number       1
_symmetry_cell_setting            triclinic
loop_
_symmetry_equiv_pos_as_xyz
  x,y,z
_cell_length_a                    22.6996
_cell_length_b                    22.4032
_cell_length_c                    16.6323
_cell_angle_alpha                 77.7838
_cell_angle_beta                  97.0485
_cell_angle_gamma                 79.8547
loop_
_atom_site_label
_atom_site_type_symbol
_atom_site_fract_x
_atom_site_fract_y
_atom_site_fract_z
_atom_site_U_iso_or_equiv
_atom_site_adp_type
_atom_site_occupancy
C1     C     0.92584   0.09028   0.34407   0.00000  Uiso   1.00
C2     C     0.97273   0.07460   0.42343   0.00000  Uiso   1.00
C3     C     0.96472   0.04526   0.50241   0.00000  Uiso   1.00
C4     C     0.01308   0.03510   0.56692   0.00000  Uiso   1.00
C5     C     0.07760   0.00796   0.69228   0.00000  Uiso   1.00
C6     C     0.91705   0.16043   0.30869   0.00000  Uiso   1.00
C7     C     0.86223   0.20326   0.29120   0.00000  Uiso   1.00
C8     C     0.86372   0.26535   0.25911   0.00000  Uiso   1.00
C9     C     0.84180   0.37146   0.20629   0.00000  Uiso   1.00
C10    C     0.95635   0.05920   0.28236   0.00000  Uiso   1.00
C11    C     0.93457   0.01691   0.24271   0.00000  Uiso   1.00
C12    C     0.96915   0.99378   0.18844   0.00000  Uiso   1.00
C13    C     0.00825   0.94271   0.09474   0.00000  Uiso   1.00
C14    C     0.02596   0.12440   0.31819   0.00000  Uiso   1.00
C15    C     0.02711   0.09313   0.40936   0.00000  Uiso   1.00
C16    C     0.07549   0.08301   0.47377   0.00000  Uiso   1.00
C17    C     0.06756   0.05366   0.55283   0.00000  Uiso   1.00
C18    C     0.97143   0.17896   0.29463   0.00000  Uiso   1.00
C19    C     0.97301   0.24101   0.26256   0.00000  Uiso   1.00
C20    C     0.91820   0.28392   0.24503   0.00000  Uiso   1.00
C21    C     0.01074   0.07772   0.26830   0.00000  Uiso   1.00
C22    C     0.04535   0.05466   0.21408   0.00000  Uiso   1.00
C23    C     0.02363   0.01235   0.17435   0.00000  Uiso   1.00
H24    H     0.88350   0.07586   0.35501   0.00000  Uiso   1.00
H25    H     0.92262   0.03094   0.51326   0.00000  Uiso   1.00
H26    H     0.82015   0.18891   0.30208   0.00000  Uiso   1.00
H27    H     0.89249   0.00259   0.25360   0.00000  Uiso   1.00
H28    H     0.98998   0.98932   0.68251   0.00000  Uiso   1.00
H29    H     0.77391   0.32241   0.23719   0.00000  Uiso   1.00
H30    H     0.92644   0.92952   0.13497   0.00000  Uiso   1.00
H31    H     0.06830   0.13883   0.30724   0.00000  Uiso   1.00
H32    H     0.11757   0.09735   0.46287   0.00000  Uiso   1.00
H33    H     0.01510   0.25533   0.25169   0.00000  Uiso   1.00
H34    H     0.08743   0.06901   0.20321   0.00000  Uiso   1.00
H35    H     0.14820   0.04324   0.64162   0.00000  Uiso   1.00
H36    H     0.93213   0.37632   0.19629   0.00000  Uiso   1.00
H37    H     0.08466   0.98343   0.09407   0.00000  Uiso   1.00
O38    O     0.09816   0.98788   0.76531   0.00000  Uiso   1.00
O39    O     0.81468   0.42487   0.18105   0.00000  Uiso   1.00
O40    O     0.01480   0.90941   0.04694   0.00000  Uiso   1.00
N41    N     0.02046   0.00769   0.65153   0.00000  Uiso   1.00
N42    N     0.81845   0.31911   0.23519   0.00000  Uiso   1.00
N43    N     0.96104   0.95180   0.13960   0.00000  Uiso   1.00
N44    N     0.10560   0.03670   0.62952   0.00000  Uiso   1.00
N45    N     0.90359   0.34812   0.21319   0.00000  Uiso   1.00
N46    N     0.04618   0.98081   0.11760   0.00000  Uiso   1.00
C47    C     0.37969   0.00138   0.08652   0.00000  Uiso   1.00
C48    C     0.44715   0.97489   0.09241   0.00000  Uiso   1.00
C49    C     0.47777   0.91516   0.13501   0.00000  Uiso   1.00
C50    C     0.53946   0.89988   0.13293   0.00000  Uiso   1.00
C51    C     0.63967   0.85223   0.14867   0.00000  Uiso   1.00
C52    C     0.37580   0.06044   0.11907   0.00000  Uiso   1.00
C53    C     0.34642   0.07264   0.18406   0.00000  Uiso   1.00
C54    C     0.34804   0.12939   0.20441   0.00000  Uiso   1.00
C55    C     0.33744   0.21458   0.26149   0.00000  Uiso   1.00
C56    C     0.35388   0.02300   0.99365   0.00000  Uiso   1.00
C57    C     0.30606   0.00374   0.95319   0.00000  Uiso   1.00
C58    C     0.28922   0.02899   0.86794   0.00000  Uiso   1.00
C59    C     0.24459   0.05605   0.73029   0.00000  Uiso   1.00
C60    C     0.43481   0.08047   0.00707   0.00000  Uiso   1.00
C61    C     0.47709   0.01785   0.04926   0.00000  Uiso   1.00
C62    C     0.53876   0.00266   0.04711   0.00000  Uiso   1.00
C63    C     0.56946   0.94292   0.08969   0.00000  Uiso   1.00
C64    C     0.40574   0.10340   0.07591   0.00000  Uiso   1.00
C65    C     0.40741   0.16015   0.09616   0.00000  Uiso   1.00
C66    C     0.37804   0.17243   0.16118   0.00000  Uiso   1.00
C67    C     0.38383   0.06596   0.95049   0.00000  Uiso   1.00
C68    C     0.36706   0.09125   0.86529   0.00000  Uiso   1.00
C69    C     0.31922   0.07202   0.82471   0.00000  Uiso   1.00
H70    H     0.35637   0.96793   0.12012   0.00000  Uiso   1.00
H71    H     0.45458   0.88193   0.16841   0.00000  Uiso   1.00
H72    H     0.32325   0.03939   0.21744   0.00000  Uiso   1.00
H73    H     0.28290   0.97050   0.98661   0.00000  Uiso   1.00
H74    H     0.57667   0.80552   0.20293   0.00000  Uiso   1.00
H75    H     0.29973   0.13755   0.30631   0.00000  Uiso   1.00
H76    H     0.21465   0.99229   0.81955   0.00000  Uiso   1.00
H77    H     0.45812   0.11392   0.97347   0.00000  Uiso   1.00
H78    H     0.56191   0.03591   0.01370   0.00000  Uiso   1.00
H79    H     0.43058   0.19338   0.06275   0.00000  Uiso   1.00
H80    H     0.39024   0.12449   0.83191   0.00000  Uiso   1.00
H81    H     0.66378   0.93051   0.07737   0.00000  Uiso   1.00
H82    H     0.38684   0.26254   0.18076   0.00000  Uiso   1.00
H83    H     0.30176   0.11727   0.69399   0.00000  Uiso   1.00
O84    O     0.68667   0.81408   0.16929   0.00000  Uiso   1.00
O85    O     0.32333   0.24969   0.30491   0.00000  Uiso   1.00
O86    O     0.21171   0.05910   0.66629   0.00000  Uiso   1.00
N87    N     0.58292   0.84564   0.16784   0.00000  Uiso   1.00
N88    N     0.32401   0.15606   0.26451   0.00000  Uiso   1.00
N89    N     0.24446   0.02026   0.80943   0.00000  Uiso   1.00
N90    N     0.62980   0.91289   0.10028   0.00000  Uiso   1.00
N91    N     0.37089   0.22332   0.19695   0.00000  Uiso   1.00
N92    N     0.29133   0.08751   0.74187   0.00000  Uiso   1.00
C93    C     0.02239   0.43829   0.94155   0.00000  Uiso   1.00
C94    C     0.03347   0.50271   0.94648   0.00000  Uiso   1.00
C95    C     0.06321   0.53879   0.89336   0.00000  Uiso   1.00
C96    C     0.06872   0.59640   0.90825   0.00000  Uiso   1.00
C97    C     0.08953   0.69325   0.90594   0.00000  Uiso   1.00
C98    C     0.05019   0.39500   0.02662   0.00000  Uiso   1.00
C99    C     0.09397   0.34051   0.04086   0.00000  Uiso   1.00
C100   C     0.11355   0.30745   0.12322   0.00000  Uiso   1.00
C101   C     0.16027   0.23705   0.24532   0.00000  Uiso   1.00
C102   C     0.95398   0.44332   0.93442   0.00000  Uiso   1.00
C103   C     0.91687   0.42945   0.87117   0.00000  Uiso   1.00
C104   C     0.85546   0.43706   0.87592   0.00000  Uiso   1.00
C105   C     0.75280   0.44170   0.85488   0.00000  Uiso   1.00
C106   C     0.97931   0.47645   0.06247   0.00000  Uiso   1.00
C107   C     0.01008   0.52343   0.01216   0.00000  Uiso   1.00
C108   C     0.01555   0.58100   0.02714   0.00000  Uiso   1.00
C109   C     0.04528   0.61716   0.97405   0.00000  Uiso   1.00
C110   C     0.02680   0.41572   0.09230   0.00000  Uiso   1.00
C111   C     0.04631   0.38273   0.17465   0.00000  Uiso   1.00
C112   C     0.09011   0.32821   0.18902   0.00000  Uiso   1.00
C113   C     0.93059   0.46405   0.00010   0.00000  Uiso   1.00
C114   C     0.86922   0.47167   0.00496   0.00000  Uiso   1.00
C115   C     0.83202   0.45782   0.94172   0.00000  Uiso   1.00
H116   H     0.04060   0.42215   0.89042   0.00000  Uiso   1.00
H117   H     0.08131   0.52273   0.84254   0.00000  Uiso   1.00
H118   H     0.11206   0.32448   0.99002   0.00000  Uiso   1.00
H119   H     0.93499   0.41342   0.82035   0.00000  Uiso   1.00
H120   H     0.11614   0.64336   0.81844   0.00000  Uiso   1.00
H121   H     0.18097   0.22534   0.12942   0.00000  Uiso   1.00
H122   H     0.80759   0.41287   0.77163   0.00000  Uiso   1.00
H123   H     0.96110   0.49258   0.11361   0.00000  Uiso   1.00
H124   H     0.99744   0.59702   0.07798   0.00000  Uiso   1.00
H125   H     0.02820   0.39878   0.22546   0.00000  Uiso   1.00
H126   H     0.85113   0.48771   0.05579   0.00000  Uiso   1.00
H127   H     0.04807   0.70366   0.00953   0.00000  Uiso   1.00
H128   H     0.11290   0.28564   0.32051   0.00000  Uiso   1.00
H129   H     0.73952   0.47317   0.96273   0.00000  Uiso   1.00
O130   O     0.10747   0.74094   0.88653   0.00000  Uiso   1.00
O131   O     0.19251   0.19250   0.29452   0.00000  Uiso   1.00
O132   O     0.70264   0.43854   0.82512   0.00000  Uiso   1.00
N133   N     0.09513   0.64323   0.86829   0.00000  Uiso   1.00
N134   N     0.15574   0.25240   0.15904   0.00000  Uiso   1.00
N135   N     0.80666   0.42771   0.82455   0.00000  Uiso   1.00
N136   N     0.05850   0.67567   0.97112   0.00000  Uiso   1.00
N137   N     0.11912   0.28485   0.26186   0.00000  Uiso   1.00
N138   N     0.77003   0.46016   0.92738   0.00000  Uiso   1.00
C139   C     0.25515   0.97975   0.49661   0.00000  Uiso   1.00
C140   C     0.29631   0.02691   0.49179   0.00000  Uiso   1.00
C141   C     0.27898   0.08918   0.49331   0.00000  Uiso   1.00
C142   C     0.32337   0.12463   0.48823   0.00000  Uiso   1.00
C143   C     0.37823   0.20179   0.48176   0.00000  Uiso   1.00
C144   C     0.28550   0.92576   0.57077   0.00000  Uiso   1.00
C145   C     0.25907   0.90300   0.63868   0.00000  Uiso   1.00
C146   C     0.29436   0.85330   0.70008   0.00000  Uiso   1.00
C147   C     0.33241   0.77340   0.81619   0.00000  Uiso   1.00
C148   C     0.25879   0.95384   0.41924   0.00000  Uiso   1.00
C149   C     0.20991   0.95467   0.35975   0.00000  Uiso   1.00
C150   C     0.22271   0.92860   0.29357   0.00000  Uiso   1.00
C151   C     0.21929   0.89230   0.17440   0.00000  Uiso   1.00
C152   C     0.36480   0.93197   0.48488   0.00000  Uiso   1.00
C153   C     0.35587   0.00095   0.48542   0.00000  Uiso   1.00
C154   C     0.40029   0.03632   0.48033   0.00000  Uiso   1.00
C155   C     0.38303   0.09864   0.48184   0.00000  Uiso   1.00
C156   C     0.34505   0.89981   0.56440   0.00000  Uiso   1.00
C157   C     0.38038   0.85013   0.62570   0.00000  Uiso   1.00
C158   C     0.35402   0.82730   0.69369   0.00000  Uiso   1.00
C159   C     0.31835   0.92789   0.41286   0.00000  Uiso   1.00
C160   C     0.33122   0.90181   0.34676   0.00000  Uiso   1.00
C161   C     0.28237   0.90260   0.28718   0.00000  Uiso   1.00
H162   H     0.20879   0.99996   0.50158   0.00000  Uiso   1.00
H163   H     0.23289   0.10925   0.49825   0.00000  Uiso   1.00
H164   H     0.21298   0.92309   0.64359   0.00000  Uiso   1.00
H165   H     0.16383   0.97476   0.36470   0.00000  Uiso   1.00
H166   H     0.28588   0.21897   0.49179   0.00000  Uiso   1.00
H167   H     0.24390   0.82643   0.79824   0.00000  Uiso   1.00
H168   H     0.14025   0.93538   0.21013   0.00000  Uiso   1.00
H169   H     0.41117   0.91176   0.47991   0.00000  Uiso   1.00
H170   H     0.44638   0.01622   0.47540   0.00000  Uiso   1.00
H171   H     0.42647   0.83006   0.62074   0.00000  Uiso   1.00
H172   H     0.37731   0.88173   0.34185   0.00000  Uiso   1.00
H173   H     0.45916   0.14346   0.47325   0.00000  Uiso   1.00
H174   H     0.41717   0.75092   0.77969   0.00000  Uiso   1.00
H175   H     0.31352   0.85987   0.19159   0.00000  Uiso   1.00
O176   O     0.39204   0.25151   0.47997   0.00000  Uiso   1.00
O177   O     0.33695   0.73651   0.88200   0.00000  Uiso   1.00
O178   O     0.20096   0.87946   0.11043   0.00000  Uiso   1.00
N179   N     0.32183   0.18686   0.48803   0.00000  Uiso   1.00
N180   N     0.28258   0.81987   0.77454   0.00000  Uiso   1.00
N181   N     0.18567   0.92172   0.22473   0.00000  Uiso   1.00
N182   N     0.41506   0.14624   0.47805   0.00000  Uiso   1.00
N183   N     0.37581   0.77924   0.76456   0.00000  Uiso   1.00
N184   N     0.27891   0.88109   0.21475   0.00000  Uiso   1.00
C185   C     0.74024   0.67564   0.34920   0.00000  Uiso   1.00
C186   C     0.80426   0.67243   0.39283   0.00000  Uiso   1.00
C187   C     0.84634   0.70413   0.35953   0.00000  Uiso   1.00
C188   C     0.90242   0.69499   0.40939   0.00000  Uiso   1.00
C189   C     0.99976   0.69603   0.46494   0.00000  Uiso   1.00
C190   C     0.69760   0.69624   0.40682   0.00000  Uiso   1.00
C191   C     0.65001   0.74795   0.38528   0.00000  Uiso   1.00
C192   C     0.61631   0.75884   0.44690   0.00000  Uiso   1.00
C193   C     0.54804   0.79681   0.52415   0.00000  Uiso   1.00
C194   C     0.73585   0.60850   0.34921   0.00000  Uiso   1.00
C195   C     0.72039   0.58645   0.27923   0.00000  Uiso   1.00
C196   C     0.71888   0.52347   0.29236   0.00000  Uiso   1.00
C197   C     0.70998   0.42522   0.28016   0.00000  Uiso   1.00
C198   C     0.76502   0.60303   0.49694   0.00000  Uiso   1.00
C199   C     0.81771   0.63299   0.47308   0.00000  Uiso   1.00
C200   C     0.87375   0.62380   0.52299   0.00000  Uiso   1.00
C201   C     0.91591   0.65548   0.48978   0.00000  Uiso   1.00
C202   C     0.71106   0.65680   0.48706   0.00000  Uiso   1.00
C203   C     0.67742   0.66761   0.54873   0.00000  Uiso   1.00
C204   C     0.62979   0.71933   0.52730   0.00000  Uiso   1.00
C205   C     0.74931   0.56906   0.42945   0.00000  Uiso   1.00
C206   C     0.74781   0.50611   0.44269   0.00000  Uiso   1.00
C207   C     0.73236   0.48396   0.37275   0.00000  Uiso   1.00
H208   H     0.72976   0.70635   0.28673   0.00000  Uiso   1.00
H209   H     0.83590   0.73466   0.29743   0.00000  Uiso   1.00
H210   H     0.63960   0.77846   0.32317   0.00000  Uiso   1.00
H211   H     0.70998   0.61698   0.21714   0.00000  Uiso   1.00
H212   H     0.95951   0.74866   0.34470   0.00000  Uiso   1.00
H213   H     0.54559   0.84101   0.39896   0.00000  Uiso   1.00
H214   H     0.69398   0.50051   0.17538   0.00000  Uiso   1.00
H215   H     0.77550   0.57232   0.55942   0.00000  Uiso   1.00
H216   H     0.88415   0.59327   0.58509   0.00000  Uiso   1.00
H217   H     0.68785   0.63708   0.61083   0.00000  Uiso   1.00
H218   H     0.75823   0.47560   0.50480   0.00000  Uiso   1.00
H219   H     0.99867   0.63391   0.57818   0.00000  Uiso   1.00
H220   H     0.58474   0.72626   0.63243   0.00000  Uiso   1.00
H221   H     0.73314   0.38576   0.40885   0.00000  Uiso   1.00
O222   O     0.04973   0.70751   0.47341   0.00000  Uiso   1.00
O223   O     0.50667   0.82866   0.54460   0.00000  Uiso   1.00
O224   O     0.70137   0.38192   0.25126   0.00000  Uiso   1.00
N225   N     0.95382   0.71877   0.39612   0.00000  Uiso   1.00
N226   N     0.56683   0.80512   0.44685   0.00000  Uiso   1.00
N227   N     0.70555   0.48678   0.23782   0.00000  Uiso   1.00
N228   N     0.97489   0.65703   0.52175   0.00000  Uiso   1.00
N229   N     0.58790   0.74337   0.57248   0.00000  Uiso   1.00
N230   N     0.72662   0.42503   0.36345   0.00000  Uiso   1.00
C231   C     0.51068   0.36760   0.76399   0.00000  Uiso   1.00
C232   C     0.53875   0.32252   0.84772   0.00000  Uiso   1.00
C233   C     0.59540   0.28278   0.86564   0.00000  Uiso   1.00
C234   C     0.61284   0.24517   0.94596   0.00000  Uiso   1.00
C235   C     0.66220   0.17487   0.06682   0.00000  Uiso   1.00
C236   C     0.49547   0.43206   0.78193   0.00000  Uiso   1.00
C237   C     0.51573   0.48442   0.74453   0.00000  Uiso   1.00
C238   C     0.49673   0.53903   0.76946   0.00000  Uiso   1.00
C239   C     0.47886   0.63881   0.78814   0.00000  Uiso   1.00
C240   C     0.45000   0.35090   0.73826   0.00000  Uiso   1.00
C241   C     0.43202   0.33503   0.66413   0.00000  Uiso   1.00
C242   C     0.37473   0.32132   0.65229   0.00000  Uiso   1.00
C243   C     0.28627   0.29508   0.60315   0.00000  Uiso   1.00
C244   C     0.44089   0.37149   0.87477   0.00000  Uiso   1.00
C245   C     0.50084   0.32463   0.90788   0.00000  Uiso   1.00
C246   C     0.51819   0.28708   0.98820   0.00000  Uiso   1.00
C247   C     0.57486   0.24729   0.00624   0.00000  Uiso   1.00
C248   C     0.45756   0.43417   0.84209   0.00000  Uiso   1.00
C249   C     0.43852   0.48872   0.86709   0.00000  Uiso   1.00
C250   C     0.45875   0.54115   0.82974   0.00000  Uiso   1.00
C251   C     0.41209   0.35301   0.79842   0.00000  Uiso   1.00
C252   C     0.35481   0.33933   0.78669   0.00000  Uiso   1.00
C253   C     0.33675   0.32344   0.71256   0.00000  Uiso   1.00
H254   H     0.54019   0.36596   0.71715   0.00000  Uiso   1.00
H255   H     0.62473   0.28116   0.81906   0.00000  Uiso   1.00
H256   H     0.54506   0.48277   0.69796   0.00000  Uiso   1.00
H257   H     0.46137   0.33340   0.61758   0.00000  Uiso   1.00
H258   H     0.70175   0.18809   0.95859   0.00000  Uiso   1.00
H259   H     0.53375   0.61321   0.70323   0.00000  Uiso   1.00
H260   H     0.35727   0.29823   0.53372   0.00000  Uiso   1.00
H261   H     0.41137   0.37314   0.92161   0.00000  Uiso   1.00
H262   H     0.48884   0.28872   0.03475   0.00000  Uiso   1.00
H263   H     0.40918   0.49034   0.91365   0.00000  Uiso   1.00
H264   H     0.32549   0.34097   0.83327   0.00000  Uiso   1.00
H265   H     0.59146   0.19423   0.13366   0.00000  Uiso   1.00
H266   H     0.42346   0.61935   0.87828   0.00000  Uiso   1.00
H267   H     0.24698   0.30437   0.70878   0.00000  Uiso   1.00
O268   O     0.69990   0.13552   0.11687   0.00000  Uiso   1.00
O269   O     0.47949   0.69326   0.78182   0.00000  Uiso   1.00
O270   O     0.24795   0.28002   0.55944   0.00000  Uiso   1.00
N271   N     0.66516   0.20111   0.98426   0.00000  Uiso   1.00
N272   N     0.50810   0.59857   0.74552   0.00000  Uiso   1.00
N273   N     0.34309   0.30411   0.58704   0.00000  Uiso   1.00
N274   N     0.60581   0.20441   0.07846   0.00000  Uiso   1.00
N275   N     0.44875   0.60187   0.83972   0.00000  Uiso   1.00
N276   N     0.28375   0.30741   0.68123   0.00000  Uiso   1.00
C277   C     0.98706   0.79985   0.70817   0.00000  Uiso   1.00
C278   C     0.99754   0.82302   0.61910   0.00000  Uiso   1.00
C279   C     0.05233   0.81115   0.59051   0.00000  Uiso   1.00
C280   C     0.05253   0.83653   0.50684   0.00000  Uiso   1.00
C281   C     0.07682   0.86702   0.37660   0.00000  Uiso   1.00
C282   C     0.93618   0.76394   0.70185   0.00000  Uiso   1.00
C283   C     0.93939   0.70239   0.74285   0.00000  Uiso   1.00
C284   C     0.88793   0.67803   0.72885   0.00000  Uiso   1.00
C285   C     0.81695   0.61680   0.72714   0.00000  Uiso   1.00
C286   C     0.96092   0.85794   0.73656   0.00000  Uiso   1.00
C287   C     0.98492   0.87542   0.80677   0.00000  Uiso   1.00
C288   C     0.95429   0.93020   0.82200   0.00000  Uiso   1.00
C289   C     0.92172   0.01491   0.87418   0.00000  Uiso   1.00
C290   C     0.88998   0.86603   0.61041   0.00000  Uiso   1.00
C291   C     0.94481   0.85897   0.56600   0.00000  Uiso   1.00
C292   C     0.94493   0.88438   0.48235   0.00000  Uiso   1.00
C293   C     0.99971   0.87255   0.45364   0.00000  Uiso   1.00
C294   C     0.88345   0.79988   0.64875   0.00000  Uiso   1.00
C295   C     0.83198   0.77561   0.63469   0.00000  Uiso   1.00
C296   C     0.83511   0.71404   0.67565   0.00000  Uiso   1.00
C297   C     0.90819   0.89389   0.68346   0.00000  Uiso   1.00
C298   C     0.87752   0.94864   0.69860   0.00000  Uiso   1.00
C299   C     0.90146   0.96621   0.76880   0.00000  Uiso   1.00
H300   H     0.02811   0.77186   0.74951   0.00000  Uiso   1.00
H301   H     0.09313   0.78333   0.63162   0.00000  Uiso   1.00
H302   H     0.98020   0.67459   0.78395   0.00000  Uiso   1.00
H303   H     0.02573   0.84759   0.84784   0.00000  Uiso   1.00
H304   H     0.14196   0.81187   0.47750   0.00000  Uiso   1.00
H305   H     0.90383   0.58259   0.79870   0.00000  Uiso   1.00
H306   H     0.99984   0.94740   0.93345   0.00000  Uiso   1.00
H307   H     0.84892   0.89402   0.56907   0.00000  Uiso   1.00
H308   H     0.90411   0.91219   0.44127   0.00000  Uiso   1.00
H309   H     0.79118   0.80345   0.59360   0.00000  Uiso   1.00
H310   H     0.83671   0.97645   0.65749   0.00000  Uiso   1.00
H311   H     0.98854   0.91646   0.32300   0.00000  Uiso   1.00
H312   H     0.75041   0.68718   0.64421   0.00000  Uiso   1.00
H313   H     0.84642   0.05199   0.77895   0.00000  Uiso   1.00
O314   O     0.10478   0.87390   0.31943   0.00000  Uiso   1.00
O315   O     0.79237   0.57310   0.74085   0.00000  Uiso   1.00
O316   O     0.91833   0.05172   0.91763   0.00000  Uiso   1.00
N317   N     0.09828   0.83401   0.45868   0.00000  Uiso   1.00
N318   N     0.87565   0.61964   0.75898   0.00000  Uiso   1.00
N319   N     0.96540   0.96069   0.88496   0.00000  Uiso   1.00
N320   N     0.01573   0.89028   0.37554   0.00000  Uiso   1.00
N321   N     0.79310   0.67591   0.67584   0.00000  Uiso   1.00
N322   N     0.88285   0.01697   0.80183   0.00000  Uiso   1.00
C323   C     0.68840   0.08139   0.71342   0.00000  Uiso   1.00
C324   C     0.62034   0.08414   0.70695   0.00000  Uiso   1.00
C325   C     0.57616   0.13728   0.69966   0.00000  Uiso   1.00
C326   C     0.51641   0.13007   0.69454   0.00000  Uiso   1.00
C327   C     0.41300   0.14321   0.68413   0.00000  Uiso   1.00
C328   C     0.70795   0.05366   0.64228   0.00000  Uiso   1.00
C329   C     0.73744   0.08117   0.58062   0.00000  Uiso   1.00
C330   C     0.75144   0.04829   0.52108   0.00000  Uiso   1.00
C331   C     0.78408   0.01409   0.41030   0.00000  Uiso   1.00
C332   C     0.71804   0.03284   0.79369   0.00000  Uiso   1.00
C333   C     0.75603   0.04283   0.85932   0.00000  Uiso   1.00
C334   C     0.77855   0.99242   0.92724   0.00000  Uiso   1.00
C335   C     0.82686   0.92589   0.05155   0.00000  Uiso   1.00
C336   C     0.66084   0.97409   0.71732   0.00000  Uiso   1.00
C337   C     0.60537   0.02586   0.70907   0.00000  Uiso   1.00
C338   C     0.54567   0.01857   0.70397   0.00000  Uiso   1.00
C339   C     0.50141   0.07169   0.69667   0.00000  Uiso   1.00
C340   C     0.69298   0.99538   0.64440   0.00000  Uiso   1.00
C341   C     0.70694   0.96245   0.58493   0.00000  Uiso   1.00
C342   C     0.73645   0.98991   0.52320   0.00000  Uiso   1.00
C343   C     0.70307   0.97456   0.79581   0.00000  Uiso   1.00
C344   C     0.72553   0.92412   0.86364   0.00000  Uiso   1.00
C345   C     0.76355   0.93403   0.92936   0.00000  Uiso   1.00
H346   H     0.70006   0.12676   0.71177   0.00000  Uiso   1.00
H347   H     0.58777   0.18237   0.69801   0.00000  Uiso   1.00
H348   H     0.74902   0.12626   0.57900   0.00000  Uiso   1.00
H349   H     0.76761   0.08793   0.85766   0.00000  Uiso   1.00
H350   H     0.45666   0.21833   0.68366   0.00000  Uiso   1.00
H351   H     0.79670   0.10002   0.43274   0.00000  Uiso   1.00
H352   H     0.83589   0.01919   0.02035   0.00000  Uiso   1.00
H353   H     0.64919   0.92871   0.71897   0.00000  Uiso   1.00
H354   H     0.53410   0.97346   0.70561   0.00000  Uiso   1.00
H355   H     0.69536   0.91735   0.58660   0.00000  Uiso   1.00
H356   H     0.71394   0.87903   0.86525   0.00000  Uiso   1.00
H357   H     0.41310   0.04877   0.68982   0.00000  Uiso   1.00
H358   H     0.75314   0.93046   0.43890   0.00000  Uiso   1.00
H359   H     0.79233   0.84963   0.02651   0.00000  Uiso   1.00
O360   O     0.36009   0.16657   0.67780   0.00000  Uiso   1.00
O361   O     0.80621   0.01133   0.34861   0.00000  Uiso   1.00
O362   O     0.85763   0.90530   0.11954   0.00000  Uiso   1.00
N363   N     0.46221   0.17228   0.68696   0.00000  Uiso   1.00
N364   N     0.78011   0.06167   0.45236   0.00000  Uiso   1.00
N365   N     0.81677   0.98610   0.00171   0.00000  Uiso   1.00
N366   N     0.43877   0.08105   0.69028   0.00000  Uiso   1.00
N367   N     0.75667   0.97043   0.45568   0.00000  Uiso   1.00
N368   N     0.79333   0.89486   0.00503   0.00000  Uiso   1.00
C369   C     0.64302   0.70852   0.00949   0.00000  Uiso   1.00
C370   C     0.63588   0.64544   0.99338   0.00000  Uiso   1.00
C371   C     0.62057   0.59743   0.04912   0.00000  Uiso   1.00
C372   C     0.61629   0.54339   0.02257   0.00000  Uiso   1.00
C373   C     0.60356   0.44632   0.00963   0.00000  Uiso   1.00
C374   C     0.59975   0.75766   0.93958   0.00000  Uiso   1.00
C375   C     0.55407   0.80401   0.95009   0.00000  Uiso   1.00
C376   C     0.51939   0.84444   0.87824   0.00000  Uiso   1.00
C377   C     0.45060   0.92163   0.78179   0.00000  Uiso   1.00
C378   C     0.70688   0.71519   0.99525   0.00000  Uiso   1.00
C379   C     0.75126   0.72585   0.05256   0.00000  Uiso   1.00
C380   C     0.80677   0.73054   0.02758   0.00000  Uiso   1.00
C381   C     0.90430   0.74180   0.01757   0.00000  Uiso   1.00
C382   C     0.66267   0.69791   0.86322   0.00000  Uiso   1.00
C383   C     0.64655   0.63968   0.91393   0.00000  Uiso   1.00
C384   C     0.64230   0.58569   0.88729   0.00000  Uiso   1.00
C385   C     0.62699   0.53761   0.94298   0.00000  Uiso   1.00
C386   C     0.61042   0.75190   0.86014   0.00000  Uiso   1.00
C387   C     0.57581   0.79227   0.78826   0.00000  Uiso   1.00
C388   C     0.53008   0.83866   0.79865   0.00000  Uiso   1.00
C389   C     0.71755   0.70943   0.91581   0.00000  Uiso   1.00
C390   C     0.77300   0.71411   0.89073   0.00000  Uiso   1.00
C391   C     0.81746   0.72477   0.94799   0.00000  Uiso   1.00
H392   H     0.63471   0.71301   0.07133   0.00000  Uiso   1.00
H393   H     0.61230   0.60191   0.11059   0.00000  Uiso   1.00
H394   H     0.54583   0.80846   0.01158   0.00000  Uiso   1.00
H395   H     0.74299   0.73031   0.11404   0.00000  Uiso   1.00
H396   H     0.59215   0.47621   0.11907   0.00000  Uiso   1.00
H397   H     0.45199   0.91174   0.91029   0.00000  Uiso   1.00
H398   H     0.86774   0.74695   0.12635   0.00000  Uiso   1.00
H399   H     0.67098   0.69342   0.80136   0.00000  Uiso   1.00
H400   H     0.65056   0.58124   0.82580   0.00000  Uiso   1.00
H401   H     0.58408   0.78779   0.72679   0.00000  Uiso   1.00
H402   H     0.78124   0.70964   0.82925   0.00000  Uiso   1.00
H403   H     0.62320   0.45943   0.88792   0.00000  Uiso   1.00
H404   H     0.48304   0.89497   0.67914   0.00000  Uiso   1.00
H405   H     0.89879   0.73017   0.89520   0.00000  Uiso   1.00
O406   O     0.59357   0.39438   0.02444   0.00000  Uiso   1.00
O407   O     0.40970   0.96579   0.75053   0.00000  Uiso   1.00
O408   O     0.95515   0.74959   0.03399   0.00000  Uiso   1.00
N409   N     0.60227   0.48765   0.06132   0.00000  Uiso   1.00
N410   N     0.47122   0.89484   0.86613   0.00000  Uiso   1.00
N411   N     0.85991   0.74079   0.06811   0.00000  Uiso   1.00
N412   N     0.61898   0.47862   0.93694   0.00000  Uiso   1.00
N413   N     0.48793   0.88581   0.74175   0.00000  Uiso   1.00
N414   N     0.87662   0.73176   0.94373   0.00000  Uiso   1.00
C415   C     0.63649   0.22149   0.31404   0.00000  Uiso   1.00
C416   C     0.62155   0.15669   0.32899   0.00000  Uiso   1.00
C417   C     0.64930   0.10707   0.29975   0.00000  Uiso   1.00
C418   C     0.62917   0.05161   0.32016   0.00000  Uiso   1.00
C419   C     0.61299   0.95185   0.33605   0.00000  Uiso   1.00
C420   C     0.57704   0.26730   0.27343   0.00000  Uiso   1.00
C421   C     0.56737   0.31069   0.19748   0.00000  Uiso   1.00
C422   C     0.50977   0.34835   0.17112   0.00000  Uiso   1.00
C423   C     0.42450   0.42035   0.10077   0.00000  Uiso   1.00
C424   C     0.65254   0.23343   0.40017   0.00000  Uiso   1.00
C425   C     0.70634   0.24837   0.43079   0.00000  Uiso   1.00
C426   C     0.71230   0.25753   0.51114   0.00000  Uiso   1.00
C427   C     0.74425   0.27695   0.63758   0.00000  Uiso   1.00
C428   C     0.55139   0.21121   0.40229   0.00000  Uiso   1.00
C429   C     0.57533   0.15111   0.37692   0.00000  Uiso   1.00
C430   C     0.55516   0.09570   0.39739   0.00000  Uiso   1.00
C431   C     0.58287   0.04602   0.36818   0.00000  Uiso   1.00
C432   C     0.53082   0.26172   0.32136   0.00000  Uiso   1.00
C433   C     0.47322   0.29932   0.29511   0.00000  Uiso   1.00
C434   C     0.46346   0.34276   0.21914   0.00000  Uiso   1.00
C435   C     0.60632   0.22785   0.44811   0.00000  Uiso   1.00
C436   C     0.61220   0.23700   0.52843   0.00000  Uiso   1.00
C437   C     0.66599   0.25194   0.55916   0.00000  Uiso   1.00
H438   H     0.67246   0.22584   0.27672   0.00000  Uiso   1.00
H439   H     0.68506   0.11141   0.26265   0.00000  Uiso   1.00
H440   H     0.60314   0.31501   0.16040   0.00000  Uiso   1.00
H441   H     0.74210   0.25269   0.39368   0.00000  Uiso   1.00
H442   H     0.67863   0.98210   0.26817   0.00000  Uiso   1.00
H443   H     0.50591   0.41140   0.05258   0.00000  Uiso   1.00
H444   H     0.79892   0.27999   0.54448   0.00000  Uiso   1.00
H445   H     0.51541   0.20687   0.43961   0.00000  Uiso   1.00
H446   H     0.51939   0.09140   0.43448   0.00000  Uiso   1.00
H447   H     0.43747   0.29499   0.33222   0.00000  Uiso   1.00
H448   H     0.57642   0.23267   0.56550   0.00000  Uiso   1.00
H449   H     0.54416   0.96586   0.40762   0.00000  Uiso   1.00
H450   H     0.37144   0.39516   0.19203   0.00000  Uiso   1.00
H451   H     0.66445   0.26375   0.68394   0.00000  Uiso   1.00
O452   O     0.61683   0.89837   0.33156   0.00000  Uiso   1.00
O453   O     0.39024   0.46160   0.04872   0.00000  Uiso   1.00
O454   O     0.77465   0.28919   0.69409   0.00000  Uiso   1.00
N455   N     0.64645   0.99412   0.30171   0.00000  Uiso   1.00
N456   N     0.48496   0.39548   0.10013   0.00000  Uiso   1.00
N457   N     0.75889   0.27264   0.56002   0.00000  Uiso   1.00
N458   N     0.57409   0.98538   0.37675   0.00000  Uiso   1.00
N459   N     0.41260   0.38674   0.17518   0.00000  Uiso   1.00
N460   N     0.68653   0.26390   0.63506   0.00000  Uiso   1.00
C461   C     0.12731   0.38961   0.46746   0.00000  Uiso   1.00
C462   C     0.06022   0.38743   0.45112   0.00000  Uiso   1.00
C463   C     0.03435   0.33844   0.48586   0.00000  Uiso   1.00
C464   C     0.97215   0.34544   0.46300   0.00000  Uiso   1.00
C465   C     0.87331   0.33382   0.44606   0.00000  Uiso   1.00
C466   C     0.14730   0.40123   0.38225   0.00000  Uiso   1.00
C467   C     0.19464   0.36383   0.35909   0.00000  Uiso   1.00
C468   C     0.20574   0.38245   0.27827   0.00000  Uiso   1.00
C469   C     0.24212   0.39227   0.15442   0.00000  Uiso   1.00
C470   C     0.13024   0.44840   0.49884   0.00000  Uiso   1.00
C471   C     0.16325   0.45068   0.57371   0.00000  Uiso   1.00
C472   C     0.16000   0.50902   0.59104   0.00000  Uiso   1.00
C473   C     0.16989   0.59209   0.64822   0.00000  Uiso   1.00
C474   C     0.06286   0.48919   0.36508   0.00000  Uiso   1.00
C475   C     0.02522   0.44152   0.39551   0.00000  Uiso   1.00
C476   C     0.96304   0.44861   0.37260   0.00000  Uiso   1.00
C477   C     0.93707   0.39963   0.40730   0.00000  Uiso   1.00
C478   C     0.11229   0.45531   0.32664   0.00000  Uiso   1.00
C479   C     0.12333   0.47400   0.24583   0.00000  Uiso   1.00
C480   C     0.17067   0.43664   0.22256   0.00000  Uiso   1.00
C481   C     0.09523   0.50249   0.44324   0.00000  Uiso   1.00
C482   C     0.09194   0.56085   0.46045   0.00000  Uiso   1.00
C483   C     0.12493   0.56321   0.53533   0.00000  Uiso   1.00
H484   H     0.15457   0.34750   0.51074   0.00000  Uiso   1.00
H485   H     0.06146   0.29658   0.52888   0.00000  Uiso   1.00
H486   H     0.22173   0.32198   0.40214   0.00000  Uiso   1.00
H487   H     0.19034   0.40881   0.61672   0.00000  Uiso   1.00
H488   H     0.94279   0.26398   0.52445   0.00000  Uiso   1.00
H489   H     0.28075   0.31753   0.25722   0.00000  Uiso   1.00
H490   H     0.21456   0.50064   0.70971   0.00000  Uiso   1.00
H491   H     0.03560   0.53130   0.32179   0.00000  Uiso   1.00
H492   H     0.93596   0.49047   0.32957   0.00000  Uiso   1.00
H493   H     0.09623   0.51586   0.20282   0.00000  Uiso   1.00
H494   H     0.06484   0.60269   0.41741   0.00000  Uiso   1.00
H495   H     0.84093   0.42134   0.36267   0.00000  Uiso   1.00
H496   H     0.17889   0.47489   0.09544   0.00000  Uiso   1.00
H497   H     0.11270   0.65800   0.54793   0.00000  Uiso   1.00
O498   O     0.82846   0.31247   0.45206   0.00000  Uiso   1.00
O499   O     0.27186   0.38274   0.10147   0.00000  Uiso   1.00
O500   O     0.18501   0.62297   0.69513   0.00000  Uiso   1.00
N501   N     0.93249   0.30662   0.48532   0.00000  Uiso   1.00
N502   N     0.24845   0.35668   0.23547   0.00000  Uiso   1.00
N503   N     0.18658   0.52788   0.65850   0.00000  Uiso   1.00
N504   N     0.87768   0.39129   0.39827   0.00000  Uiso   1.00
N505   N     0.19364   0.44136   0.14842   0.00000  Uiso   1.00
N506   N     0.13177   0.61255   0.57145   0.00000  Uiso   1.00
C507   C     0.24420   0.71367   0.04053   0.00000  Uiso   1.00
C508   C     0.24802   0.65235   0.01353   0.00000  Uiso   1.00
C509   C     0.23909   0.64633   0.93182   0.00000  Uiso   1.00
C510   C     0.24457   0.58617   0.92015   0.00000  Uiso   1.00
C511   C     0.24835   0.49889   0.86794   0.00000  Uiso   1.00
C512   C     0.19716   0.71445   0.09855   0.00000  Uiso   1.00
C513   C     0.14546   0.76065   0.08832   0.00000  Uiso   1.00
C514   C     0.10813   0.75276   0.14823   0.00000  Uiso   1.00
C515   C     0.03298   0.76192   0.22805   0.00000  Uiso   1.00
C516   C     0.30499   0.70833   0.09488   0.00000  Uiso   1.00
C517   C     0.34395   0.74940   0.08159   0.00000  Uiso   1.00
C518   C     0.39739   0.73636   0.13843   0.00000  Uiso   1.00
C519   C     0.48965   0.73602   0.21256   0.00000  Uiso   1.00
C520   C     0.26984   0.61751   0.16512   0.00000  Uiso   1.00
C521   C     0.26195   0.60011   0.08121   0.00000  Uiso   1.00
C522   C     0.26745   0.53994   0.06967   0.00000  Uiso   1.00
C523   C     0.25852   0.53384   0.98795   0.00000  Uiso   1.00
C524   C     0.21108   0.66221   0.16622   0.00000  Uiso   1.00
C525   C     0.17382   0.65426   0.22617   0.00000  Uiso   1.00
C526   C     0.12208   0.70043   0.21603   0.00000  Uiso   1.00
C527   C     0.31891   0.65609   0.16256   0.00000  Uiso   1.00
C528   C     0.37230   0.64300   0.21944   0.00000  Uiso   1.00
C529   C     0.41134   0.68404   0.20623   0.00000  Uiso   1.00
H530   H     0.23336   0.75434   0.98784   0.00000  Uiso   1.00
H531   H     0.22831   0.68677   0.87946   0.00000  Uiso   1.00
H532   H     0.13471   0.80107   0.03594   0.00000  Uiso   1.00
H533   H     0.33316   0.78981   0.02921   0.00000  Uiso   1.00
H534   H     0.22882   0.58882   0.78914   0.00000  Uiso   1.00
H535   H     0.03147   0.82984   0.11912   0.00000  Uiso   1.00
H536   H     0.44994   0.80611   0.10493   0.00000  Uiso   1.00
H537   H     0.28068   0.57684   0.21782   0.00000  Uiso   1.00
H538   H     0.27822   0.49953   0.12205   0.00000  Uiso   1.00
H539   H     0.18461   0.61383   0.27854   0.00000  Uiso   1.00
H540   H     0.38306   0.60257   0.27181   0.00000  Uiso   1.00
H541   H     0.26933   0.43685   0.98604   0.00000  Uiso   1.00
H542   H     0.07197   0.67787   0.31602   0.00000  Uiso   1.00
H543   H     0.49044   0.65413   0.30182   0.00000  Uiso   1.00
O544   O     0.24658   0.46518   0.82045   0.00000  Uiso   1.00
O545   O     0.98767   0.78140   0.25337   0.00000  Uiso   1.00
O546   O     0.53669   0.75025   0.23474   0.00000  Uiso   1.00
N547   N     0.23870   0.56366   0.84863   0.00000  Uiso   1.00
N548   N     0.05418   0.78900   0.15712   0.00000  Uiso   1.00
N549   N     0.44541   0.76682   0.14387   0.00000  Uiso   1.00
N550   N     0.26050   0.48189   0.95458   0.00000  Uiso   1.00
N551   N     0.07598   0.70722   0.26307   0.00000  Uiso   1.00
N552   N     0.46721   0.68504   0.24982   0.00000  Uiso   1.00
