data_job_05894
_audit_creation_date              2018-12-19
_audit_creation_method            'Materials Studio'
_symmetry_space_group_name_H-M    'P1'
_symmetry_Int_Tables_number       1
_symmetry_cell_setting            triclinic
loop_
_symmetry_equiv_pos_as_xyz
  x,y,z
_cell_length_a                    47.5334
_cell_length_b                    6.9478
_cell_length_c                    44.6954
_cell_angle_alpha                 90.0000
_cell_angle_beta                  90.0000
_cell_angle_gamma                 90.0000
loop_
_atom_site_label
_atom_site_type_symbol
_atom_site_fract_x
_atom_site_fract_y
_atom_site_fract_z
_atom_site_U_iso_or_equiv
_atom_site_adp_type
_atom_site_occupancy
C1     C     0.11769   0.31883   0.39794   0.00000  Uiso   1.00
C2     C     0.09305   0.35028   0.41922   0.00000  Uiso   1.00
C3     C     0.07944   0.20812   0.43554   0.00000  Uiso   1.00
C4     C     0.05735   0.26620   0.45375   0.00000  Uiso   1.00
C5     C     0.02031   0.28560   0.48652   0.00000  Uiso   1.00
C6     C     0.10847   0.40063   0.36783   0.00000  Uiso   1.00
C7     C     0.10783   0.30081   0.34095   0.00000  Uiso   1.00
C8     C     0.09873   0.40129   0.31590   0.00000  Uiso   1.00
C9     C     0.08566   0.49892   0.26888   0.00000  Uiso   1.00
C10    C     0.14126   0.44950   0.40903   0.00000  Uiso   1.00
C11    C     0.16820   0.39078   0.41677   0.00000  Uiso   1.00
C12    C     0.18672   0.53241   0.42640   0.00000  Uiso   1.00
C13    C     0.22456   0.70590   0.44334   0.00000  Uiso   1.00
C14    C     0.10267   0.67477   0.40126   0.00000  Uiso   1.00
C15    C     0.08488   0.54361   0.42103   0.00000  Uiso   1.00
C16    C     0.06281   0.60192   0.43922   0.00000  Uiso   1.00
C17    C     0.04918   0.45987   0.45556   0.00000  Uiso   1.00
C18    C     0.10031   0.59396   0.36964   0.00000  Uiso   1.00
C19    C     0.09121   0.69461   0.34462   0.00000  Uiso   1.00
C20    C     0.09056   0.59497   0.31771   0.00000  Uiso   1.00
C21    C     0.13310   0.64283   0.41084   0.00000  Uiso   1.00
C22    C     0.15158   0.78458   0.42045   0.00000  Uiso   1.00
C23    C     0.17854   0.72609   0.42821   0.00000  Uiso   1.00
H24    H     0.12405   0.16832   0.39653   0.00000  Uiso   1.00
H25    H     0.08576   0.05852   0.43414   0.00000  Uiso   1.00
H26    H     0.11415   0.15121   0.33955   0.00000  Uiso   1.00
H27    H     0.17451   0.24116   0.41537   0.00000  Uiso   1.00
H28    H     0.03970   0.02203   0.47662   0.00000  Uiso   1.00
H29    H     0.09958   0.21749   0.27719   0.00000  Uiso   1.00
H30    H     0.22686   0.40717   0.43706   0.00000  Uiso   1.00
H31    H     0.09631   0.82529   0.40267   0.00000  Uiso   1.00
H32    H     0.05650   0.75154   0.44061   0.00000  Uiso   1.00
H33    H     0.08490   0.84423   0.34603   0.00000  Uiso   1.00
H34    H     0.14526   0.93418   0.42185   0.00000  Uiso   1.00
H35    H     0.01596   0.58452   0.48188   0.00000  Uiso   1.00
H36    H     0.07584   0.77997   0.28244   0.00000  Uiso   1.00
H37    H     0.20312   0.96965   0.44231   0.00000  Uiso   1.00
O38    O     0.00214   0.24290   0.50409   0.00000  Uiso   1.00
O39    O     0.08070   0.49934   0.24244   0.00000  Uiso   1.00
O40    O     0.24769   0.74819   0.45219   0.00000  Uiso   1.00
N41    N     0.03958   0.16454   0.47265   0.00000  Uiso   1.00
N42    N     0.09556   0.34727   0.28620   0.00000  Uiso   1.00
N43    N     0.21456   0.52461   0.43565   0.00000  Uiso   1.00
N44    N     0.02680   0.46721   0.47548   0.00000  Uiso   1.00
N45    N     0.08279   0.64994   0.28903   0.00000  Uiso   1.00
N46    N     0.20178   0.82728   0.43848   0.00000  Uiso   1.00
C47    C     0.38231   0.68117   0.39794   0.00000  Uiso   1.00
C48    C     0.40695   0.64972   0.41922   0.00000  Uiso   1.00
C49    C     0.42056   0.79188   0.43554   0.00000  Uiso   1.00
C50    C     0.44265   0.73380   0.45375   0.00000  Uiso   1.00
C51    C     0.47969   0.71440   0.48652   0.00000  Uiso   1.00
C52    C     0.39153   0.59937   0.36783   0.00000  Uiso   1.00
C53    C     0.39217   0.69919   0.34095   0.00000  Uiso   1.00
C54    C     0.40127   0.59871   0.31590   0.00000  Uiso   1.00
C55    C     0.41434   0.50108   0.26888   0.00000  Uiso   1.00
C56    C     0.35874   0.55050   0.40903   0.00000  Uiso   1.00
C57    C     0.33180   0.60922   0.41677   0.00000  Uiso   1.00
C58    C     0.31328   0.46759   0.42640   0.00000  Uiso   1.00
C59    C     0.27544   0.29410   0.44334   0.00000  Uiso   1.00
C60    C     0.39733   0.32523   0.40126   0.00000  Uiso   1.00
C61    C     0.41512   0.45639   0.42103   0.00000  Uiso   1.00
C62    C     0.43719   0.39808   0.43922   0.00000  Uiso   1.00
C63    C     0.45082   0.54013   0.45556   0.00000  Uiso   1.00
C64    C     0.39969   0.40604   0.36964   0.00000  Uiso   1.00
C65    C     0.40879   0.30539   0.34462   0.00000  Uiso   1.00
C66    C     0.40944   0.40503   0.31771   0.00000  Uiso   1.00
C67    C     0.36690   0.35717   0.41084   0.00000  Uiso   1.00
C68    C     0.34842   0.21542   0.42045   0.00000  Uiso   1.00
C69    C     0.32146   0.27391   0.42821   0.00000  Uiso   1.00
H70    H     0.37595   0.83168   0.39653   0.00000  Uiso   1.00
H71    H     0.41424   0.94148   0.43414   0.00000  Uiso   1.00
H72    H     0.38585   0.84879   0.33955   0.00000  Uiso   1.00
H73    H     0.32549   0.75884   0.41537   0.00000  Uiso   1.00
H74    H     0.46030   0.97797   0.47662   0.00000  Uiso   1.00
H75    H     0.40042   0.78251   0.27719   0.00000  Uiso   1.00
H76    H     0.27314   0.59283   0.43706   0.00000  Uiso   1.00
H77    H     0.40369   0.17471   0.40267   0.00000  Uiso   1.00
H78    H     0.44350   0.24846   0.44061   0.00000  Uiso   1.00
H79    H     0.41510   0.15577   0.34603   0.00000  Uiso   1.00
H80    H     0.35474   0.06582   0.42185   0.00000  Uiso   1.00
H81    H     0.48404   0.41548   0.48188   0.00000  Uiso   1.00
H82    H     0.42416   0.22003   0.28244   0.00000  Uiso   1.00
H83    H     0.29688   0.03035   0.44231   0.00000  Uiso   1.00
O84    O     0.49786   0.75710   0.50409   0.00000  Uiso   1.00
O85    O     0.41930   0.50066   0.24244   0.00000  Uiso   1.00
O86    O     0.25231   0.25181   0.45219   0.00000  Uiso   1.00
N87    N     0.46042   0.83546   0.47265   0.00000  Uiso   1.00
N88    N     0.40444   0.65273   0.28620   0.00000  Uiso   1.00
N89    N     0.28544   0.47539   0.43565   0.00000  Uiso   1.00
N90    N     0.47320   0.53279   0.47548   0.00000  Uiso   1.00
N91    N     0.41721   0.35006   0.28903   0.00000  Uiso   1.00
N92    N     0.29822   0.17272   0.43848   0.00000  Uiso   1.00
C93    C     0.38231   0.81883   0.10206   0.00000  Uiso   1.00
C94    C     0.40695   0.85028   0.08078   0.00000  Uiso   1.00
C95    C     0.42056   0.70812   0.06446   0.00000  Uiso   1.00
C96    C     0.44265   0.76620   0.04625   0.00000  Uiso   1.00
C97    C     0.47969   0.78560   0.01348   0.00000  Uiso   1.00
C98    C     0.39153   0.90063   0.13217   0.00000  Uiso   1.00
C99    C     0.39217   0.80081   0.15905   0.00000  Uiso   1.00
C100   C     0.40127   0.90129   0.18410   0.00000  Uiso   1.00
C101   C     0.41434   0.99892   0.23112   0.00000  Uiso   1.00
C102   C     0.35874   0.94950   0.09097   0.00000  Uiso   1.00
C103   C     0.33180   0.89078   0.08323   0.00000  Uiso   1.00
C104   C     0.31328   0.03241   0.07360   0.00000  Uiso   1.00
C105   C     0.27544   0.20590   0.05666   0.00000  Uiso   1.00
C106   C     0.39733   0.17477   0.09874   0.00000  Uiso   1.00
C107   C     0.41512   0.04361   0.07897   0.00000  Uiso   1.00
C108   C     0.43719   0.10192   0.06078   0.00000  Uiso   1.00
C109   C     0.45082   0.95987   0.04444   0.00000  Uiso   1.00
C110   C     0.39969   0.09396   0.13036   0.00000  Uiso   1.00
C111   C     0.40879   0.19461   0.15538   0.00000  Uiso   1.00
C112   C     0.40944   0.09497   0.18229   0.00000  Uiso   1.00
C113   C     0.36690   0.14283   0.08916   0.00000  Uiso   1.00
C114   C     0.34842   0.28458   0.07955   0.00000  Uiso   1.00
C115   C     0.32146   0.22609   0.07179   0.00000  Uiso   1.00
H116   H     0.37595   0.66832   0.10347   0.00000  Uiso   1.00
H117   H     0.41424   0.55852   0.06586   0.00000  Uiso   1.00
H118   H     0.38585   0.65121   0.16045   0.00000  Uiso   1.00
H119   H     0.32549   0.74116   0.08463   0.00000  Uiso   1.00
H120   H     0.46030   0.52203   0.02338   0.00000  Uiso   1.00
H121   H     0.40042   0.71749   0.22281   0.00000  Uiso   1.00
H122   H     0.27314   0.90717   0.06294   0.00000  Uiso   1.00
H123   H     0.40369   0.32529   0.09733   0.00000  Uiso   1.00
H124   H     0.44350   0.25154   0.05939   0.00000  Uiso   1.00
H125   H     0.41510   0.34423   0.15397   0.00000  Uiso   1.00
H126   H     0.35474   0.43418   0.07815   0.00000  Uiso   1.00
H127   H     0.48404   0.08452   0.01812   0.00000  Uiso   1.00
H128   H     0.42416   0.27997   0.21756   0.00000  Uiso   1.00
H129   H     0.29688   0.46965   0.05769   0.00000  Uiso   1.00
O130   O     0.49786   0.74290   0.99591   0.00000  Uiso   1.00
O131   O     0.41930   0.99934   0.25756   0.00000  Uiso   1.00
O132   O     0.25231   0.24819   0.04781   0.00000  Uiso   1.00
N133   N     0.46042   0.66454   0.02735   0.00000  Uiso   1.00
N134   N     0.40444   0.84727   0.21380   0.00000  Uiso   1.00
N135   N     0.28544   0.02461   0.06435   0.00000  Uiso   1.00
N136   N     0.47320   0.96721   0.02452   0.00000  Uiso   1.00
N137   N     0.41721   0.14994   0.21097   0.00000  Uiso   1.00
N138   N     0.29822   0.32728   0.06152   0.00000  Uiso   1.00
C139   C     0.11769   0.18117   0.10206   0.00000  Uiso   1.00
C140   C     0.09305   0.14972   0.08078   0.00000  Uiso   1.00
C141   C     0.07944   0.29188   0.06446   0.00000  Uiso   1.00
C142   C     0.05735   0.23380   0.04625   0.00000  Uiso   1.00
C143   C     0.02031   0.21440   0.01348   0.00000  Uiso   1.00
C144   C     0.10847   0.09937   0.13217   0.00000  Uiso   1.00
C145   C     0.10783   0.19919   0.15905   0.00000  Uiso   1.00
C146   C     0.09873   0.09871   0.18410   0.00000  Uiso   1.00
C147   C     0.08566   0.00108   0.23112   0.00000  Uiso   1.00
C148   C     0.14126   0.05050   0.09097   0.00000  Uiso   1.00
C149   C     0.16820   0.10922   0.08323   0.00000  Uiso   1.00
C150   C     0.18672   0.96759   0.07360   0.00000  Uiso   1.00
C151   C     0.22456   0.79410   0.05666   0.00000  Uiso   1.00
C152   C     0.10267   0.82523   0.09874   0.00000  Uiso   1.00
C153   C     0.08488   0.95639   0.07897   0.00000  Uiso   1.00
C154   C     0.06281   0.89808   0.06078   0.00000  Uiso   1.00
C155   C     0.04918   0.04013   0.04444   0.00000  Uiso   1.00
C156   C     0.10031   0.90604   0.13036   0.00000  Uiso   1.00
C157   C     0.09121   0.80539   0.15538   0.00000  Uiso   1.00
C158   C     0.09056   0.90503   0.18229   0.00000  Uiso   1.00
C159   C     0.13310   0.85717   0.08916   0.00000  Uiso   1.00
C160   C     0.15158   0.71542   0.07955   0.00000  Uiso   1.00
C161   C     0.17854   0.77391   0.07179   0.00000  Uiso   1.00
H162   H     0.12405   0.33168   0.10347   0.00000  Uiso   1.00
H163   H     0.08576   0.44148   0.06586   0.00000  Uiso   1.00
H164   H     0.11415   0.34879   0.16045   0.00000  Uiso   1.00
H165   H     0.17451   0.25884   0.08463   0.00000  Uiso   1.00
H166   H     0.03970   0.47797   0.02338   0.00000  Uiso   1.00
H167   H     0.09958   0.28251   0.22281   0.00000  Uiso   1.00
H168   H     0.22686   0.09283   0.06294   0.00000  Uiso   1.00
H169   H     0.09631   0.67471   0.09733   0.00000  Uiso   1.00
H170   H     0.05650   0.74846   0.05939   0.00000  Uiso   1.00
H171   H     0.08490   0.65577   0.15397   0.00000  Uiso   1.00
H172   H     0.14526   0.56582   0.07815   0.00000  Uiso   1.00
H173   H     0.01596   0.91548   0.01812   0.00000  Uiso   1.00
H174   H     0.07584   0.72003   0.21756   0.00000  Uiso   1.00
H175   H     0.20312   0.53035   0.05769   0.00000  Uiso   1.00
O176   O     0.00214   0.25710   0.99591   0.00000  Uiso   1.00
O177   O     0.08070   0.00066   0.25756   0.00000  Uiso   1.00
O178   O     0.24769   0.75181   0.04781   0.00000  Uiso   1.00
N179   N     0.03958   0.33546   0.02735   0.00000  Uiso   1.00
N180   N     0.09556   0.15273   0.21380   0.00000  Uiso   1.00
N181   N     0.21456   0.97539   0.06435   0.00000  Uiso   1.00
N182   N     0.02680   0.03279   0.02452   0.00000  Uiso   1.00
N183   N     0.08279   0.85006   0.21097   0.00000  Uiso   1.00
N184   N     0.20178   0.67272   0.06152   0.00000  Uiso   1.00
C185   C     0.88231   0.68117   0.60206   0.00000  Uiso   1.00
C186   C     0.90695   0.64972   0.58078   0.00000  Uiso   1.00
C187   C     0.92056   0.79188   0.56446   0.00000  Uiso   1.00
C188   C     0.94265   0.73380   0.54625   0.00000  Uiso   1.00
C189   C     0.97969   0.71440   0.51348   0.00000  Uiso   1.00
C190   C     0.89153   0.59937   0.63217   0.00000  Uiso   1.00
C191   C     0.89217   0.69919   0.65905   0.00000  Uiso   1.00
C192   C     0.90127   0.59871   0.68410   0.00000  Uiso   1.00
C193   C     0.91434   0.50108   0.73112   0.00000  Uiso   1.00
C194   C     0.85874   0.55050   0.59097   0.00000  Uiso   1.00
C195   C     0.83180   0.60922   0.58323   0.00000  Uiso   1.00
C196   C     0.81328   0.46759   0.57360   0.00000  Uiso   1.00
C197   C     0.77544   0.29410   0.55666   0.00000  Uiso   1.00
C198   C     0.89733   0.32523   0.59874   0.00000  Uiso   1.00
C199   C     0.91512   0.45639   0.57897   0.00000  Uiso   1.00
C200   C     0.93719   0.39808   0.56078   0.00000  Uiso   1.00
C201   C     0.95082   0.54013   0.54444   0.00000  Uiso   1.00
C202   C     0.89969   0.40604   0.63036   0.00000  Uiso   1.00
C203   C     0.90879   0.30539   0.65538   0.00000  Uiso   1.00
C204   C     0.90944   0.40503   0.68229   0.00000  Uiso   1.00
C205   C     0.86690   0.35717   0.58916   0.00000  Uiso   1.00
C206   C     0.84842   0.21542   0.57955   0.00000  Uiso   1.00
C207   C     0.82146   0.27391   0.57179   0.00000  Uiso   1.00
H208   H     0.87595   0.83168   0.60347   0.00000  Uiso   1.00
H209   H     0.91424   0.94148   0.56586   0.00000  Uiso   1.00
H210   H     0.88585   0.84879   0.66045   0.00000  Uiso   1.00
H211   H     0.82549   0.75884   0.58463   0.00000  Uiso   1.00
H212   H     0.96030   0.97797   0.52338   0.00000  Uiso   1.00
H213   H     0.90042   0.78251   0.72281   0.00000  Uiso   1.00
H214   H     0.77314   0.59283   0.56294   0.00000  Uiso   1.00
H215   H     0.90369   0.17471   0.59733   0.00000  Uiso   1.00
H216   H     0.94350   0.24846   0.55939   0.00000  Uiso   1.00
H217   H     0.91510   0.15577   0.65397   0.00000  Uiso   1.00
H218   H     0.85474   0.06582   0.57815   0.00000  Uiso   1.00
H219   H     0.98404   0.41548   0.51812   0.00000  Uiso   1.00
H220   H     0.92416   0.22003   0.71756   0.00000  Uiso   1.00
H221   H     0.79688   0.03035   0.55769   0.00000  Uiso   1.00
O222   O     0.99786   0.75710   0.49591   0.00000  Uiso   1.00
O223   O     0.91930   0.50066   0.75756   0.00000  Uiso   1.00
O224   O     0.75231   0.25181   0.54781   0.00000  Uiso   1.00
N225   N     0.96042   0.83546   0.52735   0.00000  Uiso   1.00
N226   N     0.90444   0.65273   0.71380   0.00000  Uiso   1.00
N227   N     0.78544   0.47539   0.56435   0.00000  Uiso   1.00
N228   N     0.97320   0.53279   0.52452   0.00000  Uiso   1.00
N229   N     0.91721   0.35006   0.71097   0.00000  Uiso   1.00
N230   N     0.79822   0.17272   0.56152   0.00000  Uiso   1.00
C231   C     0.61769   0.31883   0.60206   0.00000  Uiso   1.00
C232   C     0.59305   0.35028   0.58078   0.00000  Uiso   1.00
C233   C     0.57944   0.20812   0.56446   0.00000  Uiso   1.00
C234   C     0.55735   0.26620   0.54625   0.00000  Uiso   1.00
C235   C     0.52031   0.28560   0.51348   0.00000  Uiso   1.00
C236   C     0.60847   0.40063   0.63217   0.00000  Uiso   1.00
C237   C     0.60783   0.30081   0.65905   0.00000  Uiso   1.00
C238   C     0.59873   0.40129   0.68410   0.00000  Uiso   1.00
C239   C     0.58566   0.49892   0.73112   0.00000  Uiso   1.00
C240   C     0.64126   0.44950   0.59097   0.00000  Uiso   1.00
C241   C     0.66820   0.39078   0.58323   0.00000  Uiso   1.00
C242   C     0.68672   0.53241   0.57360   0.00000  Uiso   1.00
C243   C     0.72456   0.70590   0.55666   0.00000  Uiso   1.00
C244   C     0.60267   0.67477   0.59874   0.00000  Uiso   1.00
C245   C     0.58488   0.54361   0.57897   0.00000  Uiso   1.00
C246   C     0.56281   0.60192   0.56078   0.00000  Uiso   1.00
C247   C     0.54918   0.45987   0.54444   0.00000  Uiso   1.00
C248   C     0.60031   0.59396   0.63036   0.00000  Uiso   1.00
C249   C     0.59121   0.69461   0.65538   0.00000  Uiso   1.00
C250   C     0.59056   0.59497   0.68229   0.00000  Uiso   1.00
C251   C     0.63310   0.64283   0.58916   0.00000  Uiso   1.00
C252   C     0.65158   0.78458   0.57955   0.00000  Uiso   1.00
C253   C     0.67854   0.72609   0.57179   0.00000  Uiso   1.00
H254   H     0.62405   0.16832   0.60347   0.00000  Uiso   1.00
H255   H     0.58576   0.05852   0.56586   0.00000  Uiso   1.00
H256   H     0.61415   0.15121   0.66045   0.00000  Uiso   1.00
H257   H     0.67451   0.24116   0.58463   0.00000  Uiso   1.00
H258   H     0.53970   0.02203   0.52338   0.00000  Uiso   1.00
H259   H     0.59958   0.21749   0.72281   0.00000  Uiso   1.00
H260   H     0.72686   0.40717   0.56294   0.00000  Uiso   1.00
H261   H     0.59631   0.82529   0.59733   0.00000  Uiso   1.00
H262   H     0.55650   0.75154   0.55939   0.00000  Uiso   1.00
H263   H     0.58490   0.84423   0.65397   0.00000  Uiso   1.00
H264   H     0.64526   0.93418   0.57815   0.00000  Uiso   1.00
H265   H     0.51596   0.58452   0.51812   0.00000  Uiso   1.00
H266   H     0.57584   0.77997   0.71756   0.00000  Uiso   1.00
H267   H     0.70312   0.96965   0.55769   0.00000  Uiso   1.00
O268   O     0.50214   0.24290   0.49591   0.00000  Uiso   1.00
O269   O     0.58070   0.49934   0.75756   0.00000  Uiso   1.00
O270   O     0.74769   0.74819   0.54781   0.00000  Uiso   1.00
N271   N     0.53958   0.16454   0.52735   0.00000  Uiso   1.00
N272   N     0.59556   0.34727   0.71380   0.00000  Uiso   1.00
N273   N     0.71456   0.52461   0.56435   0.00000  Uiso   1.00
N274   N     0.52680   0.46721   0.52452   0.00000  Uiso   1.00
N275   N     0.58279   0.64994   0.71097   0.00000  Uiso   1.00
N276   N     0.70178   0.82728   0.56152   0.00000  Uiso   1.00
C277   C     0.61769   0.18117   0.89794   0.00000  Uiso   1.00
C278   C     0.59305   0.14972   0.91922   0.00000  Uiso   1.00
C279   C     0.57944   0.29188   0.93554   0.00000  Uiso   1.00
C280   C     0.55735   0.23380   0.95375   0.00000  Uiso   1.00
C281   C     0.52031   0.21440   0.98652   0.00000  Uiso   1.00
C282   C     0.60847   0.09937   0.86783   0.00000  Uiso   1.00
C283   C     0.60783   0.19919   0.84095   0.00000  Uiso   1.00
C284   C     0.59873   0.09871   0.81590   0.00000  Uiso   1.00
C285   C     0.58566   0.00108   0.76888   0.00000  Uiso   1.00
C286   C     0.64126   0.05050   0.90903   0.00000  Uiso   1.00
C287   C     0.66820   0.10922   0.91677   0.00000  Uiso   1.00
C288   C     0.68672   0.96759   0.92640   0.00000  Uiso   1.00
C289   C     0.72456   0.79410   0.94334   0.00000  Uiso   1.00
C290   C     0.60267   0.82523   0.90126   0.00000  Uiso   1.00
C291   C     0.58488   0.95639   0.92103   0.00000  Uiso   1.00
C292   C     0.56281   0.89808   0.93922   0.00000  Uiso   1.00
C293   C     0.54918   0.04013   0.95556   0.00000  Uiso   1.00
C294   C     0.60031   0.90604   0.86964   0.00000  Uiso   1.00
C295   C     0.59121   0.80539   0.84462   0.00000  Uiso   1.00
C296   C     0.59056   0.90503   0.81771   0.00000  Uiso   1.00
C297   C     0.63310   0.85717   0.91084   0.00000  Uiso   1.00
C298   C     0.65158   0.71542   0.92045   0.00000  Uiso   1.00
C299   C     0.67854   0.77391   0.92821   0.00000  Uiso   1.00
H300   H     0.62405   0.33168   0.89653   0.00000  Uiso   1.00
H301   H     0.58576   0.44148   0.93414   0.00000  Uiso   1.00
H302   H     0.61415   0.34879   0.83955   0.00000  Uiso   1.00
H303   H     0.67451   0.25884   0.91537   0.00000  Uiso   1.00
H304   H     0.53970   0.47797   0.97662   0.00000  Uiso   1.00
H305   H     0.59958   0.28251   0.77719   0.00000  Uiso   1.00
H306   H     0.72686   0.09283   0.93706   0.00000  Uiso   1.00
H307   H     0.59631   0.67471   0.90267   0.00000  Uiso   1.00
H308   H     0.55650   0.74846   0.94061   0.00000  Uiso   1.00
H309   H     0.58490   0.65577   0.84603   0.00000  Uiso   1.00
H310   H     0.64526   0.56582   0.92185   0.00000  Uiso   1.00
H311   H     0.51596   0.91548   0.98188   0.00000  Uiso   1.00
H312   H     0.57584   0.72003   0.78244   0.00000  Uiso   1.00
H313   H     0.70312   0.53035   0.94231   0.00000  Uiso   1.00
O314   O     0.50214   0.25710   0.00409   0.00000  Uiso   1.00
O315   O     0.58070   0.00066   0.74244   0.00000  Uiso   1.00
O316   O     0.74769   0.75181   0.95219   0.00000  Uiso   1.00
N317   N     0.53958   0.33546   0.97265   0.00000  Uiso   1.00
N318   N     0.59556   0.15273   0.78620   0.00000  Uiso   1.00
N319   N     0.71456   0.97539   0.93565   0.00000  Uiso   1.00
N320   N     0.52680   0.03279   0.97548   0.00000  Uiso   1.00
N321   N     0.58279   0.85006   0.78903   0.00000  Uiso   1.00
N322   N     0.70178   0.67272   0.93848   0.00000  Uiso   1.00
C323   C     0.88231   0.81883   0.89794   0.00000  Uiso   1.00
C324   C     0.90695   0.85028   0.91922   0.00000  Uiso   1.00
C325   C     0.92056   0.70812   0.93554   0.00000  Uiso   1.00
C326   C     0.94265   0.76620   0.95375   0.00000  Uiso   1.00
C327   C     0.97969   0.78560   0.98652   0.00000  Uiso   1.00
C328   C     0.89153   0.90063   0.86783   0.00000  Uiso   1.00
C329   C     0.89217   0.80081   0.84095   0.00000  Uiso   1.00
C330   C     0.90127   0.90129   0.81590   0.00000  Uiso   1.00
C331   C     0.91434   0.99892   0.76888   0.00000  Uiso   1.00
C332   C     0.85874   0.94950   0.90903   0.00000  Uiso   1.00
C333   C     0.83180   0.89078   0.91677   0.00000  Uiso   1.00
C334   C     0.81328   0.03241   0.92640   0.00000  Uiso   1.00
C335   C     0.77544   0.20590   0.94334   0.00000  Uiso   1.00
C336   C     0.89733   0.17477   0.90126   0.00000  Uiso   1.00
C337   C     0.91512   0.04361   0.92103   0.00000  Uiso   1.00
C338   C     0.93719   0.10192   0.93922   0.00000  Uiso   1.00
C339   C     0.95082   0.95987   0.95556   0.00000  Uiso   1.00
C340   C     0.89969   0.09396   0.86964   0.00000  Uiso   1.00
C341   C     0.90879   0.19461   0.84462   0.00000  Uiso   1.00
C342   C     0.90944   0.09497   0.81771   0.00000  Uiso   1.00
C343   C     0.86690   0.14283   0.91084   0.00000  Uiso   1.00
C344   C     0.84842   0.28458   0.92045   0.00000  Uiso   1.00
C345   C     0.82146   0.22609   0.92821   0.00000  Uiso   1.00
H346   H     0.87595   0.66832   0.89653   0.00000  Uiso   1.00
H347   H     0.91424   0.55852   0.93414   0.00000  Uiso   1.00
H348   H     0.88585   0.65121   0.83955   0.00000  Uiso   1.00
H349   H     0.82549   0.74116   0.91537   0.00000  Uiso   1.00
H350   H     0.96030   0.52203   0.97662   0.00000  Uiso   1.00
H351   H     0.90042   0.71749   0.77719   0.00000  Uiso   1.00
H352   H     0.77314   0.90717   0.93706   0.00000  Uiso   1.00
H353   H     0.90369   0.32529   0.90267   0.00000  Uiso   1.00
H354   H     0.94350   0.25154   0.94061   0.00000  Uiso   1.00
H355   H     0.91510   0.34423   0.84603   0.00000  Uiso   1.00
H356   H     0.85474   0.43418   0.92185   0.00000  Uiso   1.00
H357   H     0.98404   0.08452   0.98188   0.00000  Uiso   1.00
H358   H     0.92416   0.27997   0.78244   0.00000  Uiso   1.00
H359   H     0.79688   0.46965   0.94231   0.00000  Uiso   1.00
O360   O     0.99786   0.74290   0.00409   0.00000  Uiso   1.00
O361   O     0.91930   0.99934   0.74244   0.00000  Uiso   1.00
O362   O     0.75231   0.24819   0.95219   0.00000  Uiso   1.00
N363   N     0.96042   0.66454   0.97265   0.00000  Uiso   1.00
N364   N     0.90444   0.84727   0.78620   0.00000  Uiso   1.00
N365   N     0.78544   0.02461   0.93565   0.00000  Uiso   1.00
N366   N     0.97320   0.96721   0.97548   0.00000  Uiso   1.00
N367   N     0.91721   0.14994   0.78903   0.00000  Uiso   1.00
N368   N     0.79822   0.32728   0.93848   0.00000  Uiso   1.00
