data_job_04218
_audit_creation_date              2018-12-19
_audit_creation_method            'Materials Studio'
_symmetry_space_group_name_H-M    'P1'
_symmetry_Int_Tables_number       1
_symmetry_cell_setting            triclinic
loop_
_symmetry_equiv_pos_as_xyz
  x,y,z
_cell_length_a                    14.5153
_cell_length_b                    14.5153
_cell_length_c                    23.3088
_cell_angle_alpha                 90.0000
_cell_angle_beta                  90.0000
_cell_angle_gamma                 120.0000
loop_
_atom_site_label
_atom_site_type_symbol
_atom_site_fract_x
_atom_site_fract_y
_atom_site_fract_z
_atom_site_U_iso_or_equiv
_atom_site_adp_type
_atom_site_occupancy
C1     C     0.63019   0.38025   0.94922   0.00000  Uiso   1.00
C2     C     0.70875   0.33989   0.94417   0.00000  Uiso   1.00
C3     C     0.69209   0.24238   0.96367   0.00000  Uiso   1.00
C4     C     0.77374   0.22033   0.95497   0.00000  Uiso   1.00
C5     C     0.88131   0.14659   0.95130   0.00000  Uiso   1.00
C6     C     0.68898   0.48624   0.98084   0.00000  Uiso   1.00
C7     C     0.65568   0.51178   0.03116   0.00000  Uiso   1.00
C8     C     0.72068   0.61294   0.05333   0.00000  Uiso   1.00
C9     C     0.79751   0.76644   0.10656   0.00000  Uiso   1.00
C10    C     0.61254   0.40661   0.88832   0.00000  Uiso   1.00
C11    C     0.51496   0.36523   0.86085   0.00000  Uiso   1.00
C12    C     0.51560   0.39936   0.80513   0.00000  Uiso   1.00
C13    C     0.47375   0.42922   0.71471   0.00000  Uiso   1.00
C14    C     0.80484   0.51448   0.89911   0.00000  Uiso   1.00
C15    C     0.80361   0.41280   0.91695   0.00000  Uiso   1.00
C16    C     0.88531   0.39089   0.90823   0.00000  Uiso   1.00
C17    C     0.86877   0.29336   0.92771   0.00000  Uiso   1.00
C18    C     0.78384   0.55915   0.95362   0.00000  Uiso   1.00
C19    C     0.84890   0.66029   0.97572   0.00000  Uiso   1.00
C20    C     0.81571   0.68598   0.02606   0.00000  Uiso   1.00
C21    C     0.70740   0.47952   0.86110   0.00000  Uiso   1.00
C22    C     0.70819   0.51373   0.80541   0.00000  Uiso   1.00
C23    C     0.61063   0.47240   0.77786   0.00000  Uiso   1.00
H24    H     0.55634   0.32349   0.97041   0.00000  Uiso   1.00
H25    H     0.61867   0.18598   0.98473   0.00000  Uiso   1.00
H26    H     0.58226   0.45535   0.05221   0.00000  Uiso   1.00
H27    H     0.44157   0.30881   0.88193   0.00000  Uiso   1.00
H28    H     0.72961   0.06570   0.98862   0.00000  Uiso   1.00
H29    H     0.65283   0.63368   0.13089   0.00000  Uiso   1.00
H30    H     0.35615   0.32467   0.77182   0.00000  Uiso   1.00
H31    H     0.87870   0.57125   0.87792   0.00000  Uiso   1.00
H32    H     0.95871   0.44733   0.88716   0.00000  Uiso   1.00
H33    H     0.92230   0.71669   0.95464   0.00000  Uiso   1.00
H34    H     0.78161   0.57015   0.78436   0.00000  Uiso   1.00
H35    H     0.00561   0.27781   0.90944   0.00000  Uiso   1.00
H36    H     0.92882   0.84580   0.05171   0.00000  Uiso   1.00
H37    H     0.63215   0.53679   0.69264   0.00000  Uiso   1.00
O38    O     0.91444   0.08578   0.95680   0.00000  Uiso   1.00
O39    O     0.81369   0.83096   0.14344   0.00000  Uiso   1.00
O40    O     0.42446   0.42554   0.67235   0.00000  Uiso   1.00
N41    N     0.78358   0.13262   0.96871   0.00000  Uiso   1.00
N42    N     0.71180   0.66364   0.10173   0.00000  Uiso   1.00
N43    N     0.43443   0.37477   0.76603   0.00000  Uiso   1.00
N44    N     0.93209   0.24675   0.92610   0.00000  Uiso   1.00
N45    N     0.86031   0.77778   0.05912   0.00000  Uiso   1.00
N46    N     0.58294   0.48890   0.72342   0.00000  Uiso   1.00
C47    C     0.61975   0.24995   0.61589   0.00000  Uiso   1.00
C48    C     0.66011   0.36886   0.61084   0.00000  Uiso   1.00
C49    C     0.75762   0.44971   0.63033   0.00000  Uiso   1.00
C50    C     0.77967   0.55341   0.62164   0.00000  Uiso   1.00
C51    C     0.85341   0.73472   0.61797   0.00000  Uiso   1.00
C52    C     0.51376   0.20274   0.64750   0.00000  Uiso   1.00
C53    C     0.48822   0.14389   0.69782   0.00000  Uiso   1.00
C54    C     0.38706   0.10774   0.71999   0.00000  Uiso   1.00
C55    C     0.23356   0.03108   0.77322   0.00000  Uiso   1.00
C56    C     0.59339   0.20593   0.55499   0.00000  Uiso   1.00
C57    C     0.63477   0.14973   0.52752   0.00000  Uiso   1.00
C58    C     0.60064   0.11624   0.47180   0.00000  Uiso   1.00
C59    C     0.57078   0.04453   0.38138   0.00000  Uiso   1.00
C60    C     0.48552   0.29036   0.56578   0.00000  Uiso   1.00
C61    C     0.58720   0.39081   0.58362   0.00000  Uiso   1.00
C62    C     0.60911   0.49442   0.57489   0.00000  Uiso   1.00
C63    C     0.70664   0.57540   0.59437   0.00000  Uiso   1.00
C64    C     0.44085   0.22469   0.62029   0.00000  Uiso   1.00
C65    C     0.33971   0.18861   0.64239   0.00000  Uiso   1.00
C66    C     0.31402   0.12973   0.69273   0.00000  Uiso   1.00
C67    C     0.52048   0.22788   0.52777   0.00000  Uiso   1.00
C68    C     0.48627   0.19446   0.47208   0.00000  Uiso   1.00
C69    C     0.52760   0.13823   0.44453   0.00000  Uiso   1.00
H70    H     0.67651   0.23285   0.63708   0.00000  Uiso   1.00
H71    H     0.81402   0.43268   0.65140   0.00000  Uiso   1.00
H72    H     0.54465   0.12691   0.71887   0.00000  Uiso   1.00
H73    H     0.69119   0.13276   0.54859   0.00000  Uiso   1.00
H74    H     0.93430   0.66392   0.65529   0.00000  Uiso   1.00
H75    H     0.36632   0.01915   0.79756   0.00000  Uiso   1.00
H76    H     0.67533   0.03148   0.43849   0.00000  Uiso   1.00
H77    H     0.42875   0.30745   0.54459   0.00000  Uiso   1.00
H78    H     0.55267   0.51139   0.55383   0.00000  Uiso   1.00
H79    H     0.28331   0.20561   0.62131   0.00000  Uiso   1.00
H80    H     0.42985   0.21146   0.45103   0.00000  Uiso   1.00
H81    H     0.72219   0.72780   0.57610   0.00000  Uiso   1.00
H82    H     0.15420   0.08302   0.71837   0.00000  Uiso   1.00
H83    H     0.46321   0.09536   0.35930   0.00000  Uiso   1.00
O84    O     0.91422   0.82866   0.62346   0.00000  Uiso   1.00
O85    O     0.16904   0.98273   0.81011   0.00000  Uiso   1.00
O86    O     0.57446   0.99892   0.33902   0.00000  Uiso   1.00
N87    N     0.86738   0.65096   0.63537   0.00000  Uiso   1.00
N88    N     0.33636   0.04816   0.76839   0.00000  Uiso   1.00
N89    N     0.62523   0.05966   0.43270   0.00000  Uiso   1.00
N90    N     0.75325   0.68534   0.59276   0.00000  Uiso   1.00
N91    N     0.22222   0.08253   0.72578   0.00000  Uiso   1.00
N92    N     0.51110   0.09403   0.39009   0.00000  Uiso   1.00
C93    C     0.75005   0.36981   0.28255   0.00000  Uiso   1.00
C94    C     0.63114   0.29125   0.27750   0.00000  Uiso   1.00
C95    C     0.55029   0.30791   0.29700   0.00000  Uiso   1.00
C96    C     0.44659   0.22626   0.28831   0.00000  Uiso   1.00
C97    C     0.26528   0.11869   0.28463   0.00000  Uiso   1.00
C98    C     0.79726   0.31102   0.31417   0.00000  Uiso   1.00
C99    C     0.85611   0.34432   0.36449   0.00000  Uiso   1.00
C100   C     0.89226   0.27932   0.38666   0.00000  Uiso   1.00
C101   C     0.96892   0.20249   0.43989   0.00000  Uiso   1.00
C102   C     0.79407   0.38746   0.22165   0.00000  Uiso   1.00
C103   C     0.85027   0.48504   0.19419   0.00000  Uiso   1.00
C104   C     0.88376   0.48440   0.13846   0.00000  Uiso   1.00
C105   C     0.95547   0.52625   0.04804   0.00000  Uiso   1.00
C106   C     0.70964   0.19516   0.23244   0.00000  Uiso   1.00
C107   C     0.60919   0.19639   0.25029   0.00000  Uiso   1.00
C108   C     0.50558   0.11469   0.24156   0.00000  Uiso   1.00
C109   C     0.42460   0.13123   0.26104   0.00000  Uiso   1.00
C110   C     0.77531   0.21616   0.28696   0.00000  Uiso   1.00
C111   C     0.81139   0.15110   0.30905   0.00000  Uiso   1.00
C112   C     0.87027   0.18429   0.35939   0.00000  Uiso   1.00
C113   C     0.77212   0.29260   0.19443   0.00000  Uiso   1.00
C114   C     0.80554   0.29181   0.13875   0.00000  Uiso   1.00
C115   C     0.86177   0.38937   0.11120   0.00000  Uiso   1.00
H116   H     0.76715   0.44366   0.30374   0.00000  Uiso   1.00
H117   H     0.56732   0.38133   0.31806   0.00000  Uiso   1.00
H118   H     0.87309   0.41774   0.38554   0.00000  Uiso   1.00
H119   H     0.86724   0.55843   0.21526   0.00000  Uiso   1.00
H120   H     0.33608   0.27039   0.32196   0.00000  Uiso   1.00
H121   H     0.98085   0.34717   0.46422   0.00000  Uiso   1.00
H122   H     0.96852   0.64385   0.10516   0.00000  Uiso   1.00
H123   H     0.69255   0.12130   0.21125   0.00000  Uiso   1.00
H124   H     0.48861   0.04129   0.22050   0.00000  Uiso   1.00
H125   H     0.79439   0.07770   0.28798   0.00000  Uiso   1.00
H126   H     0.78854   0.21839   0.11770   0.00000  Uiso   1.00
H127   H     0.27220   0.99439   0.24277   0.00000  Uiso   1.00
H128   H     0.91698   0.07118   0.38504   0.00000  Uiso   1.00
H129   H     0.90464   0.36785   0.02597   0.00000  Uiso   1.00
O130   O     0.17134   0.08556   0.29013   0.00000  Uiso   1.00
O131   O     0.01727   0.18631   0.47677   0.00000  Uiso   1.00
O132   O     0.00108   0.57554   0.00569   0.00000  Uiso   1.00
N133   N     0.34904   0.21642   0.30204   0.00000  Uiso   1.00
N134   N     0.95184   0.28820   0.43506   0.00000  Uiso   1.00
N135   N     0.94034   0.56557   0.09937   0.00000  Uiso   1.00
N136   N     0.31466   0.06791   0.25943   0.00000  Uiso   1.00
N137   N     0.91747   0.13969   0.39245   0.00000  Uiso   1.00
N138   N     0.90597   0.41706   0.05676   0.00000  Uiso   1.00
C139   C     0.38025   0.63019   0.05078   0.00000  Uiso   1.00
C140   C     0.33989   0.70875   0.05583   0.00000  Uiso   1.00
C141   C     0.24238   0.69209   0.03633   0.00000  Uiso   1.00
C142   C     0.22033   0.77374   0.04503   0.00000  Uiso   1.00
C143   C     0.14659   0.88131   0.04870   0.00000  Uiso   1.00
C144   C     0.48624   0.68898   0.01916   0.00000  Uiso   1.00
C145   C     0.51178   0.65568   0.96884   0.00000  Uiso   1.00
C146   C     0.61294   0.72068   0.94667   0.00000  Uiso   1.00
C147   C     0.76644   0.79751   0.89344   0.00000  Uiso   1.00
C148   C     0.40661   0.61254   0.11168   0.00000  Uiso   1.00
C149   C     0.36523   0.51496   0.13915   0.00000  Uiso   1.00
C150   C     0.39936   0.51560   0.19487   0.00000  Uiso   1.00
C151   C     0.42922   0.47375   0.28529   0.00000  Uiso   1.00
C152   C     0.51448   0.80484   0.10089   0.00000  Uiso   1.00
C153   C     0.41280   0.80361   0.08305   0.00000  Uiso   1.00
C154   C     0.39089   0.88531   0.09177   0.00000  Uiso   1.00
C155   C     0.29336   0.86877   0.07229   0.00000  Uiso   1.00
C156   C     0.55915   0.78384   0.04638   0.00000  Uiso   1.00
C157   C     0.66029   0.84890   0.02428   0.00000  Uiso   1.00
C158   C     0.68598   0.81571   0.97394   0.00000  Uiso   1.00
C159   C     0.47952   0.70740   0.13890   0.00000  Uiso   1.00
C160   C     0.51373   0.70819   0.19459   0.00000  Uiso   1.00
C161   C     0.47240   0.61063   0.22214   0.00000  Uiso   1.00
H162   H     0.32349   0.55634   0.02959   0.00000  Uiso   1.00
H163   H     0.18598   0.61867   0.01527   0.00000  Uiso   1.00
H164   H     0.45535   0.58226   0.94779   0.00000  Uiso   1.00
H165   H     0.30881   0.44157   0.11807   0.00000  Uiso   1.00
H166   H     0.06570   0.72961   0.01138   0.00000  Uiso   1.00
H167   H     0.63368   0.65283   0.86911   0.00000  Uiso   1.00
H168   H     0.32467   0.35615   0.22818   0.00000  Uiso   1.00
H169   H     0.57125   0.87870   0.12208   0.00000  Uiso   1.00
H170   H     0.44733   0.95871   0.11284   0.00000  Uiso   1.00
H171   H     0.71669   0.92230   0.04536   0.00000  Uiso   1.00
H172   H     0.57015   0.78161   0.21564   0.00000  Uiso   1.00
H173   H     0.27781   0.00561   0.09056   0.00000  Uiso   1.00
H174   H     0.84580   0.92882   0.94829   0.00000  Uiso   1.00
H175   H     0.53679   0.63215   0.30736   0.00000  Uiso   1.00
O176   O     0.08578   0.91444   0.04320   0.00000  Uiso   1.00
O177   O     0.83096   0.81369   0.85656   0.00000  Uiso   1.00
O178   O     0.42554   0.42446   0.32765   0.00000  Uiso   1.00
N179   N     0.13262   0.78358   0.03129   0.00000  Uiso   1.00
N180   N     0.66364   0.71180   0.89827   0.00000  Uiso   1.00
N181   N     0.37477   0.43443   0.23397   0.00000  Uiso   1.00
N182   N     0.24675   0.93209   0.07390   0.00000  Uiso   1.00
N183   N     0.77778   0.86031   0.94088   0.00000  Uiso   1.00
N184   N     0.48890   0.58294   0.27658   0.00000  Uiso   1.00
C185   C     0.24995   0.61975   0.38411   0.00000  Uiso   1.00
C186   C     0.36886   0.66011   0.38916   0.00000  Uiso   1.00
C187   C     0.44971   0.75762   0.36967   0.00000  Uiso   1.00
C188   C     0.55341   0.77967   0.37836   0.00000  Uiso   1.00
C189   C     0.73472   0.85341   0.38203   0.00000  Uiso   1.00
C190   C     0.20274   0.51376   0.35250   0.00000  Uiso   1.00
C191   C     0.14389   0.48822   0.30218   0.00000  Uiso   1.00
C192   C     0.10774   0.38706   0.28001   0.00000  Uiso   1.00
C193   C     0.03108   0.23356   0.22678   0.00000  Uiso   1.00
C194   C     0.20593   0.59339   0.44501   0.00000  Uiso   1.00
C195   C     0.14973   0.63477   0.47248   0.00000  Uiso   1.00
C196   C     0.11624   0.60064   0.52820   0.00000  Uiso   1.00
C197   C     0.04453   0.57078   0.61862   0.00000  Uiso   1.00
C198   C     0.29036   0.48552   0.43422   0.00000  Uiso   1.00
C199   C     0.39081   0.58720   0.41638   0.00000  Uiso   1.00
C200   C     0.49442   0.60911   0.42511   0.00000  Uiso   1.00
C201   C     0.57540   0.70664   0.40563   0.00000  Uiso   1.00
C202   C     0.22469   0.44085   0.37971   0.00000  Uiso   1.00
C203   C     0.18861   0.33971   0.35761   0.00000  Uiso   1.00
C204   C     0.12973   0.31402   0.30727   0.00000  Uiso   1.00
C205   C     0.22788   0.52048   0.47223   0.00000  Uiso   1.00
C206   C     0.19446   0.48627   0.52792   0.00000  Uiso   1.00
C207   C     0.13823   0.52760   0.55547   0.00000  Uiso   1.00
H208   H     0.23285   0.67651   0.36292   0.00000  Uiso   1.00
H209   H     0.43268   0.81402   0.34860   0.00000  Uiso   1.00
H210   H     0.12691   0.54465   0.28113   0.00000  Uiso   1.00
H211   H     0.13276   0.69119   0.45141   0.00000  Uiso   1.00
H212   H     0.66392   0.93430   0.34471   0.00000  Uiso   1.00
H213   H     0.01915   0.36632   0.20244   0.00000  Uiso   1.00
H214   H     0.03148   0.67533   0.56151   0.00000  Uiso   1.00
H215   H     0.30745   0.42875   0.45541   0.00000  Uiso   1.00
H216   H     0.51139   0.55267   0.44617   0.00000  Uiso   1.00
H217   H     0.20561   0.28331   0.37869   0.00000  Uiso   1.00
H218   H     0.21146   0.42985   0.54897   0.00000  Uiso   1.00
H219   H     0.72780   0.72219   0.42390   0.00000  Uiso   1.00
H220   H     0.08302   0.15420   0.28163   0.00000  Uiso   1.00
H221   H     0.09536   0.46321   0.64070   0.00000  Uiso   1.00
O222   O     0.82866   0.91422   0.37654   0.00000  Uiso   1.00
O223   O     0.98273   0.16904   0.18989   0.00000  Uiso   1.00
O224   O     0.99892   0.57446   0.66098   0.00000  Uiso   1.00
N225   N     0.65096   0.86738   0.36463   0.00000  Uiso   1.00
N226   N     0.04816   0.33636   0.23161   0.00000  Uiso   1.00
N227   N     0.05966   0.62523   0.56730   0.00000  Uiso   1.00
N228   N     0.68534   0.75325   0.40724   0.00000  Uiso   1.00
N229   N     0.08253   0.22222   0.27422   0.00000  Uiso   1.00
N230   N     0.09403   0.51110   0.60991   0.00000  Uiso   1.00
C231   C     0.36981   0.75005   0.71745   0.00000  Uiso   1.00
C232   C     0.29125   0.63114   0.72250   0.00000  Uiso   1.00
C233   C     0.30791   0.55029   0.70300   0.00000  Uiso   1.00
C234   C     0.22626   0.44659   0.71169   0.00000  Uiso   1.00
C235   C     0.11869   0.26528   0.71537   0.00000  Uiso   1.00
C236   C     0.31102   0.79726   0.68583   0.00000  Uiso   1.00
C237   C     0.34432   0.85611   0.63551   0.00000  Uiso   1.00
C238   C     0.27932   0.89226   0.61334   0.00000  Uiso   1.00
C239   C     0.20249   0.96892   0.56011   0.00000  Uiso   1.00
C240   C     0.38746   0.79407   0.77835   0.00000  Uiso   1.00
C241   C     0.48504   0.85027   0.80581   0.00000  Uiso   1.00
C242   C     0.48440   0.88376   0.86154   0.00000  Uiso   1.00
C243   C     0.52625   0.95547   0.95196   0.00000  Uiso   1.00
C244   C     0.19516   0.70964   0.76756   0.00000  Uiso   1.00
C245   C     0.19639   0.60919   0.74971   0.00000  Uiso   1.00
C246   C     0.11469   0.50558   0.75844   0.00000  Uiso   1.00
C247   C     0.13123   0.42460   0.73896   0.00000  Uiso   1.00
C248   C     0.21616   0.77531   0.71304   0.00000  Uiso   1.00
C249   C     0.15110   0.81139   0.69095   0.00000  Uiso   1.00
C250   C     0.18429   0.87027   0.64061   0.00000  Uiso   1.00
C251   C     0.29260   0.77212   0.80557   0.00000  Uiso   1.00
C252   C     0.29181   0.80554   0.86125   0.00000  Uiso   1.00
C253   C     0.38937   0.86177   0.88880   0.00000  Uiso   1.00
H254   H     0.44366   0.76715   0.69626   0.00000  Uiso   1.00
H255   H     0.38133   0.56732   0.68194   0.00000  Uiso   1.00
H256   H     0.41774   0.87309   0.61446   0.00000  Uiso   1.00
H257   H     0.55843   0.86724   0.78474   0.00000  Uiso   1.00
H258   H     0.27039   0.33608   0.67804   0.00000  Uiso   1.00
H259   H     0.34717   0.98085   0.53578   0.00000  Uiso   1.00
H260   H     0.64385   0.96852   0.89484   0.00000  Uiso   1.00
H261   H     0.12130   0.69255   0.78875   0.00000  Uiso   1.00
H262   H     0.04129   0.48861   0.77950   0.00000  Uiso   1.00
H263   H     0.07770   0.79439   0.71202   0.00000  Uiso   1.00
H264   H     0.21839   0.78854   0.88230   0.00000  Uiso   1.00
H265   H     0.99439   0.27220   0.75723   0.00000  Uiso   1.00
H266   H     0.07118   0.91698   0.61496   0.00000  Uiso   1.00
H267   H     0.36785   0.90464   0.97403   0.00000  Uiso   1.00
O268   O     0.08556   0.17134   0.70987   0.00000  Uiso   1.00
O269   O     0.18631   0.01727   0.52323   0.00000  Uiso   1.00
O270   O     0.57554   0.00108   0.99431   0.00000  Uiso   1.00
N271   N     0.21642   0.34904   0.69796   0.00000  Uiso   1.00
N272   N     0.28820   0.95184   0.56494   0.00000  Uiso   1.00
N273   N     0.56557   0.94034   0.90063   0.00000  Uiso   1.00
N274   N     0.06791   0.31466   0.74057   0.00000  Uiso   1.00
N275   N     0.13969   0.91747   0.60755   0.00000  Uiso   1.00
N276   N     0.41706   0.90597   0.94324   0.00000  Uiso   1.00
