data_job_01620
_audit_creation_date              2018-12-19
_audit_creation_method            'Materials Studio'
_symmetry_space_group_name_H-M    'P1'
_symmetry_Int_Tables_number       1
_symmetry_cell_setting            triclinic
loop_
_symmetry_equiv_pos_as_xyz
  x,y,z
_cell_length_a                    14.8443
_cell_length_b                    9.8104
_cell_length_c                    30.1197
_cell_angle_alpha                 90.0000
_cell_angle_beta                  84.3111
_cell_angle_gamma                 90.0000
loop_
_atom_site_label
_atom_site_type_symbol
_atom_site_fract_x
_atom_site_fract_y
_atom_site_fract_z
_atom_site_U_iso_or_equiv
_atom_site_adp_type
_atom_site_occupancy
C1     C     0.98390   0.82456   0.84896   0.00000  Uiso   1.00
C2     C     0.91984   0.92174   0.87606   0.00000  Uiso   1.00
C3     C     0.83059   0.94763   0.86875   0.00000  Uiso   1.00
C4     C     0.78330   0.03993   0.89720   0.00000  Uiso   1.00
C5     C     0.67767   0.18114   0.93401   0.00000  Uiso   1.00
C6     C     0.06640   0.90918   0.83203   0.00000  Uiso   1.00
C7     C     0.10039   0.92449   0.78770   0.00000  Uiso   1.00
C8     C     0.17648   0.00620   0.77908   0.00000  Uiso   1.00
C9     C     0.29844   0.12783   0.74754   0.00000  Uiso   1.00
C10    C     0.01666   0.72355   0.88233   0.00000  Uiso   1.00
C11    C     0.00885   0.58277   0.88028   0.00000  Uiso   1.00
C12    C     0.04309   0.50818   0.91401   0.00000  Uiso   1.00
C13    C     0.08781   0.34158   0.96056   0.00000  Uiso   1.00
C14    C     0.05861   0.94243   0.91248   0.00000  Uiso   1.00
C15    C     0.96042   0.98577   0.91056   0.00000  Uiso   1.00
C16    C     0.91325   0.07804   0.93902   0.00000  Uiso   1.00
C17    C     0.82395   0.10407   0.93176   0.00000  Uiso   1.00
C18    C     0.10699   0.97320   0.86653   0.00000  Uiso   1.00
C19    C     0.18305   0.05490   0.85797   0.00000  Uiso   1.00
C20    C     0.21714   0.07034   0.81364   0.00000  Uiso   1.00
C21    C     0.05724   0.78757   0.91683   0.00000  Uiso   1.00
C22    C     0.09151   0.71318   0.95056   0.00000  Uiso   1.00
C23    C     0.08374   0.57232   0.94857   0.00000  Uiso   1.00
H24    H     0.95231   0.77472   0.82210   0.00000  Uiso   1.00
H25    H     0.79921   0.89807   0.84205   0.00000  Uiso   1.00
H26    H     0.06898   0.87492   0.76101   0.00000  Uiso   1.00
H27    H     0.97744   0.53326   0.85358   0.00000  Uiso   1.00
H28    H     0.64738   0.06311   0.87936   0.00000  Uiso   1.00
H29    H     0.21621   0.01426   0.70850   0.00000  Uiso   1.00
H30    H     0.02320   0.29378   0.90370   0.00000  Uiso   1.00
H31    H     0.09021   0.99228   0.93934   0.00000  Uiso   1.00
H32    H     0.94467   0.12757   0.96572   0.00000  Uiso   1.00
H33    H     0.21444   0.10443   0.88468   0.00000  Uiso   1.00
H34    H     0.12291   0.76276   0.97725   0.00000  Uiso   1.00
H35    H     0.76544   0.24939   0.97974   0.00000  Uiso   1.00
H36    H     0.33428   0.20053   0.80887   0.00000  Uiso   1.00
H37    H     0.14126   0.48006   0.00407   0.00000  Uiso   1.00
O38    O     0.60820   0.24136   0.94478   0.00000  Uiso   1.00
O39    O     0.35449   0.17725   0.72061   0.00000  Uiso   1.00
O40    O     0.10125   0.23200   0.97671   0.00000  Uiso   1.00
N41    N     0.69513   0.08836   0.89937   0.00000  Uiso   1.00
N42    N     0.22695   0.04271   0.73962   0.00000  Uiso   1.00
N43    N     0.04652   0.36912   0.92211   0.00000  Uiso   1.00
N44    N     0.75866   0.18859   0.95338   0.00000  Uiso   1.00
N45    N     0.29048   0.14294   0.79363   0.00000  Uiso   1.00
N46    N     0.11005   0.46935   0.97612   0.00000  Uiso   1.00
C47    C     0.48169   0.88635   0.84189   0.00000  Uiso   1.00
C48    C     0.53605   0.79480   0.87027   0.00000  Uiso   1.00
C49    C     0.62780   0.76647   0.86218   0.00000  Uiso   1.00
C50    C     0.66492   0.68026   0.89206   0.00000  Uiso   1.00
C51    C     0.75735   0.54654   0.93055   0.00000  Uiso   1.00
C52    C     0.40405   0.79901   0.82824   0.00000  Uiso   1.00
C53    C     0.38481   0.77424   0.78481   0.00000  Uiso   1.00
C54    C     0.31081   0.69158   0.77932   0.00000  Uiso   1.00
C55    C     0.19826   0.56447   0.75255   0.00000  Uiso   1.00
C56    C     0.43835   0.99482   0.87338   0.00000  Uiso   1.00
C57    C     0.44793   0.13470   0.86789   0.00000  Uiso   1.00
C58    C     0.40279   0.21691   0.90040   0.00000  Uiso   1.00
C59    C     0.34350   0.39385   0.94371   0.00000  Uiso   1.00
C60    C     0.38446   0.78361   0.90936   0.00000  Uiso   1.00
C61    C     0.48323   0.73899   0.90692   0.00000  Uiso   1.00
C62    C     0.52023   0.65281   0.93683   0.00000  Uiso   1.00
C63    C     0.61202   0.62436   0.92878   0.00000  Uiso   1.00
C64    C     0.35124   0.74320   0.86489   0.00000  Uiso   1.00
C65    C     0.27724   0.66057   0.85946   0.00000  Uiso   1.00
C66    C     0.25790   0.63567   0.81603   0.00000  Uiso   1.00
C67    C     0.38554   0.93902   0.91003   0.00000  Uiso   1.00
C68    C     0.34036   0.02103   0.94255   0.00000  Uiso   1.00
C69    C     0.34988   0.16101   0.93711   0.00000  Uiso   1.00
H70    H     0.52281   0.92979   0.81335   0.00000  Uiso   1.00
H71    H     0.66865   0.80967   0.83381   0.00000  Uiso   1.00
H72    H     0.42569   0.81744   0.75646   0.00000  Uiso   1.00
H73    H     0.48881   0.17785   0.83953   0.00000  Uiso   1.00
H74    H     0.80704   0.65184   0.87264   0.00000  Uiso   1.00
H75    H     0.29474   0.66827   0.70954   0.00000  Uiso   1.00
H76    H     0.42783   0.42827   0.88471   0.00000  Uiso   1.00
H77    H     0.34334   0.74017   0.93789   0.00000  Uiso   1.00
H78    H     0.47934   0.60964   0.96519   0.00000  Uiso   1.00
H79    H     0.23638   0.61741   0.88783   0.00000  Uiso   1.00
H80    H     0.29950   0.97782   0.97090   0.00000  Uiso   1.00
H81    H     0.65339   0.48948   0.97927   0.00000  Uiso   1.00
H82    H     0.14109   0.50592   0.81616   0.00000  Uiso   1.00
H83    H     0.27418   0.26591   0.99134   0.00000  Uiso   1.00
O84    O     0.82291   0.48818   0.94165   0.00000  Uiso   1.00
O85    O     0.15078   0.50977   0.72767   0.00000  Uiso   1.00
O86    O     0.32540   0.50685   0.95749   0.00000  Uiso   1.00
N87    N     0.75222   0.63156   0.89400   0.00000  Uiso   1.00
N88    N     0.27326   0.64691   0.74150   0.00000  Uiso   1.00
N89    N     0.39766   0.35744   0.90527   0.00000  Uiso   1.00
N90    N     0.66954   0.54420   0.95137   0.00000  Uiso   1.00
N91    N     0.19058   0.55955   0.79888   0.00000  Uiso   1.00
N92    N     0.31499   0.27008   0.96264   0.00000  Uiso   1.00
C93    C     0.01610   0.82456   0.65104   0.00000  Uiso   1.00
C94    C     0.08016   0.92174   0.62394   0.00000  Uiso   1.00
C95    C     0.16941   0.94763   0.63125   0.00000  Uiso   1.00
C96    C     0.21670   0.03993   0.60280   0.00000  Uiso   1.00
C97    C     0.32233   0.18114   0.56599   0.00000  Uiso   1.00
C98    C     0.93360   0.90918   0.66797   0.00000  Uiso   1.00
C99    C     0.89961   0.92449   0.71230   0.00000  Uiso   1.00
C100   C     0.82352   0.00620   0.72092   0.00000  Uiso   1.00
C101   C     0.70156   0.12783   0.75246   0.00000  Uiso   1.00
C102   C     0.98334   0.72355   0.61767   0.00000  Uiso   1.00
C103   C     0.99115   0.58277   0.61972   0.00000  Uiso   1.00
C104   C     0.95691   0.50818   0.58599   0.00000  Uiso   1.00
C105   C     0.91219   0.34158   0.53944   0.00000  Uiso   1.00
C106   C     0.94139   0.94243   0.58752   0.00000  Uiso   1.00
C107   C     0.03958   0.98577   0.58944   0.00000  Uiso   1.00
C108   C     0.08675   0.07804   0.56098   0.00000  Uiso   1.00
C109   C     0.17605   0.10407   0.56824   0.00000  Uiso   1.00
C110   C     0.89301   0.97320   0.63347   0.00000  Uiso   1.00
C111   C     0.81695   0.05490   0.64203   0.00000  Uiso   1.00
C112   C     0.78286   0.07034   0.68636   0.00000  Uiso   1.00
C113   C     0.94276   0.78757   0.58317   0.00000  Uiso   1.00
C114   C     0.90849   0.71318   0.54944   0.00000  Uiso   1.00
C115   C     0.91626   0.57232   0.55143   0.00000  Uiso   1.00
H116   H     0.04769   0.77472   0.67790   0.00000  Uiso   1.00
H117   H     0.20079   0.89807   0.65795   0.00000  Uiso   1.00
H118   H     0.93102   0.87492   0.73899   0.00000  Uiso   1.00
H119   H     0.02256   0.53326   0.64642   0.00000  Uiso   1.00
H120   H     0.35262   0.06311   0.62064   0.00000  Uiso   1.00
H121   H     0.78379   0.01426   0.79150   0.00000  Uiso   1.00
H122   H     0.97680   0.29378   0.59630   0.00000  Uiso   1.00
H123   H     0.90979   0.99228   0.56066   0.00000  Uiso   1.00
H124   H     0.05533   0.12757   0.53428   0.00000  Uiso   1.00
H125   H     0.78556   0.10443   0.61532   0.00000  Uiso   1.00
H126   H     0.87709   0.76276   0.52275   0.00000  Uiso   1.00
H127   H     0.23456   0.24939   0.52026   0.00000  Uiso   1.00
H128   H     0.66572   0.20053   0.69113   0.00000  Uiso   1.00
H129   H     0.85874   0.48006   0.49593   0.00000  Uiso   1.00
O130   O     0.39180   0.24136   0.55522   0.00000  Uiso   1.00
O131   O     0.64551   0.17725   0.77939   0.00000  Uiso   1.00
O132   O     0.89875   0.23200   0.52329   0.00000  Uiso   1.00
N133   N     0.30487   0.08836   0.60063   0.00000  Uiso   1.00
N134   N     0.77305   0.04271   0.76038   0.00000  Uiso   1.00
N135   N     0.95348   0.36912   0.57789   0.00000  Uiso   1.00
N136   N     0.24134   0.18859   0.54662   0.00000  Uiso   1.00
N137   N     0.70952   0.14294   0.70637   0.00000  Uiso   1.00
N138   N     0.88995   0.46935   0.52388   0.00000  Uiso   1.00
C139   C     0.51831   0.88635   0.65811   0.00000  Uiso   1.00
C140   C     0.46395   0.79480   0.62973   0.00000  Uiso   1.00
C141   C     0.37220   0.76647   0.63782   0.00000  Uiso   1.00
C142   C     0.33508   0.68026   0.60794   0.00000  Uiso   1.00
C143   C     0.24265   0.54654   0.56945   0.00000  Uiso   1.00
C144   C     0.59595   0.79901   0.67176   0.00000  Uiso   1.00
C145   C     0.61519   0.77424   0.71519   0.00000  Uiso   1.00
C146   C     0.68919   0.69158   0.72068   0.00000  Uiso   1.00
C147   C     0.80174   0.56447   0.74745   0.00000  Uiso   1.00
C148   C     0.56165   0.99482   0.62662   0.00000  Uiso   1.00
C149   C     0.55207   0.13470   0.63211   0.00000  Uiso   1.00
C150   C     0.59721   0.21691   0.59960   0.00000  Uiso   1.00
C151   C     0.65650   0.39385   0.55629   0.00000  Uiso   1.00
C152   C     0.61554   0.78361   0.59064   0.00000  Uiso   1.00
C153   C     0.51677   0.73899   0.59308   0.00000  Uiso   1.00
C154   C     0.47977   0.65281   0.56317   0.00000  Uiso   1.00
C155   C     0.38798   0.62436   0.57122   0.00000  Uiso   1.00
C156   C     0.64876   0.74320   0.63511   0.00000  Uiso   1.00
C157   C     0.72276   0.66057   0.64054   0.00000  Uiso   1.00
C158   C     0.74210   0.63567   0.68397   0.00000  Uiso   1.00
C159   C     0.61446   0.93902   0.58997   0.00000  Uiso   1.00
C160   C     0.65964   0.02103   0.55745   0.00000  Uiso   1.00
C161   C     0.65012   0.16101   0.56289   0.00000  Uiso   1.00
H162   H     0.47719   0.92979   0.68665   0.00000  Uiso   1.00
H163   H     0.33135   0.80967   0.66619   0.00000  Uiso   1.00
H164   H     0.57431   0.81744   0.74354   0.00000  Uiso   1.00
H165   H     0.51119   0.17785   0.66047   0.00000  Uiso   1.00
H166   H     0.19296   0.65184   0.62736   0.00000  Uiso   1.00
H167   H     0.70526   0.66827   0.79046   0.00000  Uiso   1.00
H168   H     0.57217   0.42827   0.61529   0.00000  Uiso   1.00
H169   H     0.65666   0.74017   0.56211   0.00000  Uiso   1.00
H170   H     0.52066   0.60964   0.53481   0.00000  Uiso   1.00
H171   H     0.76362   0.61741   0.61217   0.00000  Uiso   1.00
H172   H     0.70050   0.97782   0.52910   0.00000  Uiso   1.00
H173   H     0.34661   0.48948   0.52073   0.00000  Uiso   1.00
H174   H     0.85891   0.50592   0.68384   0.00000  Uiso   1.00
H175   H     0.72582   0.26591   0.50866   0.00000  Uiso   1.00
O176   O     0.17709   0.48818   0.55835   0.00000  Uiso   1.00
O177   O     0.84922   0.50977   0.77233   0.00000  Uiso   1.00
O178   O     0.67460   0.50685   0.54251   0.00000  Uiso   1.00
N179   N     0.24778   0.63156   0.60600   0.00000  Uiso   1.00
N180   N     0.72674   0.64691   0.75850   0.00000  Uiso   1.00
N181   N     0.60234   0.35744   0.59473   0.00000  Uiso   1.00
N182   N     0.33046   0.54420   0.54863   0.00000  Uiso   1.00
N183   N     0.80942   0.55955   0.70112   0.00000  Uiso   1.00
N184   N     0.68501   0.27008   0.53736   0.00000  Uiso   1.00
C185   C     0.01610   0.17544   0.15104   0.00000  Uiso   1.00
C186   C     0.08016   0.07826   0.12394   0.00000  Uiso   1.00
C187   C     0.16941   0.05237   0.13125   0.00000  Uiso   1.00
C188   C     0.21670   0.96007   0.10280   0.00000  Uiso   1.00
C189   C     0.32233   0.81886   0.06599   0.00000  Uiso   1.00
C190   C     0.93360   0.09082   0.16797   0.00000  Uiso   1.00
C191   C     0.89961   0.07551   0.21230   0.00000  Uiso   1.00
C192   C     0.82352   0.99380   0.22092   0.00000  Uiso   1.00
C193   C     0.70156   0.87217   0.25246   0.00000  Uiso   1.00
C194   C     0.98334   0.27645   0.11767   0.00000  Uiso   1.00
C195   C     0.99115   0.41723   0.11972   0.00000  Uiso   1.00
C196   C     0.95691   0.49182   0.08599   0.00000  Uiso   1.00
C197   C     0.91219   0.65842   0.03944   0.00000  Uiso   1.00
C198   C     0.94139   0.05757   0.08752   0.00000  Uiso   1.00
C199   C     0.03958   0.01423   0.08944   0.00000  Uiso   1.00
C200   C     0.08675   0.92196   0.06098   0.00000  Uiso   1.00
C201   C     0.17605   0.89593   0.06824   0.00000  Uiso   1.00
C202   C     0.89301   0.02680   0.13347   0.00000  Uiso   1.00
C203   C     0.81695   0.94510   0.14203   0.00000  Uiso   1.00
C204   C     0.78286   0.92966   0.18636   0.00000  Uiso   1.00
C205   C     0.94276   0.21243   0.08317   0.00000  Uiso   1.00
C206   C     0.90849   0.28682   0.04944   0.00000  Uiso   1.00
C207   C     0.91626   0.42768   0.05143   0.00000  Uiso   1.00
H208   H     0.04769   0.22528   0.17790   0.00000  Uiso   1.00
H209   H     0.20079   0.10193   0.15795   0.00000  Uiso   1.00
H210   H     0.93102   0.12508   0.23899   0.00000  Uiso   1.00
H211   H     0.02256   0.46674   0.14642   0.00000  Uiso   1.00
H212   H     0.35262   0.93689   0.12064   0.00000  Uiso   1.00
H213   H     0.78379   0.98574   0.29150   0.00000  Uiso   1.00
H214   H     0.97680   0.70622   0.09630   0.00000  Uiso   1.00
H215   H     0.90979   0.00772   0.06066   0.00000  Uiso   1.00
H216   H     0.05533   0.87243   0.03428   0.00000  Uiso   1.00
H217   H     0.78556   0.89557   0.11532   0.00000  Uiso   1.00
H218   H     0.87709   0.23724   0.02275   0.00000  Uiso   1.00
H219   H     0.23456   0.75061   0.02026   0.00000  Uiso   1.00
H220   H     0.66572   0.79947   0.19113   0.00000  Uiso   1.00
H221   H     0.85874   0.51994   0.99593   0.00000  Uiso   1.00
O222   O     0.39180   0.75864   0.05522   0.00000  Uiso   1.00
O223   O     0.64551   0.82275   0.27939   0.00000  Uiso   1.00
O224   O     0.89875   0.76800   0.02329   0.00000  Uiso   1.00
N225   N     0.30487   0.91164   0.10063   0.00000  Uiso   1.00
N226   N     0.77305   0.95729   0.26038   0.00000  Uiso   1.00
N227   N     0.95348   0.63088   0.07789   0.00000  Uiso   1.00
N228   N     0.24134   0.81141   0.04662   0.00000  Uiso   1.00
N229   N     0.70952   0.85706   0.20637   0.00000  Uiso   1.00
N230   N     0.88995   0.53065   0.02388   0.00000  Uiso   1.00
C231   C     0.51831   0.11365   0.15811   0.00000  Uiso   1.00
C232   C     0.46395   0.20520   0.12973   0.00000  Uiso   1.00
C233   C     0.37220   0.23353   0.13782   0.00000  Uiso   1.00
C234   C     0.33508   0.31974   0.10794   0.00000  Uiso   1.00
C235   C     0.24265   0.45346   0.06945   0.00000  Uiso   1.00
C236   C     0.59595   0.20099   0.17176   0.00000  Uiso   1.00
C237   C     0.61519   0.22576   0.21519   0.00000  Uiso   1.00
C238   C     0.68919   0.30842   0.22068   0.00000  Uiso   1.00
C239   C     0.80174   0.43553   0.24745   0.00000  Uiso   1.00
C240   C     0.56165   0.00518   0.12662   0.00000  Uiso   1.00
C241   C     0.55207   0.86530   0.13211   0.00000  Uiso   1.00
C242   C     0.59721   0.78309   0.09960   0.00000  Uiso   1.00
C243   C     0.65650   0.60615   0.05629   0.00000  Uiso   1.00
C244   C     0.61554   0.21639   0.09064   0.00000  Uiso   1.00
C245   C     0.51677   0.26101   0.09308   0.00000  Uiso   1.00
C246   C     0.47977   0.34719   0.06317   0.00000  Uiso   1.00
C247   C     0.38798   0.37564   0.07122   0.00000  Uiso   1.00
C248   C     0.64876   0.25680   0.13511   0.00000  Uiso   1.00
C249   C     0.72276   0.33943   0.14054   0.00000  Uiso   1.00
C250   C     0.74210   0.36433   0.18397   0.00000  Uiso   1.00
C251   C     0.61446   0.06098   0.08997   0.00000  Uiso   1.00
C252   C     0.65964   0.97897   0.05745   0.00000  Uiso   1.00
C253   C     0.65012   0.83899   0.06289   0.00000  Uiso   1.00
H254   H     0.47719   0.07021   0.18665   0.00000  Uiso   1.00
H255   H     0.33135   0.19033   0.16619   0.00000  Uiso   1.00
H256   H     0.57431   0.18256   0.24354   0.00000  Uiso   1.00
H257   H     0.51119   0.82215   0.16047   0.00000  Uiso   1.00
H258   H     0.19296   0.34816   0.12736   0.00000  Uiso   1.00
H259   H     0.70526   0.33173   0.29046   0.00000  Uiso   1.00
H260   H     0.57217   0.57173   0.11529   0.00000  Uiso   1.00
H261   H     0.65666   0.25983   0.06211   0.00000  Uiso   1.00
H262   H     0.52066   0.39036   0.03481   0.00000  Uiso   1.00
H263   H     0.76362   0.38259   0.11217   0.00000  Uiso   1.00
H264   H     0.70050   0.02218   0.02910   0.00000  Uiso   1.00
H265   H     0.34661   0.51052   0.02073   0.00000  Uiso   1.00
H266   H     0.85891   0.49408   0.18384   0.00000  Uiso   1.00
H267   H     0.72582   0.73409   0.00866   0.00000  Uiso   1.00
O268   O     0.17709   0.51182   0.05835   0.00000  Uiso   1.00
O269   O     0.84922   0.49023   0.27233   0.00000  Uiso   1.00
O270   O     0.67460   0.49315   0.04251   0.00000  Uiso   1.00
N271   N     0.24778   0.36844   0.10600   0.00000  Uiso   1.00
N272   N     0.72674   0.35309   0.25850   0.00000  Uiso   1.00
N273   N     0.60234   0.64256   0.09473   0.00000  Uiso   1.00
N274   N     0.33046   0.45580   0.04863   0.00000  Uiso   1.00
N275   N     0.80942   0.44045   0.20112   0.00000  Uiso   1.00
N276   N     0.68501   0.72992   0.03736   0.00000  Uiso   1.00
C277   C     0.98390   0.17544   0.34896   0.00000  Uiso   1.00
C278   C     0.91984   0.07826   0.37606   0.00000  Uiso   1.00
C279   C     0.83059   0.05237   0.36875   0.00000  Uiso   1.00
C280   C     0.78330   0.96007   0.39720   0.00000  Uiso   1.00
C281   C     0.67767   0.81886   0.43401   0.00000  Uiso   1.00
C282   C     0.06640   0.09082   0.33203   0.00000  Uiso   1.00
C283   C     0.10039   0.07551   0.28770   0.00000  Uiso   1.00
C284   C     0.17648   0.99380   0.27908   0.00000  Uiso   1.00
C285   C     0.29844   0.87217   0.24754   0.00000  Uiso   1.00
C286   C     0.01666   0.27645   0.38233   0.00000  Uiso   1.00
C287   C     0.00885   0.41723   0.38028   0.00000  Uiso   1.00
C288   C     0.04309   0.49182   0.41401   0.00000  Uiso   1.00
C289   C     0.08781   0.65842   0.46056   0.00000  Uiso   1.00
C290   C     0.05861   0.05757   0.41248   0.00000  Uiso   1.00
C291   C     0.96042   0.01423   0.41056   0.00000  Uiso   1.00
C292   C     0.91325   0.92196   0.43902   0.00000  Uiso   1.00
C293   C     0.82395   0.89593   0.43176   0.00000  Uiso   1.00
C294   C     0.10699   0.02680   0.36653   0.00000  Uiso   1.00
C295   C     0.18305   0.94510   0.35797   0.00000  Uiso   1.00
C296   C     0.21714   0.92966   0.31364   0.00000  Uiso   1.00
C297   C     0.05724   0.21243   0.41683   0.00000  Uiso   1.00
C298   C     0.09151   0.28682   0.45056   0.00000  Uiso   1.00
C299   C     0.08374   0.42768   0.44857   0.00000  Uiso   1.00
H300   H     0.95231   0.22528   0.32210   0.00000  Uiso   1.00
H301   H     0.79921   0.10193   0.34205   0.00000  Uiso   1.00
H302   H     0.06898   0.12508   0.26101   0.00000  Uiso   1.00
H303   H     0.97744   0.46674   0.35358   0.00000  Uiso   1.00
H304   H     0.64738   0.93689   0.37936   0.00000  Uiso   1.00
H305   H     0.21621   0.98574   0.20850   0.00000  Uiso   1.00
H306   H     0.02320   0.70622   0.40370   0.00000  Uiso   1.00
H307   H     0.09021   0.00772   0.43934   0.00000  Uiso   1.00
H308   H     0.94467   0.87243   0.46572   0.00000  Uiso   1.00
H309   H     0.21444   0.89557   0.38468   0.00000  Uiso   1.00
H310   H     0.12291   0.23724   0.47725   0.00000  Uiso   1.00
H311   H     0.76544   0.75061   0.47974   0.00000  Uiso   1.00
H312   H     0.33428   0.79947   0.30887   0.00000  Uiso   1.00
H313   H     0.14126   0.51994   0.50407   0.00000  Uiso   1.00
O314   O     0.60820   0.75864   0.44478   0.00000  Uiso   1.00
O315   O     0.35449   0.82275   0.22061   0.00000  Uiso   1.00
O316   O     0.10125   0.76800   0.47671   0.00000  Uiso   1.00
N317   N     0.69513   0.91164   0.39937   0.00000  Uiso   1.00
N318   N     0.22695   0.95729   0.23962   0.00000  Uiso   1.00
N319   N     0.04652   0.63088   0.42211   0.00000  Uiso   1.00
N320   N     0.75866   0.81141   0.45338   0.00000  Uiso   1.00
N321   N     0.29048   0.85706   0.29363   0.00000  Uiso   1.00
N322   N     0.11005   0.53065   0.47612   0.00000  Uiso   1.00
C323   C     0.48169   0.11365   0.34189   0.00000  Uiso   1.00
C324   C     0.53605   0.20520   0.37027   0.00000  Uiso   1.00
C325   C     0.62780   0.23353   0.36218   0.00000  Uiso   1.00
C326   C     0.66492   0.31974   0.39206   0.00000  Uiso   1.00
C327   C     0.75735   0.45346   0.43055   0.00000  Uiso   1.00
C328   C     0.40405   0.20099   0.32824   0.00000  Uiso   1.00
C329   C     0.38481   0.22576   0.28481   0.00000  Uiso   1.00
C330   C     0.31081   0.30842   0.27932   0.00000  Uiso   1.00
C331   C     0.19826   0.43553   0.25255   0.00000  Uiso   1.00
C332   C     0.43835   0.00518   0.37338   0.00000  Uiso   1.00
C333   C     0.44793   0.86530   0.36789   0.00000  Uiso   1.00
C334   C     0.40279   0.78309   0.40040   0.00000  Uiso   1.00
C335   C     0.34350   0.60615   0.44371   0.00000  Uiso   1.00
C336   C     0.38446   0.21639   0.40936   0.00000  Uiso   1.00
C337   C     0.48323   0.26101   0.40692   0.00000  Uiso   1.00
C338   C     0.52023   0.34719   0.43683   0.00000  Uiso   1.00
C339   C     0.61202   0.37564   0.42878   0.00000  Uiso   1.00
C340   C     0.35124   0.25680   0.36489   0.00000  Uiso   1.00
C341   C     0.27724   0.33943   0.35946   0.00000  Uiso   1.00
C342   C     0.25790   0.36433   0.31603   0.00000  Uiso   1.00
C343   C     0.38554   0.06098   0.41003   0.00000  Uiso   1.00
C344   C     0.34036   0.97897   0.44255   0.00000  Uiso   1.00
C345   C     0.34988   0.83899   0.43711   0.00000  Uiso   1.00
H346   H     0.52281   0.07021   0.31335   0.00000  Uiso   1.00
H347   H     0.66865   0.19033   0.33381   0.00000  Uiso   1.00
H348   H     0.42569   0.18256   0.25646   0.00000  Uiso   1.00
H349   H     0.48881   0.82215   0.33953   0.00000  Uiso   1.00
H350   H     0.80704   0.34816   0.37264   0.00000  Uiso   1.00
H351   H     0.29474   0.33173   0.20954   0.00000  Uiso   1.00
H352   H     0.42783   0.57173   0.38471   0.00000  Uiso   1.00
H353   H     0.34334   0.25983   0.43789   0.00000  Uiso   1.00
H354   H     0.47934   0.39036   0.46519   0.00000  Uiso   1.00
H355   H     0.23638   0.38259   0.38783   0.00000  Uiso   1.00
H356   H     0.29950   0.02218   0.47090   0.00000  Uiso   1.00
H357   H     0.65339   0.51052   0.47927   0.00000  Uiso   1.00
H358   H     0.14109   0.49408   0.31616   0.00000  Uiso   1.00
H359   H     0.27418   0.73409   0.49134   0.00000  Uiso   1.00
O360   O     0.82291   0.51182   0.44165   0.00000  Uiso   1.00
O361   O     0.15078   0.49023   0.22767   0.00000  Uiso   1.00
O362   O     0.32540   0.49315   0.45749   0.00000  Uiso   1.00
N363   N     0.75222   0.36844   0.39400   0.00000  Uiso   1.00
N364   N     0.27326   0.35309   0.24150   0.00000  Uiso   1.00
N365   N     0.39766   0.64256   0.40527   0.00000  Uiso   1.00
N366   N     0.66954   0.45580   0.45137   0.00000  Uiso   1.00
N367   N     0.19058   0.44045   0.29888   0.00000  Uiso   1.00
N368   N     0.31499   0.72992   0.46264   0.00000  Uiso   1.00
