data_job_04787
_audit_creation_date              2018-12-19
_audit_creation_method            'Materials Studio'
_symmetry_space_group_name_H-M    'P1'
_symmetry_Int_Tables_number       1
_symmetry_cell_setting            triclinic
loop_
_symmetry_equiv_pos_as_xyz
  x,y,z
_cell_length_a                    23.1978
_cell_length_b                    7.2366
_cell_length_c                    30.5359
_cell_angle_alpha                 90.0000
_cell_angle_beta                  118.4970
_cell_angle_gamma                 90.0000
loop_
_atom_site_label
_atom_site_type_symbol
_atom_site_fract_x
_atom_site_fract_y
_atom_site_fract_z
_atom_site_U_iso_or_equiv
_atom_site_adp_type
_atom_site_occupancy
C1     C     0.82858   0.07014   0.37822   0.00000  Uiso   1.00
C2     C     0.86060   0.15252   0.43052   0.00000  Uiso   1.00
C3     C     0.88758   0.05303   0.47472   0.00000  Uiso   1.00
C4     C     0.91453   0.15402   0.51870   0.00000  Uiso   1.00
C5     C     0.96429   0.25251   0.59995   0.00000  Uiso   1.00
C6     C     0.86546   0.15071   0.35256   0.00000  Uiso   1.00
C7     C     0.89651   0.04969   0.33121   0.00000  Uiso   1.00
C8     C     0.92756   0.14916   0.30957   0.00000  Uiso   1.00
C9     C     0.98481   0.24482   0.26975   0.00000  Uiso   1.00
C10    C     0.75963   0.15135   0.35124   0.00000  Uiso   1.00
C11    C     0.70169   0.05086   0.32878   0.00000  Uiso   1.00
C12    C     0.64362   0.15087   0.30601   0.00000  Uiso   1.00
C13    C     0.53656   0.24752   0.26415   0.00000  Uiso   1.00
C14    C     0.82849   0.42643   0.37773   0.00000  Uiso   1.00
C15    C     0.86056   0.34605   0.43025   0.00000  Uiso   1.00
C16    C     0.88748   0.44722   0.47417   0.00000  Uiso   1.00
C17    C     0.91448   0.34789   0.51844   0.00000  Uiso   1.00
C18    C     0.86542   0.34422   0.35229   0.00000  Uiso   1.00
C19    C     0.89641   0.44387   0.33067   0.00000  Uiso   1.00
C20    C     0.92751   0.34303   0.30930   0.00000  Uiso   1.00
C21    C     0.75958   0.34487   0.35098   0.00000  Uiso   1.00
C22    C     0.70159   0.44505   0.32824   0.00000  Uiso   1.00
C23    C     0.64358   0.34474   0.30574   0.00000  Uiso   1.00
H24    H     0.82862   0.91948   0.37842   0.00000  Uiso   1.00
H25    H     0.88761   0.90327   0.47491   0.00000  Uiso   1.00
H26    H     0.89654   0.89993   0.33142   0.00000  Uiso   1.00
H27    H     0.70175   0.90111   0.32899   0.00000  Uiso   1.00
H28    H     0.95301   0.97064   0.58176   0.00000  Uiso   1.00
H29    H     0.97181   0.96360   0.27920   0.00000  Uiso   1.00
H30    H     0.56106   0.96608   0.27407   0.00000  Uiso   1.00
H31    H     0.82846   0.57710   0.37752   0.00000  Uiso   1.00
H32    H     0.88743   0.59698   0.47396   0.00000  Uiso   1.00
H33    H     0.89636   0.59363   0.33047   0.00000  Uiso   1.00
H34    H     0.70157   0.59481   0.32804   0.00000  Uiso   1.00
H35    H     0.95287   0.53368   0.58099   0.00000  Uiso   1.00
H36    H     0.97167   0.52663   0.27842   0.00000  Uiso   1.00
H37    H     0.56092   0.52911   0.27329   0.00000  Uiso   1.00
O38    O     0.99176   0.25337   0.64483   0.00000  Uiso   1.00
O39    O     0.01642   0.24412   0.24787   0.00000  Uiso   1.00
O40    O     0.47752   0.24738   0.24114   0.00000  Uiso   1.00
N41    N     0.94487   0.10042   0.56835   0.00000  Uiso   1.00
N42    N     0.96246   0.09384   0.28547   0.00000  Uiso   1.00
N43    N     0.57844   0.09615   0.28067   0.00000  Uiso   1.00
N44    N     0.94479   0.40339   0.56793   0.00000  Uiso   1.00
N45    N     0.96239   0.39680   0.28506   0.00000  Uiso   1.00
N46    N     0.57836   0.39912   0.28025   0.00000  Uiso   1.00
C47    C     0.17142   0.57014   0.12178   0.00000  Uiso   1.00
C48    C     0.13940   0.65252   0.06948   0.00000  Uiso   1.00
C49    C     0.11242   0.55303   0.02528   0.00000  Uiso   1.00
C50    C     0.08547   0.65402   0.98130   0.00000  Uiso   1.00
C51    C     0.03571   0.75251   0.90005   0.00000  Uiso   1.00
C52    C     0.13454   0.65071   0.14744   0.00000  Uiso   1.00
C53    C     0.10349   0.54969   0.16879   0.00000  Uiso   1.00
C54    C     0.07244   0.64916   0.19043   0.00000  Uiso   1.00
C55    C     0.01519   0.74482   0.23025   0.00000  Uiso   1.00
C56    C     0.24037   0.65135   0.14876   0.00000  Uiso   1.00
C57    C     0.29831   0.55086   0.17122   0.00000  Uiso   1.00
C58    C     0.35638   0.65087   0.19399   0.00000  Uiso   1.00
C59    C     0.46344   0.74752   0.23585   0.00000  Uiso   1.00
C60    C     0.17151   0.92643   0.12227   0.00000  Uiso   1.00
C61    C     0.13944   0.84605   0.06975   0.00000  Uiso   1.00
C62    C     0.11252   0.94722   0.02583   0.00000  Uiso   1.00
C63    C     0.08552   0.84789   0.98156   0.00000  Uiso   1.00
C64    C     0.13458   0.84422   0.14771   0.00000  Uiso   1.00
C65    C     0.10359   0.94387   0.16933   0.00000  Uiso   1.00
C66    C     0.07249   0.84303   0.19070   0.00000  Uiso   1.00
C67    C     0.24042   0.84487   0.14902   0.00000  Uiso   1.00
C68    C     0.29841   0.94505   0.17176   0.00000  Uiso   1.00
C69    C     0.35642   0.84474   0.19426   0.00000  Uiso   1.00
H70    H     0.17138   0.41948   0.12158   0.00000  Uiso   1.00
H71    H     0.11239   0.40327   0.02509   0.00000  Uiso   1.00
H72    H     0.10346   0.39993   0.16858   0.00000  Uiso   1.00
H73    H     0.29825   0.40111   0.17101   0.00000  Uiso   1.00
H74    H     0.04699   0.47064   0.91824   0.00000  Uiso   1.00
H75    H     0.02819   0.46360   0.22080   0.00000  Uiso   1.00
H76    H     0.43894   0.46608   0.22593   0.00000  Uiso   1.00
H77    H     0.17154   0.07710   0.12248   0.00000  Uiso   1.00
H78    H     0.11257   0.09698   0.02604   0.00000  Uiso   1.00
H79    H     0.10364   0.09363   0.16953   0.00000  Uiso   1.00
H80    H     0.29843   0.09481   0.17196   0.00000  Uiso   1.00
H81    H     0.04713   0.03368   0.91901   0.00000  Uiso   1.00
H82    H     0.02833   0.02663   0.22158   0.00000  Uiso   1.00
H83    H     0.43908   0.02911   0.22671   0.00000  Uiso   1.00
O84    O     0.00824   0.75337   0.85517   0.00000  Uiso   1.00
O85    O     0.98358   0.74412   0.25213   0.00000  Uiso   1.00
O86    O     0.52248   0.74738   0.25886   0.00000  Uiso   1.00
N87    N     0.05513   0.60042   0.93165   0.00000  Uiso   1.00
N88    N     0.03754   0.59384   0.21453   0.00000  Uiso   1.00
N89    N     0.42156   0.59615   0.21933   0.00000  Uiso   1.00
N90    N     0.05521   0.90339   0.93207   0.00000  Uiso   1.00
N91    N     0.03761   0.89680   0.21494   0.00000  Uiso   1.00
N92    N     0.42164   0.89912   0.21975   0.00000  Uiso   1.00
C93    C     0.17142   0.92986   0.62178   0.00000  Uiso   1.00
C94    C     0.13940   0.84748   0.56948   0.00000  Uiso   1.00
C95    C     0.11242   0.94697   0.52528   0.00000  Uiso   1.00
C96    C     0.08547   0.84598   0.48130   0.00000  Uiso   1.00
C97    C     0.03571   0.74749   0.40005   0.00000  Uiso   1.00
C98    C     0.13454   0.84929   0.64744   0.00000  Uiso   1.00
C99    C     0.10349   0.95031   0.66879   0.00000  Uiso   1.00
C100   C     0.07244   0.85084   0.69043   0.00000  Uiso   1.00
C101   C     0.01519   0.75518   0.73025   0.00000  Uiso   1.00
C102   C     0.24037   0.84865   0.64876   0.00000  Uiso   1.00
C103   C     0.29831   0.94914   0.67122   0.00000  Uiso   1.00
C104   C     0.35638   0.84913   0.69399   0.00000  Uiso   1.00
C105   C     0.46344   0.75248   0.73585   0.00000  Uiso   1.00
C106   C     0.17151   0.57357   0.62227   0.00000  Uiso   1.00
C107   C     0.13944   0.65395   0.56975   0.00000  Uiso   1.00
C108   C     0.11252   0.55278   0.52583   0.00000  Uiso   1.00
C109   C     0.08552   0.65211   0.48156   0.00000  Uiso   1.00
C110   C     0.13458   0.65578   0.64771   0.00000  Uiso   1.00
C111   C     0.10359   0.55613   0.66933   0.00000  Uiso   1.00
C112   C     0.07249   0.65697   0.69070   0.00000  Uiso   1.00
C113   C     0.24042   0.65513   0.64902   0.00000  Uiso   1.00
C114   C     0.29841   0.55495   0.67176   0.00000  Uiso   1.00
C115   C     0.35642   0.65526   0.69426   0.00000  Uiso   1.00
H116   H     0.17138   0.08052   0.62158   0.00000  Uiso   1.00
H117   H     0.11239   0.09673   0.52509   0.00000  Uiso   1.00
H118   H     0.10346   0.10007   0.66858   0.00000  Uiso   1.00
H119   H     0.29825   0.09889   0.67101   0.00000  Uiso   1.00
H120   H     0.04699   0.02936   0.41824   0.00000  Uiso   1.00
H121   H     0.02819   0.03640   0.72080   0.00000  Uiso   1.00
H122   H     0.43894   0.03392   0.72593   0.00000  Uiso   1.00
H123   H     0.17154   0.42290   0.62248   0.00000  Uiso   1.00
H124   H     0.11257   0.40302   0.52604   0.00000  Uiso   1.00
H125   H     0.10364   0.40637   0.66953   0.00000  Uiso   1.00
H126   H     0.29843   0.40519   0.67196   0.00000  Uiso   1.00
H127   H     0.04713   0.46632   0.41901   0.00000  Uiso   1.00
H128   H     0.02833   0.47337   0.72158   0.00000  Uiso   1.00
H129   H     0.43908   0.47089   0.72671   0.00000  Uiso   1.00
O130   O     0.00824   0.74663   0.35517   0.00000  Uiso   1.00
O131   O     0.98358   0.75588   0.75213   0.00000  Uiso   1.00
O132   O     0.52248   0.75262   0.75886   0.00000  Uiso   1.00
N133   N     0.05513   0.89958   0.43165   0.00000  Uiso   1.00
N134   N     0.03754   0.90616   0.71453   0.00000  Uiso   1.00
N135   N     0.42156   0.90385   0.71933   0.00000  Uiso   1.00
N136   N     0.05521   0.59661   0.43207   0.00000  Uiso   1.00
N137   N     0.03761   0.60320   0.71494   0.00000  Uiso   1.00
N138   N     0.42164   0.60088   0.71975   0.00000  Uiso   1.00
C139   C     0.82858   0.42986   0.87822   0.00000  Uiso   1.00
C140   C     0.86060   0.34748   0.93052   0.00000  Uiso   1.00
C141   C     0.88758   0.44697   0.97472   0.00000  Uiso   1.00
C142   C     0.91453   0.34598   0.01870   0.00000  Uiso   1.00
C143   C     0.96429   0.24749   0.09995   0.00000  Uiso   1.00
C144   C     0.86546   0.34929   0.85256   0.00000  Uiso   1.00
C145   C     0.89651   0.45031   0.83121   0.00000  Uiso   1.00
C146   C     0.92756   0.35084   0.80957   0.00000  Uiso   1.00
C147   C     0.98481   0.25518   0.76975   0.00000  Uiso   1.00
C148   C     0.75963   0.34865   0.85124   0.00000  Uiso   1.00
C149   C     0.70169   0.44914   0.82878   0.00000  Uiso   1.00
C150   C     0.64362   0.34913   0.80601   0.00000  Uiso   1.00
C151   C     0.53656   0.25248   0.76415   0.00000  Uiso   1.00
C152   C     0.82849   0.07357   0.87773   0.00000  Uiso   1.00
C153   C     0.86056   0.15395   0.93025   0.00000  Uiso   1.00
C154   C     0.88748   0.05278   0.97417   0.00000  Uiso   1.00
C155   C     0.91448   0.15211   0.01844   0.00000  Uiso   1.00
C156   C     0.86542   0.15578   0.85229   0.00000  Uiso   1.00
C157   C     0.89641   0.05613   0.83067   0.00000  Uiso   1.00
C158   C     0.92751   0.15697   0.80930   0.00000  Uiso   1.00
C159   C     0.75958   0.15513   0.85098   0.00000  Uiso   1.00
C160   C     0.70159   0.05495   0.82824   0.00000  Uiso   1.00
C161   C     0.64358   0.15526   0.80574   0.00000  Uiso   1.00
H162   H     0.82862   0.58052   0.87842   0.00000  Uiso   1.00
H163   H     0.88761   0.59673   0.97491   0.00000  Uiso   1.00
H164   H     0.89654   0.60007   0.83142   0.00000  Uiso   1.00
H165   H     0.70175   0.59889   0.82899   0.00000  Uiso   1.00
H166   H     0.95301   0.52936   0.08176   0.00000  Uiso   1.00
H167   H     0.97181   0.53640   0.77920   0.00000  Uiso   1.00
H168   H     0.56106   0.53392   0.77407   0.00000  Uiso   1.00
H169   H     0.82846   0.92290   0.87752   0.00000  Uiso   1.00
H170   H     0.88743   0.90302   0.97396   0.00000  Uiso   1.00
H171   H     0.89636   0.90637   0.83047   0.00000  Uiso   1.00
H172   H     0.70157   0.90519   0.82804   0.00000  Uiso   1.00
H173   H     0.95287   0.96632   0.08099   0.00000  Uiso   1.00
H174   H     0.97167   0.97337   0.77842   0.00000  Uiso   1.00
H175   H     0.56092   0.97089   0.77329   0.00000  Uiso   1.00
O176   O     0.99176   0.24663   0.14483   0.00000  Uiso   1.00
O177   O     0.01642   0.25588   0.74787   0.00000  Uiso   1.00
O178   O     0.47752   0.25262   0.74114   0.00000  Uiso   1.00
N179   N     0.94487   0.39958   0.06835   0.00000  Uiso   1.00
N180   N     0.96246   0.40616   0.78547   0.00000  Uiso   1.00
N181   N     0.57844   0.40385   0.78067   0.00000  Uiso   1.00
N182   N     0.94479   0.09661   0.06793   0.00000  Uiso   1.00
N183   N     0.96239   0.10320   0.78506   0.00000  Uiso   1.00
N184   N     0.57836   0.10088   0.78025   0.00000  Uiso   1.00
