data_job_02106
_audit_creation_date              2018-12-19
_audit_creation_method            'Materials Studio'
_symmetry_space_group_name_H-M    'P1'
_symmetry_Int_Tables_number       1
_symmetry_cell_setting            triclinic
loop_
_symmetry_equiv_pos_as_xyz
  x,y,z
_cell_length_a                    24.6426
_cell_length_b                    9.5338
_cell_length_c                    24.1649
_cell_angle_alpha                 90.0000
_cell_angle_beta                  28.7876
_cell_angle_gamma                 90.0000
loop_
_atom_site_label
_atom_site_type_symbol
_atom_site_fract_x
_atom_site_fract_y
_atom_site_fract_z
_atom_site_U_iso_or_equiv
_atom_site_adp_type
_atom_site_occupancy
C1     C     0.72028   0.29792   0.12606   0.00000  Uiso   1.00
C2     C     0.64554   0.16784   0.19396   0.00000  Uiso   1.00
C3     C     0.53375   0.16373   0.31064   0.00000  Uiso   1.00
C4     C     0.48001   0.03448   0.35664   0.00000  Uiso   1.00
C5     C     0.35544   0.85084   0.47247   0.00000  Uiso   1.00
C6     C     0.82302   0.26271   0.06950   0.00000  Uiso   1.00
C7     C     0.86045   0.33839   0.08154   0.00000  Uiso   1.00
C8     C     0.95613   0.28900   0.02275   0.00000  Uiso   1.00
C9     C     0.10714   0.25271   0.94529   0.00000  Uiso   1.00
C10    C     0.76312   0.31091   0.02850   0.00000  Uiso   1.00
C11    C     0.75022   0.42713   0.00604   0.00000  Uiso   1.00
C12    C     0.79549   0.41833   0.91271   0.00000  Uiso   1.00
C13    C     0.85350   0.45688   0.77160   0.00000  Uiso   1.00
C14    C     0.82366   0.07566   0.00024   0.00000  Uiso   1.00
C15    C     0.70170   0.04711   0.12561   0.00000  Uiso   1.00
C16    C     0.64812   0.91783   0.17144   0.00000  Uiso   1.00
C17    C     0.53626   0.91354   0.28817   0.00000  Uiso   1.00
C18    C     0.87917   0.14199   0.00116   0.00000  Uiso   1.00
C19    C     0.97482   0.09248   0.94233   0.00000  Uiso   1.00
C20    C     0.01238   0.16806   0.95428   0.00000  Uiso   1.00
C21    C     0.81927   0.19018   0.96016   0.00000  Uiso   1.00
C22    C     0.86458   0.18121   0.86684   0.00000  Uiso   1.00
C23    C     0.85174   0.29739   0.84424   0.00000  Uiso   1.00
H24    H     0.67657   0.39191   0.17926   0.00000  Uiso   1.00
H25    H     0.49033   0.25718   0.36351   0.00000  Uiso   1.00
H26    H     0.81699   0.43181   0.13442   0.00000  Uiso   1.00
H27    H     0.70676   0.52053   0.05894   0.00000  Uiso   1.00
H28    H     0.30861   0.05456   0.53764   0.00000  Uiso   1.00
H29    H     0.99742   0.42281   0.05458   0.00000  Uiso   1.00
H30    H     0.76499   0.60989   0.89541   0.00000  Uiso   1.00
H31    H     0.86737   0.98167   0.94703   0.00000  Uiso   1.00
H32    H     0.69159   0.82443   0.11853   0.00000  Uiso   1.00
H33    H     0.01825   0.99906   0.88945   0.00000  Uiso   1.00
H34    H     0.90803   0.08778   0.81397   0.00000  Uiso   1.00
H35    H     0.47196   0.70332   0.33881   0.00000  Uiso   1.00
H36    H     0.16078   0.07158   0.85574   0.00000  Uiso   1.00
H37    H     0.92834   0.25865   0.69658   0.00000  Uiso   1.00
O38    O     0.27122   0.78289   0.55525   0.00000  Uiso   1.00
O39    O     0.17492   0.26604   0.92146   0.00000  Uiso   1.00
O40    O     0.86997   0.51148   0.71265   0.00000  Uiso   1.00
N41    N     0.37117   0.99348   0.46731   0.00000  Uiso   1.00
N42    N     0.01515   0.33776   0.01568   0.00000  Uiso   1.00
N43    N     0.79788   0.51268   0.86686   0.00000  Uiso   1.00
N44    N     0.45907   0.80448   0.36032   0.00000  Uiso   1.00
N45    N     0.10305   0.14876   0.90870   0.00000  Uiso   1.00
N46    N     0.88578   0.32368   0.75987   0.00000  Uiso   1.00
C47    C     0.27972   0.29792   0.37394   0.00000  Uiso   1.00
C48    C     0.35446   0.16784   0.30604   0.00000  Uiso   1.00
C49    C     0.46625   0.16373   0.18936   0.00000  Uiso   1.00
C50    C     0.51999   0.03448   0.14336   0.00000  Uiso   1.00
C51    C     0.64456   0.85084   0.02753   0.00000  Uiso   1.00
C52    C     0.17698   0.26271   0.43050   0.00000  Uiso   1.00
C53    C     0.13955   0.33839   0.41846   0.00000  Uiso   1.00
C54    C     0.04387   0.28900   0.47725   0.00000  Uiso   1.00
C55    C     0.89286   0.25271   0.55471   0.00000  Uiso   1.00
C56    C     0.23688   0.31091   0.47150   0.00000  Uiso   1.00
C57    C     0.24978   0.42713   0.49396   0.00000  Uiso   1.00
C58    C     0.20451   0.41833   0.58729   0.00000  Uiso   1.00
C59    C     0.14650   0.45688   0.72840   0.00000  Uiso   1.00
C60    C     0.17634   0.07566   0.49976   0.00000  Uiso   1.00
C61    C     0.29830   0.04711   0.37439   0.00000  Uiso   1.00
C62    C     0.35188   0.91783   0.32856   0.00000  Uiso   1.00
C63    C     0.46374   0.91354   0.21183   0.00000  Uiso   1.00
C64    C     0.12083   0.14199   0.49884   0.00000  Uiso   1.00
C65    C     0.02518   0.09248   0.55767   0.00000  Uiso   1.00
C66    C     0.98762   0.16806   0.54572   0.00000  Uiso   1.00
C67    C     0.18073   0.19018   0.53984   0.00000  Uiso   1.00
C68    C     0.13542   0.18121   0.63316   0.00000  Uiso   1.00
C69    C     0.14826   0.29739   0.65576   0.00000  Uiso   1.00
H70    H     0.32343   0.39191   0.32074   0.00000  Uiso   1.00
H71    H     0.50967   0.25718   0.13649   0.00000  Uiso   1.00
H72    H     0.18301   0.43181   0.36558   0.00000  Uiso   1.00
H73    H     0.29324   0.52053   0.44106   0.00000  Uiso   1.00
H74    H     0.69139   0.05456   0.96236   0.00000  Uiso   1.00
H75    H     0.00258   0.42281   0.44542   0.00000  Uiso   1.00
H76    H     0.23501   0.60989   0.60459   0.00000  Uiso   1.00
H77    H     0.13263   0.98167   0.55297   0.00000  Uiso   1.00
H78    H     0.30841   0.82443   0.38147   0.00000  Uiso   1.00
H79    H     0.98175   0.99906   0.61055   0.00000  Uiso   1.00
H80    H     0.09197   0.08778   0.68603   0.00000  Uiso   1.00
H81    H     0.52804   0.70332   0.16119   0.00000  Uiso   1.00
H82    H     0.83922   0.07158   0.64426   0.00000  Uiso   1.00
H83    H     0.07166   0.25865   0.80342   0.00000  Uiso   1.00
O84    O     0.72878   0.78289   0.94475   0.00000  Uiso   1.00
O85    O     0.82508   0.26604   0.57854   0.00000  Uiso   1.00
O86    O     0.13003   0.51148   0.78735   0.00000  Uiso   1.00
N87    N     0.62883   0.99348   0.03269   0.00000  Uiso   1.00
N88    N     0.98485   0.33776   0.48432   0.00000  Uiso   1.00
N89    N     0.20212   0.51268   0.63314   0.00000  Uiso   1.00
N90    N     0.54093   0.80448   0.13968   0.00000  Uiso   1.00
N91    N     0.89695   0.14876   0.59130   0.00000  Uiso   1.00
N92    N     0.11422   0.32368   0.74013   0.00000  Uiso   1.00
C93    C     0.27972   0.70208   0.87394   0.00000  Uiso   1.00
C94    C     0.35446   0.83216   0.80604   0.00000  Uiso   1.00
C95    C     0.46625   0.83627   0.68936   0.00000  Uiso   1.00
C96    C     0.51999   0.96552   0.64336   0.00000  Uiso   1.00
C97    C     0.64456   0.14916   0.52753   0.00000  Uiso   1.00
C98    C     0.17698   0.73729   0.93050   0.00000  Uiso   1.00
C99    C     0.13955   0.66161   0.91846   0.00000  Uiso   1.00
C100   C     0.04387   0.71100   0.97725   0.00000  Uiso   1.00
C101   C     0.89286   0.74729   0.05471   0.00000  Uiso   1.00
C102   C     0.23688   0.68909   0.97150   0.00000  Uiso   1.00
C103   C     0.24978   0.57287   0.99396   0.00000  Uiso   1.00
C104   C     0.20451   0.58167   0.08729   0.00000  Uiso   1.00
C105   C     0.14650   0.54312   0.22840   0.00000  Uiso   1.00
C106   C     0.17634   0.92434   0.99976   0.00000  Uiso   1.00
C107   C     0.29830   0.95289   0.87439   0.00000  Uiso   1.00
C108   C     0.35188   0.08217   0.82856   0.00000  Uiso   1.00
C109   C     0.46374   0.08646   0.71183   0.00000  Uiso   1.00
C110   C     0.12083   0.85801   0.99884   0.00000  Uiso   1.00
C111   C     0.02518   0.90752   0.05767   0.00000  Uiso   1.00
C112   C     0.98762   0.83194   0.04572   0.00000  Uiso   1.00
C113   C     0.18073   0.80982   0.03984   0.00000  Uiso   1.00
C114   C     0.13542   0.81879   0.13316   0.00000  Uiso   1.00
C115   C     0.14826   0.70261   0.15576   0.00000  Uiso   1.00
H116   H     0.32343   0.60809   0.82074   0.00000  Uiso   1.00
H117   H     0.50967   0.74282   0.63649   0.00000  Uiso   1.00
H118   H     0.18301   0.56819   0.86558   0.00000  Uiso   1.00
H119   H     0.29324   0.47947   0.94106   0.00000  Uiso   1.00
H120   H     0.69139   0.94544   0.46236   0.00000  Uiso   1.00
H121   H     0.00258   0.57719   0.94542   0.00000  Uiso   1.00
H122   H     0.23501   0.39011   0.10459   0.00000  Uiso   1.00
H123   H     0.13263   0.01833   0.05297   0.00000  Uiso   1.00
H124   H     0.30841   0.17557   0.88147   0.00000  Uiso   1.00
H125   H     0.98175   0.00094   0.11055   0.00000  Uiso   1.00
H126   H     0.09197   0.91222   0.18603   0.00000  Uiso   1.00
H127   H     0.52804   0.29668   0.66119   0.00000  Uiso   1.00
H128   H     0.83922   0.92842   0.14426   0.00000  Uiso   1.00
H129   H     0.07166   0.74135   0.30342   0.00000  Uiso   1.00
O130   O     0.72878   0.21711   0.44475   0.00000  Uiso   1.00
O131   O     0.82508   0.73396   0.07854   0.00000  Uiso   1.00
O132   O     0.13003   0.48852   0.28735   0.00000  Uiso   1.00
N133   N     0.62883   0.00652   0.53269   0.00000  Uiso   1.00
N134   N     0.98485   0.66224   0.98432   0.00000  Uiso   1.00
N135   N     0.20212   0.48732   0.13314   0.00000  Uiso   1.00
N136   N     0.54093   0.19552   0.63968   0.00000  Uiso   1.00
N137   N     0.89695   0.85124   0.09130   0.00000  Uiso   1.00
N138   N     0.11422   0.67632   0.24013   0.00000  Uiso   1.00
C139   C     0.72028   0.70208   0.62606   0.00000  Uiso   1.00
C140   C     0.64554   0.83216   0.69396   0.00000  Uiso   1.00
C141   C     0.53375   0.83627   0.81064   0.00000  Uiso   1.00
C142   C     0.48001   0.96552   0.85664   0.00000  Uiso   1.00
C143   C     0.35544   0.14916   0.97247   0.00000  Uiso   1.00
C144   C     0.82302   0.73729   0.56950   0.00000  Uiso   1.00
C145   C     0.86045   0.66161   0.58154   0.00000  Uiso   1.00
C146   C     0.95613   0.71100   0.52275   0.00000  Uiso   1.00
C147   C     0.10714   0.74729   0.44529   0.00000  Uiso   1.00
C148   C     0.76312   0.68909   0.52850   0.00000  Uiso   1.00
C149   C     0.75022   0.57287   0.50604   0.00000  Uiso   1.00
C150   C     0.79549   0.58167   0.41271   0.00000  Uiso   1.00
C151   C     0.85350   0.54312   0.27160   0.00000  Uiso   1.00
C152   C     0.82366   0.92434   0.50024   0.00000  Uiso   1.00
C153   C     0.70170   0.95289   0.62561   0.00000  Uiso   1.00
C154   C     0.64812   0.08217   0.67144   0.00000  Uiso   1.00
C155   C     0.53626   0.08646   0.78817   0.00000  Uiso   1.00
C156   C     0.87917   0.85801   0.50116   0.00000  Uiso   1.00
C157   C     0.97482   0.90752   0.44233   0.00000  Uiso   1.00
C158   C     0.01238   0.83194   0.45428   0.00000  Uiso   1.00
C159   C     0.81927   0.80982   0.46016   0.00000  Uiso   1.00
C160   C     0.86458   0.81879   0.36684   0.00000  Uiso   1.00
C161   C     0.85174   0.70261   0.34424   0.00000  Uiso   1.00
H162   H     0.67657   0.60809   0.67926   0.00000  Uiso   1.00
H163   H     0.49033   0.74282   0.86351   0.00000  Uiso   1.00
H164   H     0.81699   0.56819   0.63442   0.00000  Uiso   1.00
H165   H     0.70676   0.47947   0.55894   0.00000  Uiso   1.00
H166   H     0.30861   0.94544   0.03764   0.00000  Uiso   1.00
H167   H     0.99742   0.57719   0.55458   0.00000  Uiso   1.00
H168   H     0.76499   0.39011   0.39541   0.00000  Uiso   1.00
H169   H     0.86737   0.01833   0.44703   0.00000  Uiso   1.00
H170   H     0.69159   0.17557   0.61853   0.00000  Uiso   1.00
H171   H     0.01825   0.00094   0.38945   0.00000  Uiso   1.00
H172   H     0.90803   0.91222   0.31397   0.00000  Uiso   1.00
H173   H     0.47196   0.29668   0.83881   0.00000  Uiso   1.00
H174   H     0.16078   0.92842   0.35574   0.00000  Uiso   1.00
H175   H     0.92834   0.74135   0.19658   0.00000  Uiso   1.00
O176   O     0.27122   0.21711   0.05525   0.00000  Uiso   1.00
O177   O     0.17492   0.73396   0.42146   0.00000  Uiso   1.00
O178   O     0.86997   0.48852   0.21265   0.00000  Uiso   1.00
N179   N     0.37117   0.00652   0.96731   0.00000  Uiso   1.00
N180   N     0.01515   0.66224   0.51568   0.00000  Uiso   1.00
N181   N     0.79788   0.48732   0.36686   0.00000  Uiso   1.00
N182   N     0.45907   0.19552   0.86032   0.00000  Uiso   1.00
N183   N     0.10305   0.85124   0.40870   0.00000  Uiso   1.00
N184   N     0.88578   0.67632   0.25987   0.00000  Uiso   1.00
