data_job_00968
_audit_creation_date              2018-12-19
_audit_creation_method            'Materials Studio'
_symmetry_space_group_name_H-M    'P1'
_symmetry_Int_Tables_number       1
_symmetry_cell_setting            triclinic
loop_
_symmetry_equiv_pos_as_xyz
  x,y,z
_cell_length_a                    18.5896
_cell_length_b                    18.5896
_cell_length_c                    12.6215
_cell_angle_alpha                 90.0000
_cell_angle_beta                  90.0000
_cell_angle_gamma                 120.0000
loop_
_atom_site_label
_atom_site_type_symbol
_atom_site_fract_x
_atom_site_fract_y
_atom_site_fract_z
_atom_site_U_iso_or_equiv
_atom_site_adp_type
_atom_site_occupancy
C1     C     0.24978   0.40805   0.12327   0.00000  Uiso   1.00
C2     C     0.32702   0.40098   0.10418   0.00000  Uiso   1.00
C3     C     0.40858   0.46511   0.11338   0.00000  Uiso   1.00
C4     C     0.47049   0.44603   0.09255   0.00000  Uiso   1.00
C5     C     0.59332   0.44730   0.06726   0.00000  Uiso   1.00
C6     C     0.19890   0.37836   0.02156   0.00000  Uiso   1.00
C7     C     0.17272   0.42347   0.96132   0.00000  Uiso   1.00
C8     C     0.12676   0.38534   0.87095   0.00000  Uiso   1.00
C9     C     0.05062   0.35146   0.71743   0.00000  Uiso   1.00
C10    C     0.19939   0.34342   0.20749   0.00000  Uiso   1.00
C11    C     0.17361   0.35915   0.30358   0.00000  Uiso   1.00
C12    C     0.12805   0.29161   0.36974   0.00000  Uiso   1.00
C13    C     0.05269   0.20348   0.50492   0.00000  Uiso   1.00
C14    C     0.21470   0.26012   0.06990   0.00000  Uiso   1.00
C15    C     0.30796   0.32063   0.07518   0.00000  Uiso   1.00
C16    C     0.36977   0.30145   0.05433   0.00000  Uiso   1.00
C17    C     0.45140   0.36554   0.06351   0.00000  Uiso   1.00
C18    C     0.17984   0.29801   0.99257   0.00000  Uiso   1.00
C19    C     0.13391   0.25981   0.90227   0.00000  Uiso   1.00
C20    C     0.10767   0.30484   0.84190   0.00000  Uiso   1.00
C21    C     0.18034   0.26308   0.17851   0.00000  Uiso   1.00
C22    C     0.13481   0.19549   0.24453   0.00000  Uiso   1.00
C23    C     0.10896   0.21111   0.34070   0.00000  Uiso   1.00
H24    H     0.26461   0.47060   0.14584   0.00000  Uiso   1.00
H25    H     0.42330   0.52729   0.13581   0.00000  Uiso   1.00
H26    H     0.18747   0.48564   0.98378   0.00000  Uiso   1.00
H27    H     0.18837   0.42134   0.32599   0.00000  Uiso   1.00
H28    H     0.59082   0.55471   0.11188   0.00000  Uiso   1.00
H29    H     0.09354   0.46689   0.79132   0.00000  Uiso   1.00
H30    H     0.09543   0.33129   0.51294   0.00000  Uiso   1.00
H31    H     0.19987   0.19756   0.04733   0.00000  Uiso   1.00
H32    H     0.35500   0.23927   0.03190   0.00000  Uiso   1.00
H33    H     0.11917   0.19763   0.87986   0.00000  Uiso   1.00
H34    H     0.12007   0.13332   0.22207   0.00000  Uiso   1.00
H35    H     0.53539   0.32094   0.02753   0.00000  Uiso   1.00
H36    H     0.03810   0.23312   0.70698   0.00000  Uiso   1.00
H37    H     0.04000   0.09753   0.42859   0.00000  Uiso   1.00
O38    O     0.66633   0.47019   0.06130   0.00000  Uiso   1.00
O39    O     0.01390   0.35497   0.64076   0.00000  Uiso   1.00
O40    O     0.01639   0.17708   0.58750   0.00000  Uiso   1.00
N41    N     0.55649   0.49397   0.09416   0.00000  Uiso   1.00
N42    N     0.09157   0.41186   0.79446   0.00000  Uiso   1.00
N43    N     0.09332   0.28509   0.46909   0.00000  Uiso   1.00
N44    N     0.52666   0.36818   0.04878   0.00000  Uiso   1.00
N45    N     0.06174   0.28608   0.74907   0.00000  Uiso   1.00
N46    N     0.06349   0.15930   0.42371   0.00000  Uiso   1.00
C47    C     0.59195   0.84174   0.12327   0.00000  Uiso   1.00
C48    C     0.59902   0.92604   0.10418   0.00000  Uiso   1.00
C49    C     0.53489   0.94346   0.11338   0.00000  Uiso   1.00
C50    C     0.55397   0.02445   0.09255   0.00000  Uiso   1.00
C51    C     0.55270   0.14602   0.06726   0.00000  Uiso   1.00
C52    C     0.62164   0.82054   0.02156   0.00000  Uiso   1.00
C53    C     0.57653   0.74925   0.96132   0.00000  Uiso   1.00
C54    C     0.61466   0.74142   0.87095   0.00000  Uiso   1.00
C55    C     0.64854   0.69916   0.71743   0.00000  Uiso   1.00
C56    C     0.65658   0.85597   0.20749   0.00000  Uiso   1.00
C57    C     0.64085   0.81446   0.30358   0.00000  Uiso   1.00
C58    C     0.70839   0.83645   0.36974   0.00000  Uiso   1.00
C59    C     0.79652   0.84920   0.50492   0.00000  Uiso   1.00
C60    C     0.73988   0.95458   0.06990   0.00000  Uiso   1.00
C61    C     0.67937   0.98733   0.07518   0.00000  Uiso   1.00
C62    C     0.69855   0.06832   0.05433   0.00000  Uiso   1.00
C63    C     0.63446   0.08586   0.06351   0.00000  Uiso   1.00
C64    C     0.70199   0.88183   0.99257   0.00000  Uiso   1.00
C65    C     0.74019   0.87410   0.90227   0.00000  Uiso   1.00
C66    C     0.69516   0.80283   0.84190   0.00000  Uiso   1.00
C67    C     0.73692   0.91726   0.17851   0.00000  Uiso   1.00
C68    C     0.80451   0.93931   0.24453   0.00000  Uiso   1.00
C69    C     0.78889   0.89785   0.34070   0.00000  Uiso   1.00
H70    H     0.52940   0.79402   0.14584   0.00000  Uiso   1.00
H71    H     0.47271   0.89601   0.13581   0.00000  Uiso   1.00
H72    H     0.51436   0.70183   0.98378   0.00000  Uiso   1.00
H73    H     0.57866   0.76703   0.32599   0.00000  Uiso   1.00
H74    H     0.44529   0.03611   0.11188   0.00000  Uiso   1.00
H75    H     0.53311   0.62665   0.79132   0.00000  Uiso   1.00
H76    H     0.66871   0.76414   0.51294   0.00000  Uiso   1.00
H77    H     0.80244   0.00230   0.04733   0.00000  Uiso   1.00
H78    H     0.76073   0.11573   0.03190   0.00000  Uiso   1.00
H79    H     0.80237   0.92154   0.87986   0.00000  Uiso   1.00
H80    H     0.86668   0.98675   0.22207   0.00000  Uiso   1.00
H81    H     0.67906   0.21445   0.02753   0.00000  Uiso   1.00
H82    H     0.76688   0.80498   0.70698   0.00000  Uiso   1.00
H83    H     0.90247   0.94248   0.42859   0.00000  Uiso   1.00
O84    O     0.52981   0.19613   0.06130   0.00000  Uiso   1.00
O85    O     0.64503   0.65892   0.64076   0.00000  Uiso   1.00
O86    O     0.82292   0.83931   0.58750   0.00000  Uiso   1.00
N87    N     0.50603   0.06252   0.09416   0.00000  Uiso   1.00
N88    N     0.58814   0.67970   0.79446   0.00000  Uiso   1.00
N89    N     0.71491   0.80823   0.46909   0.00000  Uiso   1.00
N90    N     0.63182   0.15848   0.04878   0.00000  Uiso   1.00
N91    N     0.71392   0.77566   0.74907   0.00000  Uiso   1.00
N92    N     0.84070   0.90419   0.42371   0.00000  Uiso   1.00
C93    C     0.15826   0.75022   0.12327   0.00000  Uiso   1.00
C94    C     0.07396   0.67298   0.10418   0.00000  Uiso   1.00
C95    C     0.05654   0.59142   0.11338   0.00000  Uiso   1.00
C96    C     0.97555   0.52951   0.09255   0.00000  Uiso   1.00
C97    C     0.85398   0.40668   0.06726   0.00000  Uiso   1.00
C98    C     0.17946   0.80110   0.02156   0.00000  Uiso   1.00
C99    C     0.25075   0.82728   0.96132   0.00000  Uiso   1.00
C100   C     0.25858   0.87324   0.87095   0.00000  Uiso   1.00
C101   C     0.30084   0.94938   0.71743   0.00000  Uiso   1.00
C102   C     0.14403   0.80061   0.20749   0.00000  Uiso   1.00
C103   C     0.18554   0.82639   0.30358   0.00000  Uiso   1.00
C104   C     0.16355   0.87195   0.36974   0.00000  Uiso   1.00
C105   C     0.15080   0.94731   0.50492   0.00000  Uiso   1.00
C106   C     0.04542   0.78530   0.06990   0.00000  Uiso   1.00
C107   C     0.01267   0.69204   0.07518   0.00000  Uiso   1.00
C108   C     0.93168   0.63023   0.05433   0.00000  Uiso   1.00
C109   C     0.91414   0.54860   0.06351   0.00000  Uiso   1.00
C110   C     0.11817   0.82016   0.99257   0.00000  Uiso   1.00
C111   C     0.12590   0.86609   0.90227   0.00000  Uiso   1.00
C112   C     0.19717   0.89233   0.84190   0.00000  Uiso   1.00
C113   C     0.08274   0.81966   0.17851   0.00000  Uiso   1.00
C114   C     0.06069   0.86519   0.24453   0.00000  Uiso   1.00
C115   C     0.10215   0.89104   0.34070   0.00000  Uiso   1.00
H116   H     0.20598   0.73539   0.14584   0.00000  Uiso   1.00
H117   H     0.10399   0.57670   0.13581   0.00000  Uiso   1.00
H118   H     0.29817   0.81253   0.98378   0.00000  Uiso   1.00
H119   H     0.23297   0.81163   0.32599   0.00000  Uiso   1.00
H120   H     0.96389   0.40918   0.11188   0.00000  Uiso   1.00
H121   H     0.37335   0.90646   0.79132   0.00000  Uiso   1.00
H122   H     0.23586   0.90457   0.51294   0.00000  Uiso   1.00
H123   H     0.99770   0.80013   0.04733   0.00000  Uiso   1.00
H124   H     0.88427   0.64500   0.03190   0.00000  Uiso   1.00
H125   H     0.07846   0.88083   0.87986   0.00000  Uiso   1.00
H126   H     0.01325   0.87993   0.22207   0.00000  Uiso   1.00
H127   H     0.78555   0.46461   0.02753   0.00000  Uiso   1.00
H128   H     0.19502   0.96190   0.70698   0.00000  Uiso   1.00
H129   H     0.05752   0.96000   0.42859   0.00000  Uiso   1.00
O130   O     0.80387   0.33367   0.06130   0.00000  Uiso   1.00
O131   O     0.34108   0.98610   0.64076   0.00000  Uiso   1.00
O132   O     0.16069   0.98361   0.58750   0.00000  Uiso   1.00
N133   N     0.93748   0.44351   0.09416   0.00000  Uiso   1.00
N134   N     0.32030   0.90843   0.79446   0.00000  Uiso   1.00
N135   N     0.19177   0.90668   0.46909   0.00000  Uiso   1.00
N136   N     0.84152   0.47334   0.04878   0.00000  Uiso   1.00
N137   N     0.22434   0.93826   0.74907   0.00000  Uiso   1.00
N138   N     0.09581   0.93651   0.42371   0.00000  Uiso   1.00
C139   C     0.40805   0.24978   0.62327   0.00000  Uiso   1.00
C140   C     0.40098   0.32702   0.60418   0.00000  Uiso   1.00
C141   C     0.46511   0.40858   0.61338   0.00000  Uiso   1.00
C142   C     0.44603   0.47049   0.59255   0.00000  Uiso   1.00
C143   C     0.44730   0.59332   0.56726   0.00000  Uiso   1.00
C144   C     0.37836   0.19890   0.52156   0.00000  Uiso   1.00
C145   C     0.42347   0.17272   0.46132   0.00000  Uiso   1.00
C146   C     0.38534   0.12676   0.37095   0.00000  Uiso   1.00
C147   C     0.35146   0.05062   0.21743   0.00000  Uiso   1.00
C148   C     0.34342   0.19939   0.70749   0.00000  Uiso   1.00
C149   C     0.35915   0.17361   0.80358   0.00000  Uiso   1.00
C150   C     0.29161   0.12805   0.86974   0.00000  Uiso   1.00
C151   C     0.20348   0.05269   0.00492   0.00000  Uiso   1.00
C152   C     0.26012   0.21470   0.56990   0.00000  Uiso   1.00
C153   C     0.32063   0.30796   0.57518   0.00000  Uiso   1.00
C154   C     0.30145   0.36977   0.55433   0.00000  Uiso   1.00
C155   C     0.36554   0.45140   0.56351   0.00000  Uiso   1.00
C156   C     0.29801   0.17984   0.49257   0.00000  Uiso   1.00
C157   C     0.25981   0.13391   0.40227   0.00000  Uiso   1.00
C158   C     0.30484   0.10767   0.34190   0.00000  Uiso   1.00
C159   C     0.26308   0.18034   0.67851   0.00000  Uiso   1.00
C160   C     0.19549   0.13481   0.74453   0.00000  Uiso   1.00
C161   C     0.21111   0.10896   0.84070   0.00000  Uiso   1.00
H162   H     0.47060   0.26461   0.64584   0.00000  Uiso   1.00
H163   H     0.52729   0.42330   0.63581   0.00000  Uiso   1.00
H164   H     0.48564   0.18747   0.48378   0.00000  Uiso   1.00
H165   H     0.42134   0.18837   0.82599   0.00000  Uiso   1.00
H166   H     0.55471   0.59082   0.61188   0.00000  Uiso   1.00
H167   H     0.46689   0.09354   0.29132   0.00000  Uiso   1.00
H168   H     0.33129   0.09543   0.01294   0.00000  Uiso   1.00
H169   H     0.19756   0.19987   0.54733   0.00000  Uiso   1.00
H170   H     0.23927   0.35500   0.53190   0.00000  Uiso   1.00
H171   H     0.19763   0.11917   0.37986   0.00000  Uiso   1.00
H172   H     0.13332   0.12007   0.72207   0.00000  Uiso   1.00
H173   H     0.32094   0.53539   0.52753   0.00000  Uiso   1.00
H174   H     0.23312   0.03810   0.20698   0.00000  Uiso   1.00
H175   H     0.09753   0.04000   0.92859   0.00000  Uiso   1.00
O176   O     0.47019   0.66633   0.56130   0.00000  Uiso   1.00
O177   O     0.35497   0.01390   0.14076   0.00000  Uiso   1.00
O178   O     0.17708   0.01639   0.08750   0.00000  Uiso   1.00
N179   N     0.49397   0.55649   0.59416   0.00000  Uiso   1.00
N180   N     0.41186   0.09157   0.29446   0.00000  Uiso   1.00
N181   N     0.28509   0.09332   0.96909   0.00000  Uiso   1.00
N182   N     0.36818   0.52666   0.54878   0.00000  Uiso   1.00
N183   N     0.28608   0.06174   0.24907   0.00000  Uiso   1.00
N184   N     0.15930   0.06349   0.92371   0.00000  Uiso   1.00
C185   C     0.84174   0.59195   0.62327   0.00000  Uiso   1.00
C186   C     0.92604   0.59902   0.60418   0.00000  Uiso   1.00
C187   C     0.94346   0.53489   0.61338   0.00000  Uiso   1.00
C188   C     0.02445   0.55397   0.59255   0.00000  Uiso   1.00
C189   C     0.14602   0.55270   0.56726   0.00000  Uiso   1.00
C190   C     0.82054   0.62164   0.52156   0.00000  Uiso   1.00
C191   C     0.74925   0.57653   0.46132   0.00000  Uiso   1.00
C192   C     0.74142   0.61466   0.37095   0.00000  Uiso   1.00
C193   C     0.69916   0.64854   0.21743   0.00000  Uiso   1.00
C194   C     0.85597   0.65658   0.70749   0.00000  Uiso   1.00
C195   C     0.81446   0.64085   0.80358   0.00000  Uiso   1.00
C196   C     0.83645   0.70839   0.86974   0.00000  Uiso   1.00
C197   C     0.84920   0.79652   0.00492   0.00000  Uiso   1.00
C198   C     0.95458   0.73988   0.56990   0.00000  Uiso   1.00
C199   C     0.98733   0.67937   0.57518   0.00000  Uiso   1.00
C200   C     0.06832   0.69855   0.55433   0.00000  Uiso   1.00
C201   C     0.08586   0.63446   0.56351   0.00000  Uiso   1.00
C202   C     0.88183   0.70199   0.49257   0.00000  Uiso   1.00
C203   C     0.87410   0.74019   0.40227   0.00000  Uiso   1.00
C204   C     0.80283   0.69516   0.34190   0.00000  Uiso   1.00
C205   C     0.91726   0.73692   0.67851   0.00000  Uiso   1.00
C206   C     0.93931   0.80451   0.74453   0.00000  Uiso   1.00
C207   C     0.89785   0.78889   0.84070   0.00000  Uiso   1.00
H208   H     0.79402   0.52940   0.64584   0.00000  Uiso   1.00
H209   H     0.89601   0.47271   0.63581   0.00000  Uiso   1.00
H210   H     0.70183   0.51436   0.48378   0.00000  Uiso   1.00
H211   H     0.76703   0.57866   0.82599   0.00000  Uiso   1.00
H212   H     0.03611   0.44529   0.61188   0.00000  Uiso   1.00
H213   H     0.62665   0.53311   0.29132   0.00000  Uiso   1.00
H214   H     0.76414   0.66871   0.01294   0.00000  Uiso   1.00
H215   H     0.00230   0.80244   0.54733   0.00000  Uiso   1.00
H216   H     0.11573   0.76073   0.53190   0.00000  Uiso   1.00
H217   H     0.92154   0.80237   0.37986   0.00000  Uiso   1.00
H218   H     0.98675   0.86668   0.72207   0.00000  Uiso   1.00
H219   H     0.21445   0.67906   0.52753   0.00000  Uiso   1.00
H220   H     0.80498   0.76688   0.20698   0.00000  Uiso   1.00
H221   H     0.94248   0.90247   0.92859   0.00000  Uiso   1.00
O222   O     0.19613   0.52981   0.56130   0.00000  Uiso   1.00
O223   O     0.65892   0.64503   0.14076   0.00000  Uiso   1.00
O224   O     0.83931   0.82292   0.08750   0.00000  Uiso   1.00
N225   N     0.06252   0.50603   0.59416   0.00000  Uiso   1.00
N226   N     0.67970   0.58814   0.29446   0.00000  Uiso   1.00
N227   N     0.80823   0.71491   0.96909   0.00000  Uiso   1.00
N228   N     0.15848   0.63182   0.54878   0.00000  Uiso   1.00
N229   N     0.77566   0.71392   0.24907   0.00000  Uiso   1.00
N230   N     0.90419   0.84070   0.92371   0.00000  Uiso   1.00
C231   C     0.75022   0.15826   0.62327   0.00000  Uiso   1.00
C232   C     0.67298   0.07396   0.60418   0.00000  Uiso   1.00
C233   C     0.59142   0.05654   0.61338   0.00000  Uiso   1.00
C234   C     0.52951   0.97555   0.59255   0.00000  Uiso   1.00
C235   C     0.40668   0.85398   0.56726   0.00000  Uiso   1.00
C236   C     0.80110   0.17946   0.52156   0.00000  Uiso   1.00
C237   C     0.82728   0.25075   0.46132   0.00000  Uiso   1.00
C238   C     0.87324   0.25858   0.37095   0.00000  Uiso   1.00
C239   C     0.94938   0.30084   0.21743   0.00000  Uiso   1.00
C240   C     0.80061   0.14403   0.70749   0.00000  Uiso   1.00
C241   C     0.82639   0.18554   0.80358   0.00000  Uiso   1.00
C242   C     0.87195   0.16355   0.86974   0.00000  Uiso   1.00
C243   C     0.94731   0.15080   0.00492   0.00000  Uiso   1.00
C244   C     0.78530   0.04542   0.56990   0.00000  Uiso   1.00
C245   C     0.69204   0.01267   0.57518   0.00000  Uiso   1.00
C246   C     0.63023   0.93168   0.55433   0.00000  Uiso   1.00
C247   C     0.54860   0.91414   0.56351   0.00000  Uiso   1.00
C248   C     0.82016   0.11817   0.49257   0.00000  Uiso   1.00
C249   C     0.86609   0.12590   0.40227   0.00000  Uiso   1.00
C250   C     0.89233   0.19717   0.34190   0.00000  Uiso   1.00
C251   C     0.81966   0.08274   0.67851   0.00000  Uiso   1.00
C252   C     0.86519   0.06069   0.74453   0.00000  Uiso   1.00
C253   C     0.89104   0.10215   0.84070   0.00000  Uiso   1.00
H254   H     0.73539   0.20598   0.64584   0.00000  Uiso   1.00
H255   H     0.57670   0.10399   0.63581   0.00000  Uiso   1.00
H256   H     0.81253   0.29817   0.48378   0.00000  Uiso   1.00
H257   H     0.81163   0.23297   0.82599   0.00000  Uiso   1.00
H258   H     0.40918   0.96389   0.61188   0.00000  Uiso   1.00
H259   H     0.90646   0.37335   0.29132   0.00000  Uiso   1.00
H260   H     0.90457   0.23586   0.01294   0.00000  Uiso   1.00
H261   H     0.80013   0.99770   0.54733   0.00000  Uiso   1.00
H262   H     0.64500   0.88427   0.53190   0.00000  Uiso   1.00
H263   H     0.88083   0.07846   0.37986   0.00000  Uiso   1.00
H264   H     0.87993   0.01325   0.72207   0.00000  Uiso   1.00
H265   H     0.46461   0.78555   0.52753   0.00000  Uiso   1.00
H266   H     0.96190   0.19502   0.20698   0.00000  Uiso   1.00
H267   H     0.96000   0.05752   0.92859   0.00000  Uiso   1.00
O268   O     0.33367   0.80387   0.56130   0.00000  Uiso   1.00
O269   O     0.98610   0.34108   0.14076   0.00000  Uiso   1.00
O270   O     0.98361   0.16069   0.08750   0.00000  Uiso   1.00
N271   N     0.44351   0.93748   0.59416   0.00000  Uiso   1.00
N272   N     0.90843   0.32030   0.29446   0.00000  Uiso   1.00
N273   N     0.90668   0.19177   0.96909   0.00000  Uiso   1.00
N274   N     0.47334   0.84152   0.54878   0.00000  Uiso   1.00
N275   N     0.93826   0.22434   0.24907   0.00000  Uiso   1.00
N276   N     0.93651   0.09581   0.92371   0.00000  Uiso   1.00
