data_job_03391
_audit_creation_date              2018-12-19
_audit_creation_method            'Materials Studio'
_symmetry_space_group_name_H-M    'P1'
_symmetry_Int_Tables_number       1
_symmetry_cell_setting            triclinic
loop_
_symmetry_equiv_pos_as_xyz
  x,y,z
_cell_length_a                    11.0975
_cell_length_b                    27.1117
_cell_length_c                    23.7855
_cell_angle_alpha                 90.0000
_cell_angle_beta                  90.0000
_cell_angle_gamma                 90.0000
loop_
_atom_site_label
_atom_site_type_symbol
_atom_site_fract_x
_atom_site_fract_y
_atom_site_fract_z
_atom_site_U_iso_or_equiv
_atom_site_adp_type
_atom_site_occupancy
C1     C     0.82923   0.61915   0.48071   0.00000  Uiso   1.00
C2     C     0.80613   0.60972   0.54299   0.00000  Uiso   1.00
C3     C     0.89273   0.59722   0.58259   0.00000  Uiso   1.00
C4     C     0.85341   0.59013   0.63741   0.00000  Uiso   1.00
C5     C     0.83604   0.57467   0.73189   0.00000  Uiso   1.00
C6     C     0.74741   0.58361   0.44888   0.00000  Uiso   1.00
C7     C     0.78464   0.54917   0.40937   0.00000  Uiso   1.00
C8     C     0.69588   0.52011   0.38497   0.00000  Uiso   1.00
C9     C     0.58733   0.46414   0.33332   0.00000  Uiso   1.00
C10    C     0.78075   0.67071   0.46870   0.00000  Uiso   1.00
C11    C     0.84600   0.70950   0.44583   0.00000  Uiso   1.00
C12    C     0.78530   0.75377   0.43810   0.00000  Uiso   1.00
C13    C     0.72852   0.83303   0.41722   0.00000  Uiso   1.00
C14    C     0.60541   0.62879   0.50763   0.00000  Uiso   1.00
C15    C     0.68456   0.61495   0.55761   0.00000  Uiso   1.00
C16    C     0.64510   0.60788   0.61238   0.00000  Uiso   1.00
C17    C     0.73163   0.59538   0.65207   0.00000  Uiso   1.00
C18    C     0.62585   0.58885   0.46351   0.00000  Uiso   1.00
C19    C     0.53701   0.55983   0.43916   0.00000  Uiso   1.00
C20    C     0.57409   0.52535   0.39962   0.00000  Uiso   1.00
C21    C     0.65918   0.67595   0.48332   0.00000  Uiso   1.00
C22    C     0.59837   0.72016   0.47562   0.00000  Uiso   1.00
C23    C     0.66351   0.75901   0.45275   0.00000  Uiso   1.00
H24    H     0.92387   0.61507   0.46932   0.00000  Uiso   1.00
H25    H     0.98680   0.59317   0.57126   0.00000  Uiso   1.00
H26    H     0.87872   0.54513   0.39805   0.00000  Uiso   1.00
H27    H     0.94007   0.70544   0.43452   0.00000  Uiso   1.00
H28    H     0.00295   0.57118   0.69072   0.00000  Uiso   1.00
H29    H     0.77506   0.46990   0.32550   0.00000  Uiso   1.00
H30    H     0.90443   0.80793   0.40238   0.00000  Uiso   1.00
H31    H     0.51076   0.63286   0.51902   0.00000  Uiso   1.00
H32    H     0.55102   0.61194   0.62369   0.00000  Uiso   1.00
H33    H     0.44294   0.56390   0.45048   0.00000  Uiso   1.00
H34    H     0.50429   0.72420   0.48695   0.00000  Uiso   1.00
H35    H     0.64926   0.58640   0.73328   0.00000  Uiso   1.00
H36    H     0.42136   0.48513   0.36805   0.00000  Uiso   1.00
H37    H     0.55073   0.82316   0.44494   0.00000  Uiso   1.00
O38    O     0.86004   0.56469   0.77996   0.00000  Uiso   1.00
O39    O     0.56105   0.43182   0.30079   0.00000  Uiso   1.00
O40    O     0.73078   0.87531   0.40166   0.00000  Uiso   1.00
N41    N     0.91419   0.57764   0.68638   0.00000  Uiso   1.00
N42    N     0.70112   0.48295   0.34492   0.00000  Uiso   1.00
N43    N     0.82206   0.79898   0.41679   0.00000  Uiso   1.00
N44    N     0.72387   0.58584   0.70928   0.00000  Uiso   1.00
N45    N     0.51080   0.49114   0.36782   0.00000  Uiso   1.00
N46    N     0.63174   0.80717   0.43969   0.00000  Uiso   1.00
C47    C     0.67077   0.88085   0.98071   0.00000  Uiso   1.00
C48    C     0.69387   0.89028   0.04299   0.00000  Uiso   1.00
C49    C     0.60727   0.90278   0.08259   0.00000  Uiso   1.00
C50    C     0.64659   0.90987   0.13741   0.00000  Uiso   1.00
C51    C     0.66396   0.92533   0.23189   0.00000  Uiso   1.00
C52    C     0.75259   0.91639   0.94888   0.00000  Uiso   1.00
C53    C     0.71536   0.95083   0.90937   0.00000  Uiso   1.00
C54    C     0.80412   0.97989   0.88497   0.00000  Uiso   1.00
C55    C     0.91267   0.03586   0.83332   0.00000  Uiso   1.00
C56    C     0.71925   0.82929   0.96870   0.00000  Uiso   1.00
C57    C     0.65400   0.79050   0.94583   0.00000  Uiso   1.00
C58    C     0.71470   0.74623   0.93810   0.00000  Uiso   1.00
C59    C     0.77148   0.66697   0.91722   0.00000  Uiso   1.00
C60    C     0.89459   0.87121   0.00763   0.00000  Uiso   1.00
C61    C     0.81544   0.88505   0.05761   0.00000  Uiso   1.00
C62    C     0.85490   0.89212   0.11238   0.00000  Uiso   1.00
C63    C     0.76837   0.90462   0.15207   0.00000  Uiso   1.00
C64    C     0.87415   0.91115   0.96351   0.00000  Uiso   1.00
C65    C     0.96299   0.94017   0.93916   0.00000  Uiso   1.00
C66    C     0.92591   0.97465   0.89962   0.00000  Uiso   1.00
C67    C     0.84082   0.82405   0.98332   0.00000  Uiso   1.00
C68    C     0.90163   0.77984   0.97562   0.00000  Uiso   1.00
C69    C     0.83649   0.74099   0.95275   0.00000  Uiso   1.00
H70    H     0.57613   0.88493   0.96932   0.00000  Uiso   1.00
H71    H     0.51320   0.90683   0.07126   0.00000  Uiso   1.00
H72    H     0.62128   0.95487   0.89805   0.00000  Uiso   1.00
H73    H     0.55993   0.79456   0.93452   0.00000  Uiso   1.00
H74    H     0.49705   0.92882   0.19072   0.00000  Uiso   1.00
H75    H     0.72494   0.03010   0.82550   0.00000  Uiso   1.00
H76    H     0.59557   0.69207   0.90238   0.00000  Uiso   1.00
H77    H     0.98924   0.86714   0.01902   0.00000  Uiso   1.00
H78    H     0.94898   0.88806   0.12369   0.00000  Uiso   1.00
H79    H     0.05706   0.93610   0.95048   0.00000  Uiso   1.00
H80    H     0.99571   0.77580   0.98695   0.00000  Uiso   1.00
H81    H     0.85074   0.91360   0.23328   0.00000  Uiso   1.00
H82    H     0.07864   0.01487   0.86805   0.00000  Uiso   1.00
H83    H     0.94927   0.67684   0.94494   0.00000  Uiso   1.00
O84    O     0.63996   0.93531   0.27996   0.00000  Uiso   1.00
O85    O     0.93895   0.06818   0.80079   0.00000  Uiso   1.00
O86    O     0.76922   0.62469   0.90166   0.00000  Uiso   1.00
N87    N     0.58581   0.92236   0.18638   0.00000  Uiso   1.00
N88    N     0.79888   0.01705   0.84492   0.00000  Uiso   1.00
N89    N     0.67794   0.70102   0.91679   0.00000  Uiso   1.00
N90    N     0.77613   0.91416   0.20928   0.00000  Uiso   1.00
N91    N     0.98920   0.00886   0.86782   0.00000  Uiso   1.00
N92    N     0.86826   0.69283   0.93969   0.00000  Uiso   1.00
C93    C     0.17077   0.61915   0.01929   0.00000  Uiso   1.00
C94    C     0.19387   0.60972   0.95701   0.00000  Uiso   1.00
C95    C     0.10727   0.59722   0.91741   0.00000  Uiso   1.00
C96    C     0.14659   0.59013   0.86259   0.00000  Uiso   1.00
C97    C     0.16396   0.57467   0.76811   0.00000  Uiso   1.00
C98    C     0.25259   0.58361   0.05112   0.00000  Uiso   1.00
C99    C     0.21536   0.54917   0.09063   0.00000  Uiso   1.00
C100   C     0.30412   0.52011   0.11503   0.00000  Uiso   1.00
C101   C     0.41267   0.46414   0.16668   0.00000  Uiso   1.00
C102   C     0.21925   0.67071   0.03130   0.00000  Uiso   1.00
C103   C     0.15400   0.70950   0.05417   0.00000  Uiso   1.00
C104   C     0.21470   0.75377   0.06190   0.00000  Uiso   1.00
C105   C     0.27148   0.83303   0.08278   0.00000  Uiso   1.00
C106   C     0.39459   0.62879   0.99237   0.00000  Uiso   1.00
C107   C     0.31544   0.61495   0.94239   0.00000  Uiso   1.00
C108   C     0.35490   0.60788   0.88762   0.00000  Uiso   1.00
C109   C     0.26837   0.59538   0.84793   0.00000  Uiso   1.00
C110   C     0.37415   0.58885   0.03649   0.00000  Uiso   1.00
C111   C     0.46299   0.55983   0.06084   0.00000  Uiso   1.00
C112   C     0.42591   0.52535   0.10038   0.00000  Uiso   1.00
C113   C     0.34082   0.67595   0.01668   0.00000  Uiso   1.00
C114   C     0.40163   0.72016   0.02438   0.00000  Uiso   1.00
C115   C     0.33649   0.75901   0.04725   0.00000  Uiso   1.00
H116   H     0.07613   0.61507   0.03068   0.00000  Uiso   1.00
H117   H     0.01320   0.59317   0.92874   0.00000  Uiso   1.00
H118   H     0.12128   0.54513   0.10195   0.00000  Uiso   1.00
H119   H     0.05993   0.70544   0.06548   0.00000  Uiso   1.00
H120   H     0.99705   0.57118   0.80928   0.00000  Uiso   1.00
H121   H     0.22494   0.46990   0.17450   0.00000  Uiso   1.00
H122   H     0.09557   0.80793   0.09762   0.00000  Uiso   1.00
H123   H     0.48924   0.63286   0.98098   0.00000  Uiso   1.00
H124   H     0.44898   0.61194   0.87631   0.00000  Uiso   1.00
H125   H     0.55706   0.56390   0.04952   0.00000  Uiso   1.00
H126   H     0.49571   0.72420   0.01305   0.00000  Uiso   1.00
H127   H     0.35074   0.58640   0.76672   0.00000  Uiso   1.00
H128   H     0.57864   0.48513   0.13195   0.00000  Uiso   1.00
H129   H     0.44927   0.82316   0.05506   0.00000  Uiso   1.00
O130   O     0.13996   0.56469   0.72004   0.00000  Uiso   1.00
O131   O     0.43895   0.43182   0.19921   0.00000  Uiso   1.00
O132   O     0.26922   0.87531   0.09834   0.00000  Uiso   1.00
N133   N     0.08581   0.57764   0.81362   0.00000  Uiso   1.00
N134   N     0.29888   0.48295   0.15508   0.00000  Uiso   1.00
N135   N     0.17794   0.79898   0.08321   0.00000  Uiso   1.00
N136   N     0.27613   0.58584   0.79072   0.00000  Uiso   1.00
N137   N     0.48920   0.49114   0.13218   0.00000  Uiso   1.00
N138   N     0.36826   0.80717   0.06031   0.00000  Uiso   1.00
C139   C     0.32923   0.88085   0.51929   0.00000  Uiso   1.00
C140   C     0.30613   0.89028   0.45701   0.00000  Uiso   1.00
C141   C     0.39273   0.90278   0.41741   0.00000  Uiso   1.00
C142   C     0.35341   0.90987   0.36259   0.00000  Uiso   1.00
C143   C     0.33604   0.92533   0.26811   0.00000  Uiso   1.00
C144   C     0.24741   0.91639   0.55112   0.00000  Uiso   1.00
C145   C     0.28464   0.95083   0.59063   0.00000  Uiso   1.00
C146   C     0.19588   0.97989   0.61503   0.00000  Uiso   1.00
C147   C     0.08733   0.03586   0.66668   0.00000  Uiso   1.00
C148   C     0.28075   0.82929   0.53130   0.00000  Uiso   1.00
C149   C     0.34600   0.79050   0.55417   0.00000  Uiso   1.00
C150   C     0.28530   0.74623   0.56190   0.00000  Uiso   1.00
C151   C     0.22852   0.66697   0.58278   0.00000  Uiso   1.00
C152   C     0.10541   0.87121   0.49237   0.00000  Uiso   1.00
C153   C     0.18456   0.88505   0.44239   0.00000  Uiso   1.00
C154   C     0.14510   0.89212   0.38762   0.00000  Uiso   1.00
C155   C     0.23163   0.90462   0.34793   0.00000  Uiso   1.00
C156   C     0.12585   0.91115   0.53649   0.00000  Uiso   1.00
C157   C     0.03701   0.94017   0.56084   0.00000  Uiso   1.00
C158   C     0.07409   0.97465   0.60038   0.00000  Uiso   1.00
C159   C     0.15918   0.82405   0.51668   0.00000  Uiso   1.00
C160   C     0.09837   0.77984   0.52438   0.00000  Uiso   1.00
C161   C     0.16351   0.74099   0.54725   0.00000  Uiso   1.00
H162   H     0.42387   0.88493   0.53068   0.00000  Uiso   1.00
H163   H     0.48680   0.90683   0.42874   0.00000  Uiso   1.00
H164   H     0.37872   0.95487   0.60195   0.00000  Uiso   1.00
H165   H     0.44007   0.79456   0.56548   0.00000  Uiso   1.00
H166   H     0.50295   0.92882   0.30928   0.00000  Uiso   1.00
H167   H     0.27506   0.03010   0.67450   0.00000  Uiso   1.00
H168   H     0.40443   0.69207   0.59762   0.00000  Uiso   1.00
H169   H     0.01076   0.86714   0.48098   0.00000  Uiso   1.00
H170   H     0.05102   0.88806   0.37631   0.00000  Uiso   1.00
H171   H     0.94294   0.93610   0.54952   0.00000  Uiso   1.00
H172   H     0.00429   0.77580   0.51305   0.00000  Uiso   1.00
H173   H     0.14926   0.91360   0.26672   0.00000  Uiso   1.00
H174   H     0.92136   0.01487   0.63195   0.00000  Uiso   1.00
H175   H     0.05073   0.67684   0.55506   0.00000  Uiso   1.00
O176   O     0.36004   0.93531   0.22004   0.00000  Uiso   1.00
O177   O     0.06105   0.06818   0.69921   0.00000  Uiso   1.00
O178   O     0.23078   0.62469   0.59834   0.00000  Uiso   1.00
N179   N     0.41419   0.92236   0.31362   0.00000  Uiso   1.00
N180   N     0.20112   0.01705   0.65508   0.00000  Uiso   1.00
N181   N     0.32206   0.70102   0.58321   0.00000  Uiso   1.00
N182   N     0.22387   0.91416   0.29072   0.00000  Uiso   1.00
N183   N     0.01080   0.00886   0.63218   0.00000  Uiso   1.00
N184   N     0.13174   0.69283   0.56031   0.00000  Uiso   1.00
C185   C     0.17077   0.38085   0.51929   0.00000  Uiso   1.00
C186   C     0.19387   0.39028   0.45701   0.00000  Uiso   1.00
C187   C     0.10727   0.40278   0.41741   0.00000  Uiso   1.00
C188   C     0.14659   0.40987   0.36259   0.00000  Uiso   1.00
C189   C     0.16396   0.42533   0.26811   0.00000  Uiso   1.00
C190   C     0.25259   0.41639   0.55112   0.00000  Uiso   1.00
C191   C     0.21536   0.45083   0.59063   0.00000  Uiso   1.00
C192   C     0.30412   0.47989   0.61503   0.00000  Uiso   1.00
C193   C     0.41267   0.53586   0.66668   0.00000  Uiso   1.00
C194   C     0.21925   0.32929   0.53130   0.00000  Uiso   1.00
C195   C     0.15400   0.29050   0.55417   0.00000  Uiso   1.00
C196   C     0.21470   0.24623   0.56190   0.00000  Uiso   1.00
C197   C     0.27148   0.16697   0.58278   0.00000  Uiso   1.00
C198   C     0.39459   0.37121   0.49237   0.00000  Uiso   1.00
C199   C     0.31544   0.38505   0.44239   0.00000  Uiso   1.00
C200   C     0.35490   0.39212   0.38762   0.00000  Uiso   1.00
C201   C     0.26837   0.40462   0.34793   0.00000  Uiso   1.00
C202   C     0.37415   0.41115   0.53649   0.00000  Uiso   1.00
C203   C     0.46299   0.44017   0.56084   0.00000  Uiso   1.00
C204   C     0.42591   0.47465   0.60038   0.00000  Uiso   1.00
C205   C     0.34082   0.32405   0.51668   0.00000  Uiso   1.00
C206   C     0.40163   0.27984   0.52438   0.00000  Uiso   1.00
C207   C     0.33649   0.24099   0.54725   0.00000  Uiso   1.00
H208   H     0.07613   0.38493   0.53068   0.00000  Uiso   1.00
H209   H     0.01320   0.40683   0.42874   0.00000  Uiso   1.00
H210   H     0.12128   0.45487   0.60195   0.00000  Uiso   1.00
H211   H     0.05993   0.29456   0.56548   0.00000  Uiso   1.00
H212   H     0.99705   0.42882   0.30928   0.00000  Uiso   1.00
H213   H     0.22494   0.53010   0.67450   0.00000  Uiso   1.00
H214   H     0.09557   0.19207   0.59762   0.00000  Uiso   1.00
H215   H     0.48924   0.36714   0.48098   0.00000  Uiso   1.00
H216   H     0.44898   0.38806   0.37631   0.00000  Uiso   1.00
H217   H     0.55706   0.43610   0.54952   0.00000  Uiso   1.00
H218   H     0.49571   0.27580   0.51305   0.00000  Uiso   1.00
H219   H     0.35074   0.41360   0.26672   0.00000  Uiso   1.00
H220   H     0.57864   0.51487   0.63195   0.00000  Uiso   1.00
H221   H     0.44927   0.17684   0.55506   0.00000  Uiso   1.00
O222   O     0.13996   0.43531   0.22004   0.00000  Uiso   1.00
O223   O     0.43895   0.56818   0.69921   0.00000  Uiso   1.00
O224   O     0.26922   0.12469   0.59834   0.00000  Uiso   1.00
N225   N     0.08581   0.42236   0.31362   0.00000  Uiso   1.00
N226   N     0.29888   0.51705   0.65508   0.00000  Uiso   1.00
N227   N     0.17794   0.20102   0.58321   0.00000  Uiso   1.00
N228   N     0.27613   0.41416   0.29072   0.00000  Uiso   1.00
N229   N     0.48920   0.50886   0.63218   0.00000  Uiso   1.00
N230   N     0.36826   0.19283   0.56031   0.00000  Uiso   1.00
C231   C     0.32923   0.11915   0.01929   0.00000  Uiso   1.00
C232   C     0.30613   0.10972   0.95701   0.00000  Uiso   1.00
C233   C     0.39273   0.09722   0.91741   0.00000  Uiso   1.00
C234   C     0.35341   0.09013   0.86259   0.00000  Uiso   1.00
C235   C     0.33604   0.07467   0.76811   0.00000  Uiso   1.00
C236   C     0.24741   0.08361   0.05112   0.00000  Uiso   1.00
C237   C     0.28464   0.04917   0.09063   0.00000  Uiso   1.00
C238   C     0.19588   0.02011   0.11503   0.00000  Uiso   1.00
C239   C     0.08733   0.96414   0.16668   0.00000  Uiso   1.00
C240   C     0.28075   0.17071   0.03130   0.00000  Uiso   1.00
C241   C     0.34600   0.20950   0.05417   0.00000  Uiso   1.00
C242   C     0.28530   0.25377   0.06190   0.00000  Uiso   1.00
C243   C     0.22852   0.33303   0.08278   0.00000  Uiso   1.00
C244   C     0.10541   0.12879   0.99237   0.00000  Uiso   1.00
C245   C     0.18456   0.11495   0.94239   0.00000  Uiso   1.00
C246   C     0.14510   0.10788   0.88762   0.00000  Uiso   1.00
C247   C     0.23163   0.09538   0.84793   0.00000  Uiso   1.00
C248   C     0.12585   0.08885   0.03649   0.00000  Uiso   1.00
C249   C     0.03701   0.05983   0.06084   0.00000  Uiso   1.00
C250   C     0.07409   0.02535   0.10038   0.00000  Uiso   1.00
C251   C     0.15918   0.17595   0.01668   0.00000  Uiso   1.00
C252   C     0.09837   0.22016   0.02438   0.00000  Uiso   1.00
C253   C     0.16351   0.25901   0.04725   0.00000  Uiso   1.00
H254   H     0.42387   0.11507   0.03068   0.00000  Uiso   1.00
H255   H     0.48680   0.09317   0.92874   0.00000  Uiso   1.00
H256   H     0.37872   0.04513   0.10195   0.00000  Uiso   1.00
H257   H     0.44007   0.20544   0.06548   0.00000  Uiso   1.00
H258   H     0.50295   0.07118   0.80928   0.00000  Uiso   1.00
H259   H     0.27506   0.96990   0.17450   0.00000  Uiso   1.00
H260   H     0.40443   0.30793   0.09762   0.00000  Uiso   1.00
H261   H     0.01076   0.13286   0.98098   0.00000  Uiso   1.00
H262   H     0.05102   0.11194   0.87631   0.00000  Uiso   1.00
H263   H     0.94294   0.06390   0.04952   0.00000  Uiso   1.00
H264   H     0.00429   0.22420   0.01305   0.00000  Uiso   1.00
H265   H     0.14926   0.08640   0.76672   0.00000  Uiso   1.00
H266   H     0.92136   0.98513   0.13195   0.00000  Uiso   1.00
H267   H     0.05073   0.32316   0.05506   0.00000  Uiso   1.00
O268   O     0.36004   0.06469   0.72004   0.00000  Uiso   1.00
O269   O     0.06105   0.93182   0.19921   0.00000  Uiso   1.00
O270   O     0.23078   0.37531   0.09834   0.00000  Uiso   1.00
N271   N     0.41419   0.07764   0.81362   0.00000  Uiso   1.00
N272   N     0.20112   0.98295   0.15508   0.00000  Uiso   1.00
N273   N     0.32206   0.29898   0.08321   0.00000  Uiso   1.00
N274   N     0.22387   0.08584   0.79072   0.00000  Uiso   1.00
N275   N     0.01080   0.99114   0.13218   0.00000  Uiso   1.00
N276   N     0.13174   0.30717   0.06031   0.00000  Uiso   1.00
C277   C     0.82923   0.38085   0.98071   0.00000  Uiso   1.00
C278   C     0.80613   0.39028   0.04299   0.00000  Uiso   1.00
C279   C     0.89273   0.40278   0.08259   0.00000  Uiso   1.00
C280   C     0.85341   0.40987   0.13741   0.00000  Uiso   1.00
C281   C     0.83604   0.42533   0.23189   0.00000  Uiso   1.00
C282   C     0.74741   0.41639   0.94888   0.00000  Uiso   1.00
C283   C     0.78464   0.45083   0.90937   0.00000  Uiso   1.00
C284   C     0.69588   0.47989   0.88497   0.00000  Uiso   1.00
C285   C     0.58733   0.53586   0.83332   0.00000  Uiso   1.00
C286   C     0.78075   0.32929   0.96870   0.00000  Uiso   1.00
C287   C     0.84600   0.29050   0.94583   0.00000  Uiso   1.00
C288   C     0.78530   0.24623   0.93810   0.00000  Uiso   1.00
C289   C     0.72852   0.16697   0.91722   0.00000  Uiso   1.00
C290   C     0.60541   0.37121   0.00763   0.00000  Uiso   1.00
C291   C     0.68456   0.38505   0.05761   0.00000  Uiso   1.00
C292   C     0.64510   0.39212   0.11238   0.00000  Uiso   1.00
C293   C     0.73163   0.40462   0.15207   0.00000  Uiso   1.00
C294   C     0.62585   0.41115   0.96351   0.00000  Uiso   1.00
C295   C     0.53701   0.44017   0.93916   0.00000  Uiso   1.00
C296   C     0.57409   0.47465   0.89962   0.00000  Uiso   1.00
C297   C     0.65918   0.32405   0.98332   0.00000  Uiso   1.00
C298   C     0.59837   0.27984   0.97562   0.00000  Uiso   1.00
C299   C     0.66351   0.24099   0.95275   0.00000  Uiso   1.00
H300   H     0.92387   0.38493   0.96932   0.00000  Uiso   1.00
H301   H     0.98680   0.40683   0.07126   0.00000  Uiso   1.00
H302   H     0.87872   0.45487   0.89805   0.00000  Uiso   1.00
H303   H     0.94007   0.29456   0.93452   0.00000  Uiso   1.00
H304   H     0.00295   0.42882   0.19072   0.00000  Uiso   1.00
H305   H     0.77506   0.53010   0.82550   0.00000  Uiso   1.00
H306   H     0.90443   0.19207   0.90238   0.00000  Uiso   1.00
H307   H     0.51076   0.36714   0.01902   0.00000  Uiso   1.00
H308   H     0.55102   0.38806   0.12369   0.00000  Uiso   1.00
H309   H     0.44294   0.43610   0.95048   0.00000  Uiso   1.00
H310   H     0.50429   0.27580   0.98695   0.00000  Uiso   1.00
H311   H     0.64926   0.41360   0.23328   0.00000  Uiso   1.00
H312   H     0.42136   0.51487   0.86805   0.00000  Uiso   1.00
H313   H     0.55073   0.17684   0.94494   0.00000  Uiso   1.00
O314   O     0.86004   0.43531   0.27996   0.00000  Uiso   1.00
O315   O     0.56105   0.56818   0.80079   0.00000  Uiso   1.00
O316   O     0.73078   0.12469   0.90166   0.00000  Uiso   1.00
N317   N     0.91419   0.42236   0.18638   0.00000  Uiso   1.00
N318   N     0.70112   0.51705   0.84492   0.00000  Uiso   1.00
N319   N     0.82206   0.20102   0.91679   0.00000  Uiso   1.00
N320   N     0.72387   0.41416   0.20928   0.00000  Uiso   1.00
N321   N     0.51080   0.50886   0.86782   0.00000  Uiso   1.00
N322   N     0.63174   0.19283   0.93969   0.00000  Uiso   1.00
C323   C     0.67077   0.11915   0.48071   0.00000  Uiso   1.00
C324   C     0.69387   0.10972   0.54299   0.00000  Uiso   1.00
C325   C     0.60727   0.09722   0.58259   0.00000  Uiso   1.00
C326   C     0.64659   0.09013   0.63741   0.00000  Uiso   1.00
C327   C     0.66396   0.07467   0.73189   0.00000  Uiso   1.00
C328   C     0.75259   0.08361   0.44888   0.00000  Uiso   1.00
C329   C     0.71536   0.04917   0.40937   0.00000  Uiso   1.00
C330   C     0.80412   0.02011   0.38497   0.00000  Uiso   1.00
C331   C     0.91267   0.96414   0.33332   0.00000  Uiso   1.00
C332   C     0.71925   0.17071   0.46870   0.00000  Uiso   1.00
C333   C     0.65400   0.20950   0.44583   0.00000  Uiso   1.00
C334   C     0.71470   0.25377   0.43810   0.00000  Uiso   1.00
C335   C     0.77148   0.33303   0.41722   0.00000  Uiso   1.00
C336   C     0.89459   0.12879   0.50763   0.00000  Uiso   1.00
C337   C     0.81544   0.11495   0.55761   0.00000  Uiso   1.00
C338   C     0.85490   0.10788   0.61238   0.00000  Uiso   1.00
C339   C     0.76837   0.09538   0.65207   0.00000  Uiso   1.00
C340   C     0.87415   0.08885   0.46351   0.00000  Uiso   1.00
C341   C     0.96299   0.05983   0.43916   0.00000  Uiso   1.00
C342   C     0.92591   0.02535   0.39962   0.00000  Uiso   1.00
C343   C     0.84082   0.17595   0.48332   0.00000  Uiso   1.00
C344   C     0.90163   0.22016   0.47562   0.00000  Uiso   1.00
C345   C     0.83649   0.25901   0.45275   0.00000  Uiso   1.00
H346   H     0.57613   0.11507   0.46932   0.00000  Uiso   1.00
H347   H     0.51320   0.09317   0.57126   0.00000  Uiso   1.00
H348   H     0.62128   0.04513   0.39805   0.00000  Uiso   1.00
H349   H     0.55993   0.20544   0.43452   0.00000  Uiso   1.00
H350   H     0.49705   0.07118   0.69072   0.00000  Uiso   1.00
H351   H     0.72494   0.96990   0.32550   0.00000  Uiso   1.00
H352   H     0.59557   0.30793   0.40238   0.00000  Uiso   1.00
H353   H     0.98924   0.13286   0.51902   0.00000  Uiso   1.00
H354   H     0.94898   0.11194   0.62369   0.00000  Uiso   1.00
H355   H     0.05706   0.06390   0.45048   0.00000  Uiso   1.00
H356   H     0.99571   0.22420   0.48695   0.00000  Uiso   1.00
H357   H     0.85074   0.08640   0.73328   0.00000  Uiso   1.00
H358   H     0.07864   0.98513   0.36805   0.00000  Uiso   1.00
H359   H     0.94927   0.32316   0.44494   0.00000  Uiso   1.00
O360   O     0.63996   0.06469   0.77996   0.00000  Uiso   1.00
O361   O     0.93895   0.93182   0.30079   0.00000  Uiso   1.00
O362   O     0.76922   0.37531   0.40166   0.00000  Uiso   1.00
N363   N     0.58581   0.07764   0.68638   0.00000  Uiso   1.00
N364   N     0.79888   0.98295   0.34492   0.00000  Uiso   1.00
N365   N     0.67794   0.29898   0.41679   0.00000  Uiso   1.00
N366   N     0.77613   0.08584   0.70928   0.00000  Uiso   1.00
N367   N     0.98920   0.99114   0.36782   0.00000  Uiso   1.00
N368   N     0.86826   0.30717   0.43969   0.00000  Uiso   1.00
