data_job_01547
_audit_creation_date              2018-12-19
_audit_creation_method            'Materials Studio'
_symmetry_space_group_name_H-M    'P1'
_symmetry_Int_Tables_number       1
_symmetry_cell_setting            triclinic
loop_
_symmetry_equiv_pos_as_xyz
  x,y,z
_cell_length_a                    12.4950
_cell_length_b                    21.7945
_cell_length_c                    30.8565
_cell_angle_alpha                 90.0000
_cell_angle_beta                  118.1332
_cell_angle_gamma                 90.0000
loop_
_atom_site_label
_atom_site_type_symbol
_atom_site_fract_x
_atom_site_fract_y
_atom_site_fract_z
_atom_site_U_iso_or_equiv
_atom_site_adp_type
_atom_site_occupancy
C1     C     0.58657   0.88048   0.93535   0.00000  Uiso   1.00
C2     C     0.55889   0.94867   0.92507   0.00000  Uiso   1.00
C3     C     0.61225   0.99581   0.95874   0.00000  Uiso   1.00
C4     C     0.57456   0.05513   0.94216   0.00000  Uiso   1.00
C5     C     0.54491   0.15923   0.93359   0.00000  Uiso   1.00
C6     C     0.46552   0.84952   0.92200   0.00000  Uiso   1.00
C7     C     0.44038   0.81329   0.95308   0.00000  Uiso   1.00
C8     C     0.32409   0.78914   0.93392   0.00000  Uiso   1.00
C9     C     0.14949   0.73927   0.92057   0.00000  Uiso   1.00
C10    C     0.62441   0.85800   0.89777   0.00000  Uiso   1.00
C11    C     0.73286   0.82888   0.90847   0.00000  Uiso   1.00
C12    C     0.75033   0.81185   0.86889   0.00000  Uiso   1.00
C13    C     0.82244   0.77514   0.81792   0.00000  Uiso   1.00
C14    C     0.42475   0.90200   0.84604   0.00000  Uiso   1.00
C15    C     0.47099   0.96036   0.87656   0.00000  Uiso   1.00
C16    C     0.43321   0.01962   0.85993   0.00000  Uiso   1.00
C17    C     0.48651   0.06684   0.89356   0.00000  Uiso   1.00
C18    C     0.37762   0.86121   0.87350   0.00000  Uiso   1.00
C19    C     0.26134   0.83710   0.85428   0.00000  Uiso   1.00
C20    C     0.23603   0.80085   0.88532   0.00000  Uiso   1.00
C21    C     0.53651   0.86969   0.84926   0.00000  Uiso   1.00
C22    C     0.55382   0.85269   0.80966   0.00000  Uiso   1.00
C23    C     0.66227   0.82356   0.82030   0.00000  Uiso   1.00
H24    H     0.65500   0.87138   0.97311   0.00000  Uiso   1.00
H25    H     0.68027   0.98674   0.99627   0.00000  Uiso   1.00
H26    H     0.50842   0.80425   0.99062   0.00000  Uiso   1.00
H27    H     0.80085   0.81984   0.94601   0.00000  Uiso   1.00
H28    H     0.66948   0.11980   0.00057   0.00000  Uiso   1.00
H29    H     0.30716   0.73498   0.98864   0.00000  Uiso   1.00
H30    H     0.92380   0.76785   0.89457   0.00000  Uiso   1.00
H31    H     0.35631   0.91110   0.80827   0.00000  Uiso   1.00
H32    H     0.36519   0.02865   0.82239   0.00000  Uiso   1.00
H33    H     0.19335   0.84616   0.81674   0.00000  Uiso   1.00
H34    H     0.48578   0.86175   0.77213   0.00000  Uiso   1.00
H35    H     0.41375   0.15382   0.85944   0.00000  Uiso   1.00
H36    H     0.05143   0.76899   0.84751   0.00000  Uiso   1.00
H37    H     0.66807   0.80187   0.75344   0.00000  Uiso   1.00
O38    O     0.55282   0.21342   0.94227   0.00000  Uiso   1.00
O39    O     0.07747   0.70854   0.92662   0.00000  Uiso   1.00
O40    O     0.88650   0.75167   0.80320   0.00000  Uiso   1.00
N41    N     0.60810   0.11167   0.96541   0.00000  Uiso   1.00
N42    N     0.26934   0.75190   0.95426   0.00000  Uiso   1.00
N43    N     0.84584   0.78262   0.86632   0.00000  Uiso   1.00
N44    N     0.47049   0.12998   0.88947   0.00000  Uiso   1.00
N45    N     0.13173   0.77020   0.87832   0.00000  Uiso   1.00
N46    N     0.70823   0.80092   0.79038   0.00000  Uiso   1.00
C47    C     0.07007   0.31749   0.44043   0.00000  Uiso   1.00
C48    C     0.04000   0.38567   0.43186   0.00000  Uiso   1.00
C49    C     0.09133   0.43170   0.46675   0.00000  Uiso   1.00
C50    C     0.05164   0.49122   0.45165   0.00000  Uiso   1.00
C51    C     0.01828   0.59511   0.44569   0.00000  Uiso   1.00
C52    C     0.95001   0.28483   0.42601   0.00000  Uiso   1.00
C53    C     0.92569   0.24608   0.45599   0.00000  Uiso   1.00
C54    C     0.81024   0.22070   0.43596   0.00000  Uiso   1.00
C55    C     0.63720   0.16801   0.42091   0.00000  Uiso   1.00
C56    C     0.10932   0.29829   0.40252   0.00000  Uiso   1.00
C57    C     0.21894   0.27084   0.41274   0.00000  Uiso   1.00
C58    C     0.23762   0.25679   0.37292   0.00000  Uiso   1.00
C59    C     0.31193   0.22499   0.32140   0.00000  Uiso   1.00
C60    C     0.90830   0.34132   0.35156   0.00000  Uiso   1.00
C61    C     0.95214   0.39861   0.38359   0.00000  Uiso   1.00
C62    C     0.91236   0.45807   0.36843   0.00000  Uiso   1.00
C63    C     0.96363   0.50419   0.40329   0.00000  Uiso   1.00
C64    C     0.86215   0.29777   0.37775   0.00000  Uiso   1.00
C65    C     0.74672   0.27244   0.35767   0.00000  Uiso   1.00
C66    C     0.72222   0.23367   0.38760   0.00000  Uiso   1.00
C67    C     0.02146   0.31124   0.35425   0.00000  Uiso   1.00
C68    C     0.03997   0.29721   0.31441   0.00000  Uiso   1.00
C69    C     0.14960   0.26975   0.32457   0.00000  Uiso   1.00
H70    H     0.13847   0.30741   0.47801   0.00000  Uiso   1.00
H71    H     0.15932   0.42167   0.50410   0.00000  Uiso   1.00
H72    H     0.99370   0.23607   0.49334   0.00000  Uiso   1.00
H73    H     0.28691   0.26083   0.45009   0.00000  Uiso   1.00
H74    H     0.14366   0.55405   0.51175   0.00000  Uiso   1.00
H75    H     0.79446   0.16269   0.48905   0.00000  Uiso   1.00
H76    H     0.41275   0.21491   0.39786   0.00000  Uiso   1.00
H77    H     0.83989   0.35139   0.31398   0.00000  Uiso   1.00
H78    H     0.84437   0.46807   0.33107   0.00000  Uiso   1.00
H79    H     0.67875   0.28247   0.32031   0.00000  Uiso   1.00
H80    H     0.97196   0.30723   0.27707   0.00000  Uiso   1.00
H81    H     0.88803   0.59171   0.37131   0.00000  Uiso   1.00
H82    H     0.53883   0.20034   0.34861   0.00000  Uiso   1.00
H83    H     0.15712   0.25257   0.25742   0.00000  Uiso   1.00
O84    O     0.02414   0.64884   0.45573   0.00000  Uiso   1.00
O85    O     0.56602   0.13538   0.42595   0.00000  Uiso   1.00
O86    O     0.37720   0.20389   0.30631   0.00000  Uiso   1.00
N87    N     0.08290   0.54690   0.47635   0.00000  Uiso   1.00
N88    N     0.75641   0.18101   0.45513   0.00000  Uiso   1.00
N89    N     0.33445   0.22981   0.36987   0.00000  Uiso   1.00
N90    N     0.94535   0.56717   0.40078   0.00000  Uiso   1.00
N91    N     0.61886   0.20127   0.37956   0.00000  Uiso   1.00
N92    N     0.19690   0.25008   0.29430   0.00000  Uiso   1.00
C93    C     0.41343   0.38048   0.56465   0.00000  Uiso   1.00
C94    C     0.44111   0.44867   0.57493   0.00000  Uiso   1.00
C95    C     0.38775   0.49581   0.54126   0.00000  Uiso   1.00
C96    C     0.42544   0.55513   0.55784   0.00000  Uiso   1.00
C97    C     0.45509   0.65923   0.56641   0.00000  Uiso   1.00
C98    C     0.53448   0.34952   0.57800   0.00000  Uiso   1.00
C99    C     0.55962   0.31329   0.54692   0.00000  Uiso   1.00
C100   C     0.67591   0.28914   0.56608   0.00000  Uiso   1.00
C101   C     0.85051   0.23927   0.57943   0.00000  Uiso   1.00
C102   C     0.37559   0.35800   0.60223   0.00000  Uiso   1.00
C103   C     0.26714   0.32888   0.59153   0.00000  Uiso   1.00
C104   C     0.24967   0.31185   0.63111   0.00000  Uiso   1.00
C105   C     0.17756   0.27514   0.68208   0.00000  Uiso   1.00
C106   C     0.57525   0.40200   0.65396   0.00000  Uiso   1.00
C107   C     0.52901   0.46036   0.62344   0.00000  Uiso   1.00
C108   C     0.56679   0.51962   0.64007   0.00000  Uiso   1.00
C109   C     0.51349   0.56684   0.60644   0.00000  Uiso   1.00
C110   C     0.62238   0.36121   0.62650   0.00000  Uiso   1.00
C111   C     0.73866   0.33710   0.64572   0.00000  Uiso   1.00
C112   C     0.76397   0.30085   0.61468   0.00000  Uiso   1.00
C113   C     0.46349   0.36969   0.65074   0.00000  Uiso   1.00
C114   C     0.44618   0.35269   0.69034   0.00000  Uiso   1.00
C115   C     0.33773   0.32356   0.67970   0.00000  Uiso   1.00
H116   H     0.34500   0.37138   0.52689   0.00000  Uiso   1.00
H117   H     0.31973   0.48674   0.50373   0.00000  Uiso   1.00
H118   H     0.49158   0.30425   0.50938   0.00000  Uiso   1.00
H119   H     0.19915   0.31984   0.55399   0.00000  Uiso   1.00
H120   H     0.33052   0.61980   0.49943   0.00000  Uiso   1.00
H121   H     0.69284   0.23498   0.51136   0.00000  Uiso   1.00
H122   H     0.07620   0.26785   0.60543   0.00000  Uiso   1.00
H123   H     0.64369   0.41110   0.69173   0.00000  Uiso   1.00
H124   H     0.63481   0.52865   0.67761   0.00000  Uiso   1.00
H125   H     0.80665   0.34616   0.68326   0.00000  Uiso   1.00
H126   H     0.51422   0.36175   0.72787   0.00000  Uiso   1.00
H127   H     0.58625   0.65382   0.64056   0.00000  Uiso   1.00
H128   H     0.94857   0.26899   0.65249   0.00000  Uiso   1.00
H129   H     0.33193   0.30187   0.74656   0.00000  Uiso   1.00
O130   O     0.44718   0.71342   0.55773   0.00000  Uiso   1.00
O131   O     0.92253   0.20854   0.57338   0.00000  Uiso   1.00
O132   O     0.11350   0.25167   0.69680   0.00000  Uiso   1.00
N133   N     0.39190   0.61167   0.53459   0.00000  Uiso   1.00
N134   N     0.73066   0.25190   0.54574   0.00000  Uiso   1.00
N135   N     0.15416   0.28262   0.63368   0.00000  Uiso   1.00
N136   N     0.52951   0.62998   0.61053   0.00000  Uiso   1.00
N137   N     0.86827   0.27020   0.62168   0.00000  Uiso   1.00
N138   N     0.29177   0.30092   0.70962   0.00000  Uiso   1.00
C139   C     0.92993   0.81749   0.05957   0.00000  Uiso   1.00
C140   C     0.96000   0.88567   0.06814   0.00000  Uiso   1.00
C141   C     0.90867   0.93170   0.03325   0.00000  Uiso   1.00
C142   C     0.94836   0.99122   0.04835   0.00000  Uiso   1.00
C143   C     0.98172   0.09511   0.05431   0.00000  Uiso   1.00
C144   C     0.04999   0.78483   0.07399   0.00000  Uiso   1.00
C145   C     0.07431   0.74608   0.04401   0.00000  Uiso   1.00
C146   C     0.18976   0.72070   0.06404   0.00000  Uiso   1.00
C147   C     0.36280   0.66801   0.07909   0.00000  Uiso   1.00
C148   C     0.89068   0.79829   0.09748   0.00000  Uiso   1.00
C149   C     0.78106   0.77084   0.08726   0.00000  Uiso   1.00
C150   C     0.76238   0.75679   0.12708   0.00000  Uiso   1.00
C151   C     0.68807   0.72499   0.17860   0.00000  Uiso   1.00
C152   C     0.09170   0.84132   0.14844   0.00000  Uiso   1.00
C153   C     0.04786   0.89861   0.11641   0.00000  Uiso   1.00
C154   C     0.08764   0.95807   0.13157   0.00000  Uiso   1.00
C155   C     0.03637   0.00419   0.09671   0.00000  Uiso   1.00
C156   C     0.13785   0.79777   0.12225   0.00000  Uiso   1.00
C157   C     0.25328   0.77244   0.14233   0.00000  Uiso   1.00
C158   C     0.27778   0.73367   0.11240   0.00000  Uiso   1.00
C159   C     0.97854   0.81124   0.14575   0.00000  Uiso   1.00
C160   C     0.96003   0.79721   0.18559   0.00000  Uiso   1.00
C161   C     0.85040   0.76975   0.17543   0.00000  Uiso   1.00
H162   H     0.86153   0.80741   0.02199   0.00000  Uiso   1.00
H163   H     0.84068   0.92167   0.99590   0.00000  Uiso   1.00
H164   H     0.00630   0.73607   0.00666   0.00000  Uiso   1.00
H165   H     0.71309   0.76083   0.04991   0.00000  Uiso   1.00
H166   H     0.85634   0.05405   0.98825   0.00000  Uiso   1.00
H167   H     0.20554   0.66269   0.01095   0.00000  Uiso   1.00
H168   H     0.58725   0.71491   0.10214   0.00000  Uiso   1.00
H169   H     0.16011   0.85139   0.18602   0.00000  Uiso   1.00
H170   H     0.15563   0.96807   0.16893   0.00000  Uiso   1.00
H171   H     0.32125   0.78247   0.17969   0.00000  Uiso   1.00
H172   H     0.02804   0.80723   0.22293   0.00000  Uiso   1.00
H173   H     0.11197   0.09171   0.12869   0.00000  Uiso   1.00
H174   H     0.46117   0.70034   0.15139   0.00000  Uiso   1.00
H175   H     0.84288   0.75257   0.24258   0.00000  Uiso   1.00
O176   O     0.97586   0.14884   0.04427   0.00000  Uiso   1.00
O177   O     0.43398   0.63538   0.07405   0.00000  Uiso   1.00
O178   O     0.62280   0.70389   0.19369   0.00000  Uiso   1.00
N179   N     0.91710   0.04690   0.02365   0.00000  Uiso   1.00
N180   N     0.24359   0.68101   0.04487   0.00000  Uiso   1.00
N181   N     0.66555   0.72981   0.13013   0.00000  Uiso   1.00
N182   N     0.05465   0.06717   0.09922   0.00000  Uiso   1.00
N183   N     0.38114   0.70127   0.12044   0.00000  Uiso   1.00
N184   N     0.80310   0.75008   0.20570   0.00000  Uiso   1.00
C185   C     0.41343   0.11952   0.06465   0.00000  Uiso   1.00
C186   C     0.44111   0.05133   0.07493   0.00000  Uiso   1.00
C187   C     0.38775   0.00419   0.04126   0.00000  Uiso   1.00
C188   C     0.42544   0.94487   0.05784   0.00000  Uiso   1.00
C189   C     0.45509   0.84077   0.06641   0.00000  Uiso   1.00
C190   C     0.53448   0.15048   0.07800   0.00000  Uiso   1.00
C191   C     0.55962   0.18671   0.04692   0.00000  Uiso   1.00
C192   C     0.67591   0.21086   0.06608   0.00000  Uiso   1.00
C193   C     0.85051   0.26073   0.07943   0.00000  Uiso   1.00
C194   C     0.37559   0.14200   0.10223   0.00000  Uiso   1.00
C195   C     0.26714   0.17112   0.09153   0.00000  Uiso   1.00
C196   C     0.24967   0.18815   0.13111   0.00000  Uiso   1.00
C197   C     0.17756   0.22486   0.18208   0.00000  Uiso   1.00
C198   C     0.57525   0.09800   0.15396   0.00000  Uiso   1.00
C199   C     0.52901   0.03964   0.12344   0.00000  Uiso   1.00
C200   C     0.56679   0.98038   0.14007   0.00000  Uiso   1.00
C201   C     0.51349   0.93316   0.10644   0.00000  Uiso   1.00
C202   C     0.62238   0.13879   0.12650   0.00000  Uiso   1.00
C203   C     0.73866   0.16290   0.14572   0.00000  Uiso   1.00
C204   C     0.76397   0.19915   0.11468   0.00000  Uiso   1.00
C205   C     0.46349   0.13031   0.15074   0.00000  Uiso   1.00
C206   C     0.44618   0.14731   0.19034   0.00000  Uiso   1.00
C207   C     0.33773   0.17644   0.17970   0.00000  Uiso   1.00
H208   H     0.34500   0.12862   0.02689   0.00000  Uiso   1.00
H209   H     0.31973   0.01326   0.00373   0.00000  Uiso   1.00
H210   H     0.49158   0.19575   0.00938   0.00000  Uiso   1.00
H211   H     0.19915   0.18016   0.05399   0.00000  Uiso   1.00
H212   H     0.33052   0.88020   0.99943   0.00000  Uiso   1.00
H213   H     0.69284   0.26502   0.01136   0.00000  Uiso   1.00
H214   H     0.07620   0.23215   0.10543   0.00000  Uiso   1.00
H215   H     0.64369   0.08890   0.19173   0.00000  Uiso   1.00
H216   H     0.63481   0.97135   0.17761   0.00000  Uiso   1.00
H217   H     0.80665   0.15384   0.18326   0.00000  Uiso   1.00
H218   H     0.51422   0.13825   0.22787   0.00000  Uiso   1.00
H219   H     0.58625   0.84618   0.14056   0.00000  Uiso   1.00
H220   H     0.94857   0.23101   0.15249   0.00000  Uiso   1.00
H221   H     0.33193   0.19813   0.24656   0.00000  Uiso   1.00
O222   O     0.44718   0.78658   0.05773   0.00000  Uiso   1.00
O223   O     0.92253   0.29146   0.07338   0.00000  Uiso   1.00
O224   O     0.11350   0.24833   0.19680   0.00000  Uiso   1.00
N225   N     0.39190   0.88833   0.03459   0.00000  Uiso   1.00
N226   N     0.73066   0.24810   0.04574   0.00000  Uiso   1.00
N227   N     0.15416   0.21738   0.13368   0.00000  Uiso   1.00
N228   N     0.52951   0.87002   0.11053   0.00000  Uiso   1.00
N229   N     0.86827   0.22980   0.12168   0.00000  Uiso   1.00
N230   N     0.29177   0.19908   0.20962   0.00000  Uiso   1.00
C231   C     0.92993   0.68251   0.55957   0.00000  Uiso   1.00
C232   C     0.96000   0.61433   0.56814   0.00000  Uiso   1.00
C233   C     0.90867   0.56830   0.53325   0.00000  Uiso   1.00
C234   C     0.94836   0.50878   0.54835   0.00000  Uiso   1.00
C235   C     0.98172   0.40489   0.55431   0.00000  Uiso   1.00
C236   C     0.04999   0.71517   0.57399   0.00000  Uiso   1.00
C237   C     0.07431   0.75392   0.54401   0.00000  Uiso   1.00
C238   C     0.18976   0.77930   0.56404   0.00000  Uiso   1.00
C239   C     0.36280   0.83199   0.57909   0.00000  Uiso   1.00
C240   C     0.89068   0.70171   0.59748   0.00000  Uiso   1.00
C241   C     0.78106   0.72916   0.58726   0.00000  Uiso   1.00
C242   C     0.76238   0.74321   0.62708   0.00000  Uiso   1.00
C243   C     0.68807   0.77501   0.67860   0.00000  Uiso   1.00
C244   C     0.09170   0.65868   0.64844   0.00000  Uiso   1.00
C245   C     0.04786   0.60139   0.61641   0.00000  Uiso   1.00
C246   C     0.08764   0.54193   0.63157   0.00000  Uiso   1.00
C247   C     0.03637   0.49581   0.59671   0.00000  Uiso   1.00
C248   C     0.13785   0.70223   0.62225   0.00000  Uiso   1.00
C249   C     0.25328   0.72756   0.64233   0.00000  Uiso   1.00
C250   C     0.27778   0.76633   0.61240   0.00000  Uiso   1.00
C251   C     0.97854   0.68876   0.64575   0.00000  Uiso   1.00
C252   C     0.96003   0.70279   0.68559   0.00000  Uiso   1.00
C253   C     0.85040   0.73025   0.67543   0.00000  Uiso   1.00
H254   H     0.86153   0.69259   0.52199   0.00000  Uiso   1.00
H255   H     0.84068   0.57833   0.49590   0.00000  Uiso   1.00
H256   H     0.00630   0.76393   0.50666   0.00000  Uiso   1.00
H257   H     0.71309   0.73917   0.54991   0.00000  Uiso   1.00
H258   H     0.85634   0.44595   0.48825   0.00000  Uiso   1.00
H259   H     0.20554   0.83731   0.51095   0.00000  Uiso   1.00
H260   H     0.58725   0.78509   0.60214   0.00000  Uiso   1.00
H261   H     0.16011   0.64861   0.68602   0.00000  Uiso   1.00
H262   H     0.15563   0.53193   0.66893   0.00000  Uiso   1.00
H263   H     0.32125   0.71753   0.67969   0.00000  Uiso   1.00
H264   H     0.02804   0.69277   0.72293   0.00000  Uiso   1.00
H265   H     0.11197   0.40829   0.62869   0.00000  Uiso   1.00
H266   H     0.46117   0.79966   0.65139   0.00000  Uiso   1.00
H267   H     0.84288   0.74743   0.74258   0.00000  Uiso   1.00
O268   O     0.97586   0.35116   0.54427   0.00000  Uiso   1.00
O269   O     0.43398   0.86462   0.57405   0.00000  Uiso   1.00
O270   O     0.62280   0.79611   0.69369   0.00000  Uiso   1.00
N271   N     0.91710   0.45310   0.52365   0.00000  Uiso   1.00
N272   N     0.24359   0.81899   0.54487   0.00000  Uiso   1.00
N273   N     0.66555   0.77019   0.63013   0.00000  Uiso   1.00
N274   N     0.05465   0.43283   0.59922   0.00000  Uiso   1.00
N275   N     0.38114   0.79873   0.62044   0.00000  Uiso   1.00
N276   N     0.80310   0.74992   0.70570   0.00000  Uiso   1.00
C277   C     0.58657   0.61952   0.43535   0.00000  Uiso   1.00
C278   C     0.55889   0.55133   0.42507   0.00000  Uiso   1.00
C279   C     0.61225   0.50419   0.45874   0.00000  Uiso   1.00
C280   C     0.57456   0.44487   0.44216   0.00000  Uiso   1.00
C281   C     0.54491   0.34077   0.43359   0.00000  Uiso   1.00
C282   C     0.46552   0.65048   0.42200   0.00000  Uiso   1.00
C283   C     0.44038   0.68671   0.45308   0.00000  Uiso   1.00
C284   C     0.32409   0.71086   0.43392   0.00000  Uiso   1.00
C285   C     0.14949   0.76073   0.42057   0.00000  Uiso   1.00
C286   C     0.62441   0.64200   0.39777   0.00000  Uiso   1.00
C287   C     0.73286   0.67112   0.40847   0.00000  Uiso   1.00
C288   C     0.75033   0.68815   0.36889   0.00000  Uiso   1.00
C289   C     0.82244   0.72486   0.31792   0.00000  Uiso   1.00
C290   C     0.42475   0.59800   0.34604   0.00000  Uiso   1.00
C291   C     0.47099   0.53964   0.37656   0.00000  Uiso   1.00
C292   C     0.43321   0.48038   0.35993   0.00000  Uiso   1.00
C293   C     0.48651   0.43316   0.39356   0.00000  Uiso   1.00
C294   C     0.37762   0.63879   0.37350   0.00000  Uiso   1.00
C295   C     0.26134   0.66290   0.35428   0.00000  Uiso   1.00
C296   C     0.23603   0.69915   0.38532   0.00000  Uiso   1.00
C297   C     0.53651   0.63031   0.34926   0.00000  Uiso   1.00
C298   C     0.55382   0.64731   0.30966   0.00000  Uiso   1.00
C299   C     0.66227   0.67644   0.32030   0.00000  Uiso   1.00
H300   H     0.65500   0.62862   0.47311   0.00000  Uiso   1.00
H301   H     0.68027   0.51326   0.49627   0.00000  Uiso   1.00
H302   H     0.50842   0.69575   0.49062   0.00000  Uiso   1.00
H303   H     0.80085   0.68016   0.44601   0.00000  Uiso   1.00
H304   H     0.66948   0.38020   0.50057   0.00000  Uiso   1.00
H305   H     0.30716   0.76502   0.48864   0.00000  Uiso   1.00
H306   H     0.92380   0.73215   0.39457   0.00000  Uiso   1.00
H307   H     0.35631   0.58890   0.30827   0.00000  Uiso   1.00
H308   H     0.36519   0.47135   0.32239   0.00000  Uiso   1.00
H309   H     0.19335   0.65384   0.31674   0.00000  Uiso   1.00
H310   H     0.48578   0.63825   0.27213   0.00000  Uiso   1.00
H311   H     0.41375   0.34618   0.35944   0.00000  Uiso   1.00
H312   H     0.05143   0.73101   0.34751   0.00000  Uiso   1.00
H313   H     0.66807   0.69813   0.25344   0.00000  Uiso   1.00
O314   O     0.55282   0.28658   0.44227   0.00000  Uiso   1.00
O315   O     0.07747   0.79146   0.42662   0.00000  Uiso   1.00
O316   O     0.88650   0.74833   0.30320   0.00000  Uiso   1.00
N317   N     0.60810   0.38833   0.46541   0.00000  Uiso   1.00
N318   N     0.26934   0.74810   0.45426   0.00000  Uiso   1.00
N319   N     0.84584   0.71738   0.36632   0.00000  Uiso   1.00
N320   N     0.47049   0.37002   0.38947   0.00000  Uiso   1.00
N321   N     0.13173   0.72980   0.37832   0.00000  Uiso   1.00
N322   N     0.70823   0.69908   0.29038   0.00000  Uiso   1.00
C323   C     0.07007   0.18251   0.94043   0.00000  Uiso   1.00
C324   C     0.04000   0.11433   0.93186   0.00000  Uiso   1.00
C325   C     0.09133   0.06830   0.96675   0.00000  Uiso   1.00
C326   C     0.05164   0.00878   0.95165   0.00000  Uiso   1.00
C327   C     0.01828   0.90489   0.94569   0.00000  Uiso   1.00
C328   C     0.95001   0.21517   0.92601   0.00000  Uiso   1.00
C329   C     0.92569   0.25392   0.95599   0.00000  Uiso   1.00
C330   C     0.81024   0.27930   0.93596   0.00000  Uiso   1.00
C331   C     0.63720   0.33199   0.92091   0.00000  Uiso   1.00
C332   C     0.10932   0.20171   0.90252   0.00000  Uiso   1.00
C333   C     0.21894   0.22916   0.91274   0.00000  Uiso   1.00
C334   C     0.23762   0.24321   0.87292   0.00000  Uiso   1.00
C335   C     0.31193   0.27501   0.82140   0.00000  Uiso   1.00
C336   C     0.90830   0.15868   0.85156   0.00000  Uiso   1.00
C337   C     0.95214   0.10139   0.88359   0.00000  Uiso   1.00
C338   C     0.91236   0.04193   0.86843   0.00000  Uiso   1.00
C339   C     0.96363   0.99581   0.90329   0.00000  Uiso   1.00
C340   C     0.86215   0.20223   0.87775   0.00000  Uiso   1.00
C341   C     0.74672   0.22756   0.85767   0.00000  Uiso   1.00
C342   C     0.72222   0.26633   0.88760   0.00000  Uiso   1.00
C343   C     0.02146   0.18876   0.85425   0.00000  Uiso   1.00
C344   C     0.03997   0.20279   0.81441   0.00000  Uiso   1.00
C345   C     0.14960   0.23025   0.82457   0.00000  Uiso   1.00
H346   H     0.13847   0.19259   0.97801   0.00000  Uiso   1.00
H347   H     0.15932   0.07833   0.00410   0.00000  Uiso   1.00
H348   H     0.99370   0.26393   0.99334   0.00000  Uiso   1.00
H349   H     0.28691   0.23917   0.95009   0.00000  Uiso   1.00
H350   H     0.14366   0.94595   0.01175   0.00000  Uiso   1.00
H351   H     0.79446   0.33731   0.98905   0.00000  Uiso   1.00
H352   H     0.41275   0.28509   0.89786   0.00000  Uiso   1.00
H353   H     0.83989   0.14861   0.81398   0.00000  Uiso   1.00
H354   H     0.84437   0.03193   0.83107   0.00000  Uiso   1.00
H355   H     0.67875   0.21753   0.82031   0.00000  Uiso   1.00
H356   H     0.97196   0.19277   0.77707   0.00000  Uiso   1.00
H357   H     0.88803   0.90829   0.87131   0.00000  Uiso   1.00
H358   H     0.53883   0.29966   0.84861   0.00000  Uiso   1.00
H359   H     0.15712   0.24743   0.75742   0.00000  Uiso   1.00
O360   O     0.02414   0.85116   0.95573   0.00000  Uiso   1.00
O361   O     0.56602   0.36462   0.92595   0.00000  Uiso   1.00
O362   O     0.37720   0.29611   0.80631   0.00000  Uiso   1.00
N363   N     0.08290   0.95310   0.97635   0.00000  Uiso   1.00
N364   N     0.75641   0.31899   0.95513   0.00000  Uiso   1.00
N365   N     0.33445   0.27019   0.86987   0.00000  Uiso   1.00
N366   N     0.94535   0.93283   0.90078   0.00000  Uiso   1.00
N367   N     0.61886   0.29873   0.87956   0.00000  Uiso   1.00
N368   N     0.19690   0.24992   0.79430   0.00000  Uiso   1.00
