data_job_00897
_audit_creation_date              2018-12-19
_audit_creation_method            'Materials Studio'
_symmetry_space_group_name_H-M    'P1'
_symmetry_Int_Tables_number       1
_symmetry_cell_setting            triclinic
loop_
_symmetry_equiv_pos_as_xyz
  x,y,z
_cell_length_a                    23.9294
_cell_length_b                    12.3057
_cell_length_c                    21.7862
_cell_angle_alpha                 90.0000
_cell_angle_beta                  158.1020
_cell_angle_gamma                 90.0000
loop_
_atom_site_label
_atom_site_type_symbol
_atom_site_fract_x
_atom_site_fract_y
_atom_site_fract_z
_atom_site_U_iso_or_equiv
_atom_site_adp_type
_atom_site_occupancy
C1     C     0.38519   0.74556   0.80925   0.00000  Uiso   1.00
C2     C     0.39458   0.85766   0.78923   0.00000  Uiso   1.00
C3     C     0.52087   0.92337   0.91609   0.00000  Uiso   1.00
C4     C     0.50657   0.02311   0.87230   0.00000  Uiso   1.00
C5     C     0.54178   0.19222   0.86629   0.00000  Uiso   1.00
C6     C     0.25790   0.75184   0.72608   0.00000  Uiso   1.00
C7     C     0.26928   0.72855   0.79984   0.00000  Uiso   1.00
C8     C     0.13991   0.73919   0.70287   0.00000  Uiso   1.00
C9     C     0.96290   0.74393   0.59879   0.00000  Uiso   1.00
C10    C     0.33177   0.66850   0.70456   0.00000  Uiso   1.00
C11    C     0.40525   0.57511   0.76020   0.00000  Uiso   1.00
C12    C     0.33806   0.51557   0.64511   0.00000  Uiso   1.00
C13    C     0.27575   0.39091   0.50760   0.00000  Uiso   1.00
C14    C     0.13520   0.80584   0.50591   0.00000  Uiso   1.00
C15    C     0.25879   0.89041   0.62447   0.00000  Uiso   1.00
C16    C     0.24429   0.99007   0.58048   0.00000  Uiso   1.00
C17    C     0.37055   0.05591   0.70725   0.00000  Uiso   1.00
C18    C     0.12211   0.78458   0.56132   0.00000  Uiso   1.00
C19    C     0.99269   0.79525   0.46422   0.00000  Uiso   1.00
C20    C     0.00388   0.77200   0.53781   0.00000  Uiso   1.00
C21    C     0.19599   0.70124   0.53979   0.00000  Uiso   1.00
C22    C     0.12866   0.64182   0.42459   0.00000  Uiso   1.00
C23    C     0.20202   0.54838   0.48005   0.00000  Uiso   1.00
H24    H     0.49090   0.72006   0.93752   0.00000  Uiso   1.00
H25    H     0.62594   0.89800   0.04358   0.00000  Uiso   1.00
H26    H     0.37437   0.70320   0.92734   0.00000  Uiso   1.00
H27    H     0.51032   0.54980   0.88771   0.00000  Uiso   1.00
H28    H     0.71575   0.10974   0.08852   0.00000  Uiso   1.00
H29    H     0.18530   0.69896   0.84339   0.00000  Uiso   1.00
H30    H     0.47198   0.37547   0.75983   0.00000  Uiso   1.00
H31    H     0.02947   0.83134   0.37762   0.00000  Uiso   1.00
H32    H     0.13919   0.01539   0.45296   0.00000  Uiso   1.00
H33    H     0.88763   0.82059   0.33672   0.00000  Uiso   1.00
H34    H     0.02358   0.66719   0.29710   0.00000  Uiso   1.00
H35    H     0.32069   0.20502   0.60915   0.00000  Uiso   1.00
H36    H     0.79024   0.79423   0.36403   0.00000  Uiso   1.00
H37    H     0.07693   0.47075   0.28046   0.00000  Uiso   1.00
O38    O     0.59871   0.27646   0.90850   0.00000  Uiso   1.00
O39    O     0.90278   0.73751   0.58690   0.00000  Uiso   1.00
O40    O     0.27890   0.31311   0.47727   0.00000  Uiso   1.00
N41    N     0.60772   0.10689   0.96535   0.00000  Uiso   1.00
N42    N     0.11179   0.72285   0.73619   0.00000  Uiso   1.00
N43    N     0.37980   0.42041   0.65806   0.00000  Uiso   1.00
N44    N     0.39515   0.15816   0.70741   0.00000  Uiso   1.00
N45    N     0.89922   0.77412   0.47824   0.00000  Uiso   1.00
N46    N     0.16722   0.47168   0.40011   0.00000  Uiso   1.00
C47    C     0.61481   0.24556   0.69075   0.00000  Uiso   1.00
C48    C     0.60542   0.35766   0.71077   0.00000  Uiso   1.00
C49    C     0.47913   0.42337   0.58391   0.00000  Uiso   1.00
C50    C     0.49343   0.52311   0.62770   0.00000  Uiso   1.00
C51    C     0.45822   0.69222   0.63371   0.00000  Uiso   1.00
C52    C     0.74210   0.25184   0.77392   0.00000  Uiso   1.00
C53    C     0.73072   0.22855   0.70016   0.00000  Uiso   1.00
C54    C     0.86009   0.23919   0.79713   0.00000  Uiso   1.00
C55    C     0.03710   0.24393   0.90121   0.00000  Uiso   1.00
C56    C     0.66823   0.16850   0.79544   0.00000  Uiso   1.00
C57    C     0.59475   0.07511   0.73980   0.00000  Uiso   1.00
C58    C     0.66194   0.01557   0.85489   0.00000  Uiso   1.00
C59    C     0.72425   0.89091   0.99240   0.00000  Uiso   1.00
C60    C     0.86480   0.30584   0.99409   0.00000  Uiso   1.00
C61    C     0.74121   0.39041   0.87553   0.00000  Uiso   1.00
C62    C     0.75571   0.49007   0.91952   0.00000  Uiso   1.00
C63    C     0.62945   0.55591   0.79275   0.00000  Uiso   1.00
C64    C     0.87789   0.28458   0.93868   0.00000  Uiso   1.00
C65    C     0.00731   0.29525   0.03578   0.00000  Uiso   1.00
C66    C     0.99612   0.27200   0.96219   0.00000  Uiso   1.00
C67    C     0.80401   0.20124   0.96021   0.00000  Uiso   1.00
C68    C     0.87134   0.14182   0.07541   0.00000  Uiso   1.00
C69    C     0.79798   0.04838   0.01995   0.00000  Uiso   1.00
H70    H     0.50910   0.22006   0.56248   0.00000  Uiso   1.00
H71    H     0.37406   0.39800   0.45642   0.00000  Uiso   1.00
H72    H     0.62563   0.20320   0.57266   0.00000  Uiso   1.00
H73    H     0.48968   0.04980   0.61229   0.00000  Uiso   1.00
H74    H     0.28425   0.60974   0.41148   0.00000  Uiso   1.00
H75    H     0.81470   0.19896   0.65661   0.00000  Uiso   1.00
H76    H     0.52802   0.87547   0.74017   0.00000  Uiso   1.00
H77    H     0.97053   0.33134   0.12238   0.00000  Uiso   1.00
H78    H     0.86081   0.51539   0.04704   0.00000  Uiso   1.00
H79    H     0.11237   0.32059   0.16328   0.00000  Uiso   1.00
H80    H     0.97642   0.16719   0.20290   0.00000  Uiso   1.00
H81    H     0.67931   0.70502   0.89085   0.00000  Uiso   1.00
H82    H     0.20976   0.29423   0.13597   0.00000  Uiso   1.00
H83    H     0.92307   0.97075   0.21954   0.00000  Uiso   1.00
O84    O     0.40129   0.77646   0.59150   0.00000  Uiso   1.00
O85    O     0.09722   0.23751   0.91310   0.00000  Uiso   1.00
O86    O     0.72110   0.81311   0.02273   0.00000  Uiso   1.00
N87    N     0.39228   0.60689   0.53465   0.00000  Uiso   1.00
N88    N     0.88821   0.22285   0.76381   0.00000  Uiso   1.00
N89    N     0.62020   0.92041   0.84194   0.00000  Uiso   1.00
N90    N     0.60485   0.65816   0.79259   0.00000  Uiso   1.00
N91    N     0.10078   0.27412   0.02176   0.00000  Uiso   1.00
N92    N     0.83278   0.97168   0.09989   0.00000  Uiso   1.00
C93    C     0.61481   0.25444   0.19075   0.00000  Uiso   1.00
C94    C     0.60542   0.14234   0.21077   0.00000  Uiso   1.00
C95    C     0.47913   0.07663   0.08391   0.00000  Uiso   1.00
C96    C     0.49343   0.97689   0.12770   0.00000  Uiso   1.00
C97    C     0.45822   0.80778   0.13371   0.00000  Uiso   1.00
C98    C     0.74210   0.24816   0.27392   0.00000  Uiso   1.00
C99    C     0.73072   0.27145   0.20016   0.00000  Uiso   1.00
C100   C     0.86009   0.26081   0.29713   0.00000  Uiso   1.00
C101   C     0.03710   0.25607   0.40121   0.00000  Uiso   1.00
C102   C     0.66823   0.33150   0.29544   0.00000  Uiso   1.00
C103   C     0.59475   0.42489   0.23980   0.00000  Uiso   1.00
C104   C     0.66194   0.48443   0.35489   0.00000  Uiso   1.00
C105   C     0.72425   0.60909   0.49240   0.00000  Uiso   1.00
C106   C     0.86480   0.19416   0.49409   0.00000  Uiso   1.00
C107   C     0.74121   0.10959   0.37553   0.00000  Uiso   1.00
C108   C     0.75571   0.00993   0.41952   0.00000  Uiso   1.00
C109   C     0.62945   0.94409   0.29275   0.00000  Uiso   1.00
C110   C     0.87789   0.21542   0.43868   0.00000  Uiso   1.00
C111   C     0.00731   0.20475   0.53578   0.00000  Uiso   1.00
C112   C     0.99612   0.22800   0.46219   0.00000  Uiso   1.00
C113   C     0.80401   0.29876   0.46021   0.00000  Uiso   1.00
C114   C     0.87134   0.35818   0.57541   0.00000  Uiso   1.00
C115   C     0.79798   0.45162   0.51995   0.00000  Uiso   1.00
H116   H     0.50910   0.27994   0.06248   0.00000  Uiso   1.00
H117   H     0.37406   0.10200   0.95642   0.00000  Uiso   1.00
H118   H     0.62563   0.29680   0.07266   0.00000  Uiso   1.00
H119   H     0.48968   0.45020   0.11229   0.00000  Uiso   1.00
H120   H     0.28425   0.89026   0.91148   0.00000  Uiso   1.00
H121   H     0.81470   0.30104   0.15661   0.00000  Uiso   1.00
H122   H     0.52802   0.62453   0.24017   0.00000  Uiso   1.00
H123   H     0.97053   0.16866   0.62238   0.00000  Uiso   1.00
H124   H     0.86081   0.98461   0.54704   0.00000  Uiso   1.00
H125   H     0.11237   0.17941   0.66328   0.00000  Uiso   1.00
H126   H     0.97642   0.33281   0.70290   0.00000  Uiso   1.00
H127   H     0.67931   0.79498   0.39085   0.00000  Uiso   1.00
H128   H     0.20976   0.20577   0.63597   0.00000  Uiso   1.00
H129   H     0.92307   0.52925   0.71954   0.00000  Uiso   1.00
O130   O     0.40129   0.72354   0.09150   0.00000  Uiso   1.00
O131   O     0.09722   0.26249   0.41310   0.00000  Uiso   1.00
O132   O     0.72110   0.68689   0.52273   0.00000  Uiso   1.00
N133   N     0.39228   0.89311   0.03465   0.00000  Uiso   1.00
N134   N     0.88821   0.27715   0.26381   0.00000  Uiso   1.00
N135   N     0.62020   0.57959   0.34194   0.00000  Uiso   1.00
N136   N     0.60485   0.84184   0.29259   0.00000  Uiso   1.00
N137   N     0.10078   0.22588   0.52176   0.00000  Uiso   1.00
N138   N     0.83278   0.52832   0.59989   0.00000  Uiso   1.00
C139   C     0.38519   0.75444   0.30925   0.00000  Uiso   1.00
C140   C     0.39458   0.64234   0.28923   0.00000  Uiso   1.00
C141   C     0.52087   0.57663   0.41609   0.00000  Uiso   1.00
C142   C     0.50657   0.47689   0.37230   0.00000  Uiso   1.00
C143   C     0.54178   0.30778   0.36629   0.00000  Uiso   1.00
C144   C     0.25790   0.74816   0.22608   0.00000  Uiso   1.00
C145   C     0.26928   0.77145   0.29984   0.00000  Uiso   1.00
C146   C     0.13991   0.76081   0.20287   0.00000  Uiso   1.00
C147   C     0.96290   0.75607   0.09879   0.00000  Uiso   1.00
C148   C     0.33177   0.83150   0.20456   0.00000  Uiso   1.00
C149   C     0.40525   0.92489   0.26020   0.00000  Uiso   1.00
C150   C     0.33806   0.98443   0.14511   0.00000  Uiso   1.00
C151   C     0.27575   0.10909   0.00760   0.00000  Uiso   1.00
C152   C     0.13520   0.69416   0.00591   0.00000  Uiso   1.00
C153   C     0.25879   0.60959   0.12447   0.00000  Uiso   1.00
C154   C     0.24429   0.50993   0.08048   0.00000  Uiso   1.00
C155   C     0.37055   0.44409   0.20725   0.00000  Uiso   1.00
C156   C     0.12211   0.71542   0.06132   0.00000  Uiso   1.00
C157   C     0.99269   0.70475   0.96422   0.00000  Uiso   1.00
C158   C     0.00388   0.72800   0.03781   0.00000  Uiso   1.00
C159   C     0.19599   0.79876   0.03979   0.00000  Uiso   1.00
C160   C     0.12866   0.85818   0.92459   0.00000  Uiso   1.00
C161   C     0.20202   0.95162   0.98005   0.00000  Uiso   1.00
H162   H     0.49090   0.77994   0.43752   0.00000  Uiso   1.00
H163   H     0.62594   0.60200   0.54358   0.00000  Uiso   1.00
H164   H     0.37437   0.79680   0.42734   0.00000  Uiso   1.00
H165   H     0.51032   0.95020   0.38771   0.00000  Uiso   1.00
H166   H     0.71575   0.39026   0.58852   0.00000  Uiso   1.00
H167   H     0.18530   0.80104   0.34339   0.00000  Uiso   1.00
H168   H     0.47198   0.12453   0.25983   0.00000  Uiso   1.00
H169   H     0.02947   0.66866   0.87762   0.00000  Uiso   1.00
H170   H     0.13919   0.48461   0.95296   0.00000  Uiso   1.00
H171   H     0.88763   0.67941   0.83672   0.00000  Uiso   1.00
H172   H     0.02358   0.83281   0.79710   0.00000  Uiso   1.00
H173   H     0.32069   0.29498   0.10915   0.00000  Uiso   1.00
H174   H     0.79024   0.70577   0.86403   0.00000  Uiso   1.00
H175   H     0.07693   0.02925   0.78046   0.00000  Uiso   1.00
O176   O     0.59871   0.22354   0.40850   0.00000  Uiso   1.00
O177   O     0.90278   0.76249   0.08690   0.00000  Uiso   1.00
O178   O     0.27890   0.18689   0.97727   0.00000  Uiso   1.00
N179   N     0.60772   0.39311   0.46535   0.00000  Uiso   1.00
N180   N     0.11179   0.77715   0.23619   0.00000  Uiso   1.00
N181   N     0.37980   0.07959   0.15806   0.00000  Uiso   1.00
N182   N     0.39515   0.34184   0.20741   0.00000  Uiso   1.00
N183   N     0.89922   0.72588   0.97824   0.00000  Uiso   1.00
N184   N     0.16722   0.02832   0.90011   0.00000  Uiso   1.00
