data_job_00661
_audit_creation_date              2018-12-19
_audit_creation_method            'Materials Studio'
_symmetry_space_group_name_H-M    'P1'
_symmetry_Int_Tables_number       1
_symmetry_cell_setting            triclinic
loop_
_symmetry_equiv_pos_as_xyz
  x,y,z
_cell_length_a                    10.9946
_cell_length_b                    9.6227
_cell_length_c                    21.8518
_cell_angle_alpha                 90.0000
_cell_angle_beta                  114.2462
_cell_angle_gamma                 90.0000
loop_
_atom_site_label
_atom_site_type_symbol
_atom_site_fract_x
_atom_site_fract_y
_atom_site_fract_z
_atom_site_U_iso_or_equiv
_atom_site_adp_type
_atom_site_occupancy
C1     C     0.52989   0.73891   0.71499   0.00000  Uiso   1.00
C2     C     0.42780   0.63780   0.66755   0.00000  Uiso   1.00
C3     C     0.30076   0.61413   0.66428   0.00000  Uiso   1.00
C4     C     0.22254   0.51750   0.61748   0.00000  Uiso   1.00
C5     C     0.05686   0.37116   0.55023   0.00000  Uiso   1.00
C6     C     0.65455   0.65318   0.75393   0.00000  Uiso   1.00
C7     C     0.71817   0.64245   0.82329   0.00000  Uiso   1.00
C8     C     0.83086   0.55877   0.84921   0.00000  Uiso   1.00
C9     C     0.01727   0.43639   0.91606   0.00000  Uiso   1.00
C10    C     0.56694   0.83697   0.67053   0.00000  Uiso   1.00
C11    C     0.55693   0.98078   0.66978   0.00000  Uiso   1.00
C12    C     0.59588   0.05184   0.62549   0.00000  Uiso   1.00
C13    C     0.64626   0.21482   0.56286   0.00000  Uiso   1.00
C14    C     0.61689   0.60938   0.63771   0.00000  Uiso   1.00
C15    C     0.47506   0.56745   0.62557   0.00000  Uiso   1.00
C16    C     0.39702   0.47083   0.57877   0.00000  Uiso   1.00
C17    C     0.26988   0.44702   0.57543   0.00000  Uiso   1.00
C18    C     0.70181   0.58283   0.71196   0.00000  Uiso   1.00
C19    C     0.81444   0.49915   0.73778   0.00000  Uiso   1.00
C20    C     0.87820   0.48829   0.80715   0.00000  Uiso   1.00
C21    C     0.61420   0.76662   0.62855   0.00000  Uiso   1.00
C22    C     0.65319   0.83747   0.58427   0.00000  Uiso   1.00
C23    C     0.64323   0.98137   0.58344   0.00000  Uiso   1.00
H24    H     0.49310   0.79367   0.74768   0.00000  Uiso   1.00
H25    H     0.26422   0.66859   0.69678   0.00000  Uiso   1.00
H26    H     0.68159   0.69692   0.85576   0.00000  Uiso   1.00
H27    H     0.52036   0.03519   0.70227   0.00000  Uiso   1.00
H28    H     0.03133   0.49884   0.62185   0.00000  Uiso   1.00
H29    H     0.91138   0.55861   0.95708   0.00000  Uiso   1.00
H30    H     0.57141   0.27193   0.63342   0.00000  Uiso   1.00
H31    H     0.65369   0.55461   0.60502   0.00000  Uiso   1.00
H32    H     0.43362   0.41640   0.54629   0.00000  Uiso   1.00
H33    H     0.85098   0.44473   0.70528   0.00000  Uiso   1.00
H34    H     0.68975   0.78300   0.55179   0.00000  Uiso   1.00
H35    H     0.16882   0.29415   0.49971   0.00000  Uiso   1.00
H36    H     0.04888   0.35393   0.83494   0.00000  Uiso   1.00
H37    H     0.70890   0.06724   0.51128   0.00000  Uiso   1.00
O38    O     0.95242   0.30986   0.52474   0.00000  Uiso   1.00
O39    O     0.10703   0.38831   0.96454   0.00000  Uiso   1.00
O40    O     0.66098   0.32415   0.53990   0.00000  Uiso   1.00
N41    N     0.09388   0.46966   0.60116   0.00000  Uiso   1.00
N42    N     0.91667   0.52552   0.91457   0.00000  Uiso   1.00
N43    N     0.59885   0.19241   0.61199   0.00000  Uiso   1.00
N44    N     0.16786   0.35952   0.53543   0.00000  Uiso   1.00
N45    N     0.99065   0.41538   0.84885   0.00000  Uiso   1.00
N46    N     0.67283   0.08227   0.54627   0.00000  Uiso   1.00
C47    C     0.47011   0.23891   0.78501   0.00000  Uiso   1.00
C48    C     0.57220   0.13780   0.83245   0.00000  Uiso   1.00
C49    C     0.69924   0.11413   0.83572   0.00000  Uiso   1.00
C50    C     0.77746   0.01750   0.88252   0.00000  Uiso   1.00
C51    C     0.94314   0.87116   0.94977   0.00000  Uiso   1.00
C52    C     0.34545   0.15318   0.74607   0.00000  Uiso   1.00
C53    C     0.28183   0.14245   0.67671   0.00000  Uiso   1.00
C54    C     0.16914   0.05877   0.65079   0.00000  Uiso   1.00
C55    C     0.98273   0.93639   0.58394   0.00000  Uiso   1.00
C56    C     0.43306   0.33697   0.82947   0.00000  Uiso   1.00
C57    C     0.44307   0.48078   0.83022   0.00000  Uiso   1.00
C58    C     0.40412   0.55184   0.87451   0.00000  Uiso   1.00
C59    C     0.35374   0.71482   0.93714   0.00000  Uiso   1.00
C60    C     0.38311   0.10938   0.86229   0.00000  Uiso   1.00
C61    C     0.52494   0.06745   0.87443   0.00000  Uiso   1.00
C62    C     0.60298   0.97083   0.92123   0.00000  Uiso   1.00
C63    C     0.73012   0.94702   0.92457   0.00000  Uiso   1.00
C64    C     0.29819   0.08283   0.78804   0.00000  Uiso   1.00
C65    C     0.18556   0.99915   0.76222   0.00000  Uiso   1.00
C66    C     0.12180   0.98829   0.69285   0.00000  Uiso   1.00
C67    C     0.38580   0.26662   0.87145   0.00000  Uiso   1.00
C68    C     0.34681   0.33747   0.91573   0.00000  Uiso   1.00
C69    C     0.35677   0.48137   0.91656   0.00000  Uiso   1.00
H70    H     0.50690   0.29367   0.75232   0.00000  Uiso   1.00
H71    H     0.73578   0.16859   0.80322   0.00000  Uiso   1.00
H72    H     0.31841   0.19692   0.64424   0.00000  Uiso   1.00
H73    H     0.47964   0.53519   0.79773   0.00000  Uiso   1.00
H74    H     0.96867   0.99884   0.87815   0.00000  Uiso   1.00
H75    H     0.08862   0.05861   0.54292   0.00000  Uiso   1.00
H76    H     0.42859   0.77193   0.86658   0.00000  Uiso   1.00
H77    H     0.34631   0.05461   0.89498   0.00000  Uiso   1.00
H78    H     0.56638   0.91640   0.95371   0.00000  Uiso   1.00
H79    H     0.14902   0.94473   0.79472   0.00000  Uiso   1.00
H80    H     0.31025   0.28300   0.94821   0.00000  Uiso   1.00
H81    H     0.83118   0.79415   0.00029   0.00000  Uiso   1.00
H82    H     0.95112   0.85393   0.66506   0.00000  Uiso   1.00
H83    H     0.29110   0.56724   0.98872   0.00000  Uiso   1.00
O84    O     0.04758   0.80986   0.97526   0.00000  Uiso   1.00
O85    O     0.89297   0.88831   0.53546   0.00000  Uiso   1.00
O86    O     0.33902   0.82415   0.96010   0.00000  Uiso   1.00
N87    N     0.90612   0.96966   0.89884   0.00000  Uiso   1.00
N88    N     0.08333   0.02552   0.58543   0.00000  Uiso   1.00
N89    N     0.40115   0.69241   0.88801   0.00000  Uiso   1.00
N90    N     0.83214   0.85952   0.96457   0.00000  Uiso   1.00
N91    N     0.00935   0.91538   0.65115   0.00000  Uiso   1.00
N92    N     0.32717   0.58227   0.95373   0.00000  Uiso   1.00
C93    C     0.47011   0.26109   0.28501   0.00000  Uiso   1.00
C94    C     0.57220   0.36220   0.33245   0.00000  Uiso   1.00
C95    C     0.69924   0.38587   0.33572   0.00000  Uiso   1.00
C96    C     0.77746   0.48250   0.38252   0.00000  Uiso   1.00
C97    C     0.94314   0.62884   0.44977   0.00000  Uiso   1.00
C98    C     0.34545   0.34682   0.24607   0.00000  Uiso   1.00
C99    C     0.28183   0.35755   0.17671   0.00000  Uiso   1.00
C100   C     0.16914   0.44123   0.15079   0.00000  Uiso   1.00
C101   C     0.98273   0.56361   0.08394   0.00000  Uiso   1.00
C102   C     0.43306   0.16303   0.32947   0.00000  Uiso   1.00
C103   C     0.44307   0.01922   0.33022   0.00000  Uiso   1.00
C104   C     0.40412   0.94816   0.37451   0.00000  Uiso   1.00
C105   C     0.35374   0.78518   0.43714   0.00000  Uiso   1.00
C106   C     0.38311   0.39062   0.36229   0.00000  Uiso   1.00
C107   C     0.52494   0.43255   0.37443   0.00000  Uiso   1.00
C108   C     0.60298   0.52917   0.42123   0.00000  Uiso   1.00
C109   C     0.73012   0.55298   0.42457   0.00000  Uiso   1.00
C110   C     0.29819   0.41717   0.28804   0.00000  Uiso   1.00
C111   C     0.18556   0.50085   0.26222   0.00000  Uiso   1.00
C112   C     0.12180   0.51171   0.19285   0.00000  Uiso   1.00
C113   C     0.38580   0.23338   0.37145   0.00000  Uiso   1.00
C114   C     0.34681   0.16253   0.41573   0.00000  Uiso   1.00
C115   C     0.35677   0.01863   0.41656   0.00000  Uiso   1.00
H116   H     0.50690   0.20633   0.25232   0.00000  Uiso   1.00
H117   H     0.73578   0.33141   0.30322   0.00000  Uiso   1.00
H118   H     0.31841   0.30308   0.14424   0.00000  Uiso   1.00
H119   H     0.47964   0.96481   0.29773   0.00000  Uiso   1.00
H120   H     0.96867   0.50116   0.37815   0.00000  Uiso   1.00
H121   H     0.08862   0.44139   0.04292   0.00000  Uiso   1.00
H122   H     0.42859   0.72807   0.36658   0.00000  Uiso   1.00
H123   H     0.34631   0.44539   0.39498   0.00000  Uiso   1.00
H124   H     0.56638   0.58360   0.45371   0.00000  Uiso   1.00
H125   H     0.14902   0.55527   0.29472   0.00000  Uiso   1.00
H126   H     0.31025   0.21700   0.44821   0.00000  Uiso   1.00
H127   H     0.83118   0.70585   0.50029   0.00000  Uiso   1.00
H128   H     0.95112   0.64607   0.16506   0.00000  Uiso   1.00
H129   H     0.29110   0.93276   0.48872   0.00000  Uiso   1.00
O130   O     0.04758   0.69014   0.47526   0.00000  Uiso   1.00
O131   O     0.89297   0.61169   0.03546   0.00000  Uiso   1.00
O132   O     0.33902   0.67585   0.46010   0.00000  Uiso   1.00
N133   N     0.90612   0.53034   0.39884   0.00000  Uiso   1.00
N134   N     0.08333   0.47448   0.08543   0.00000  Uiso   1.00
N135   N     0.40115   0.80759   0.38801   0.00000  Uiso   1.00
N136   N     0.83214   0.64048   0.46457   0.00000  Uiso   1.00
N137   N     0.00935   0.58462   0.15115   0.00000  Uiso   1.00
N138   N     0.32717   0.91773   0.45373   0.00000  Uiso   1.00
C139   C     0.52989   0.76109   0.21499   0.00000  Uiso   1.00
C140   C     0.42780   0.86220   0.16755   0.00000  Uiso   1.00
C141   C     0.30076   0.88587   0.16428   0.00000  Uiso   1.00
C142   C     0.22254   0.98250   0.11748   0.00000  Uiso   1.00
C143   C     0.05686   0.12884   0.05023   0.00000  Uiso   1.00
C144   C     0.65455   0.84682   0.25393   0.00000  Uiso   1.00
C145   C     0.71817   0.85755   0.32329   0.00000  Uiso   1.00
C146   C     0.83086   0.94123   0.34921   0.00000  Uiso   1.00
C147   C     0.01727   0.06361   0.41606   0.00000  Uiso   1.00
C148   C     0.56694   0.66303   0.17053   0.00000  Uiso   1.00
C149   C     0.55693   0.51922   0.16978   0.00000  Uiso   1.00
C150   C     0.59588   0.44816   0.12549   0.00000  Uiso   1.00
C151   C     0.64626   0.28518   0.06286   0.00000  Uiso   1.00
C152   C     0.61689   0.89062   0.13771   0.00000  Uiso   1.00
C153   C     0.47506   0.93255   0.12557   0.00000  Uiso   1.00
C154   C     0.39702   0.02917   0.07877   0.00000  Uiso   1.00
C155   C     0.26988   0.05298   0.07543   0.00000  Uiso   1.00
C156   C     0.70181   0.91717   0.21196   0.00000  Uiso   1.00
C157   C     0.81444   0.00085   0.23778   0.00000  Uiso   1.00
C158   C     0.87820   0.01171   0.30715   0.00000  Uiso   1.00
C159   C     0.61420   0.73338   0.12855   0.00000  Uiso   1.00
C160   C     0.65319   0.66253   0.08427   0.00000  Uiso   1.00
C161   C     0.64323   0.51863   0.08344   0.00000  Uiso   1.00
H162   H     0.49310   0.70633   0.24768   0.00000  Uiso   1.00
H163   H     0.26422   0.83141   0.19678   0.00000  Uiso   1.00
H164   H     0.68159   0.80308   0.35576   0.00000  Uiso   1.00
H165   H     0.52036   0.46481   0.20227   0.00000  Uiso   1.00
H166   H     0.03133   0.00116   0.12185   0.00000  Uiso   1.00
H167   H     0.91138   0.94139   0.45708   0.00000  Uiso   1.00
H168   H     0.57141   0.22807   0.13342   0.00000  Uiso   1.00
H169   H     0.65369   0.94539   0.10502   0.00000  Uiso   1.00
H170   H     0.43362   0.08360   0.04629   0.00000  Uiso   1.00
H171   H     0.85098   0.05527   0.20528   0.00000  Uiso   1.00
H172   H     0.68975   0.71700   0.05179   0.00000  Uiso   1.00
H173   H     0.16882   0.20585   0.99971   0.00000  Uiso   1.00
H174   H     0.04888   0.14607   0.33494   0.00000  Uiso   1.00
H175   H     0.70890   0.43276   0.01128   0.00000  Uiso   1.00
O176   O     0.95242   0.19014   0.02474   0.00000  Uiso   1.00
O177   O     0.10703   0.11169   0.46454   0.00000  Uiso   1.00
O178   O     0.66098   0.17585   0.03990   0.00000  Uiso   1.00
N179   N     0.09388   0.03034   0.10116   0.00000  Uiso   1.00
N180   N     0.91667   0.97448   0.41457   0.00000  Uiso   1.00
N181   N     0.59885   0.30759   0.11199   0.00000  Uiso   1.00
N182   N     0.16786   0.14048   0.03543   0.00000  Uiso   1.00
N183   N     0.99065   0.08462   0.34885   0.00000  Uiso   1.00
N184   N     0.67283   0.41773   0.04627   0.00000  Uiso   1.00
