data_job_00065
_audit_creation_date              2018-12-19
_audit_creation_method            'Materials Studio'
_symmetry_space_group_name_H-M    'P1'
_symmetry_Int_Tables_number       1
_symmetry_cell_setting            triclinic
loop_
_symmetry_equiv_pos_as_xyz
  x,y,z
_cell_length_a                    41.0210
_cell_length_b                    7.2249
_cell_length_c                    23.6336
_cell_angle_alpha                 90.0000
_cell_angle_beta                  90.0000
_cell_angle_gamma                 90.0000
loop_
_atom_site_label
_atom_site_type_symbol
_atom_site_fract_x
_atom_site_fract_y
_atom_site_fract_z
_atom_site_U_iso_or_equiv
_atom_site_adp_type
_atom_site_occupancy
C1     C     0.41319   0.42853   0.60982   0.00000  Uiso   1.00
C2     C     0.43214   0.34692   0.56024   0.00000  Uiso   1.00
C3     C     0.44808   0.44733   0.51852   0.00000  Uiso   1.00
C4     C     0.46403   0.34694   0.47678   0.00000  Uiso   1.00
C5     C     0.49345   0.24970   0.39976   0.00000  Uiso   1.00
C6     C     0.37896   0.34705   0.60613   0.00000  Uiso   1.00
C7     C     0.35019   0.44758   0.60301   0.00000  Uiso   1.00
C8     C     0.32137   0.34729   0.59990   0.00000  Uiso   1.00
C9     C     0.26822   0.25026   0.59418   0.00000  Uiso   1.00
C10    C     0.42845   0.34706   0.66313   0.00000  Uiso   1.00
C11    C     0.44127   0.44760   0.70794   0.00000  Uiso   1.00
C12    C     0.45411   0.34732   0.75283   0.00000  Uiso   1.00
C13    C     0.47780   0.25031   0.83560   0.00000  Uiso   1.00
C14    C     0.41317   0.07166   0.60987   0.00000  Uiso   1.00
C15    C     0.43213   0.15308   0.56026   0.00000  Uiso   1.00
C16    C     0.44806   0.05250   0.51857   0.00000  Uiso   1.00
C17    C     0.46403   0.15275   0.47680   0.00000  Uiso   1.00
C18    C     0.37895   0.15322   0.60615   0.00000  Uiso   1.00
C19    C     0.35017   0.05275   0.60306   0.00000  Uiso   1.00
C20    C     0.32136   0.15311   0.59993   0.00000  Uiso   1.00
C21    C     0.42844   0.15322   0.66315   0.00000  Uiso   1.00
C22    C     0.44126   0.05277   0.70798   0.00000  Uiso   1.00
C23    C     0.45410   0.15313   0.75285   0.00000  Uiso   1.00
H24    H     0.41319   0.57943   0.60980   0.00000  Uiso   1.00
H25    H     0.44808   0.59734   0.51851   0.00000  Uiso   1.00
H26    H     0.35020   0.59758   0.60299   0.00000  Uiso   1.00
H27    H     0.44128   0.59760   0.70790   0.00000  Uiso   1.00
H28    H     0.48675   0.53171   0.41730   0.00000  Uiso   1.00
H29    H     0.28036   0.53223   0.59545   0.00000  Uiso   1.00
H30    H     0.47241   0.53226   0.81668   0.00000  Uiso   1.00
H31    H     0.41316   0.92075   0.60989   0.00000  Uiso   1.00
H32    H     0.44805   0.90250   0.51860   0.00000  Uiso   1.00
H33    H     0.35017   0.90275   0.60308   0.00000  Uiso   1.00
H34    H     0.44125   0.90277   0.70799   0.00000  Uiso   1.00
H35    H     0.48672   0.96775   0.41737   0.00000  Uiso   1.00
H36    H     0.28034   0.96828   0.59552   0.00000  Uiso   1.00
H37    H     0.47238   0.96831   0.81674   0.00000  Uiso   1.00
O38    O     0.50968   0.24961   0.35728   0.00000  Uiso   1.00
O39    O     0.23891   0.25030   0.59101   0.00000  Uiso   1.00
O40    O     0.49087   0.25035   0.88125   0.00000  Uiso   1.00
N41    N     0.48196   0.40148   0.42985   0.00000  Uiso   1.00
N42    N     0.28900   0.40197   0.59640   0.00000  Uiso   1.00
N43    N     0.46854   0.40200   0.80323   0.00000  Uiso   1.00
N44    N     0.48195   0.09802   0.42989   0.00000  Uiso   1.00
N45    N     0.28899   0.09851   0.59644   0.00000  Uiso   1.00
N46    N     0.46853   0.09855   0.80327   0.00000  Uiso   1.00
C47    C     0.08681   0.07147   0.10982   0.00000  Uiso   1.00
C48    C     0.06786   0.15308   0.06024   0.00000  Uiso   1.00
C49    C     0.05192   0.05267   0.01852   0.00000  Uiso   1.00
C50    C     0.03597   0.15306   0.97678   0.00000  Uiso   1.00
C51    C     0.00655   0.25030   0.89976   0.00000  Uiso   1.00
C52    C     0.12104   0.15295   0.10613   0.00000  Uiso   1.00
C53    C     0.14981   0.05242   0.10301   0.00000  Uiso   1.00
C54    C     0.17863   0.15271   0.09990   0.00000  Uiso   1.00
C55    C     0.23178   0.24974   0.09418   0.00000  Uiso   1.00
C56    C     0.07155   0.15294   0.16313   0.00000  Uiso   1.00
C57    C     0.05873   0.05240   0.20794   0.00000  Uiso   1.00
C58    C     0.04589   0.15268   0.25283   0.00000  Uiso   1.00
C59    C     0.02220   0.24969   0.33560   0.00000  Uiso   1.00
C60    C     0.08683   0.42834   0.10987   0.00000  Uiso   1.00
C61    C     0.06787   0.34692   0.06026   0.00000  Uiso   1.00
C62    C     0.05194   0.44750   0.01857   0.00000  Uiso   1.00
C63    C     0.03597   0.34725   0.97680   0.00000  Uiso   1.00
C64    C     0.12105   0.34678   0.10615   0.00000  Uiso   1.00
C65    C     0.14983   0.44725   0.10306   0.00000  Uiso   1.00
C66    C     0.17864   0.34689   0.09993   0.00000  Uiso   1.00
C67    C     0.07156   0.34678   0.16315   0.00000  Uiso   1.00
C68    C     0.05874   0.44723   0.20798   0.00000  Uiso   1.00
C69    C     0.04590   0.34687   0.25285   0.00000  Uiso   1.00
H70    H     0.08681   0.92057   0.10980   0.00000  Uiso   1.00
H71    H     0.05192   0.90266   0.01851   0.00000  Uiso   1.00
H72    H     0.14980   0.90242   0.10299   0.00000  Uiso   1.00
H73    H     0.05872   0.90240   0.20790   0.00000  Uiso   1.00
H74    H     0.01325   0.96829   0.91730   0.00000  Uiso   1.00
H75    H     0.21964   0.96777   0.09545   0.00000  Uiso   1.00
H76    H     0.02759   0.96774   0.31668   0.00000  Uiso   1.00
H77    H     0.08684   0.57925   0.10989   0.00000  Uiso   1.00
H78    H     0.05195   0.59750   0.01860   0.00000  Uiso   1.00
H79    H     0.14983   0.59725   0.10308   0.00000  Uiso   1.00
H80    H     0.05875   0.59723   0.20799   0.00000  Uiso   1.00
H81    H     0.01328   0.53225   0.91737   0.00000  Uiso   1.00
H82    H     0.21966   0.53172   0.09552   0.00000  Uiso   1.00
H83    H     0.02762   0.53169   0.31674   0.00000  Uiso   1.00
O84    O     0.99032   0.25039   0.85728   0.00000  Uiso   1.00
O85    O     0.26109   0.24970   0.09101   0.00000  Uiso   1.00
O86    O     0.00913   0.24965   0.38125   0.00000  Uiso   1.00
N87    N     0.01804   0.09852   0.92985   0.00000  Uiso   1.00
N88    N     0.21100   0.09803   0.09640   0.00000  Uiso   1.00
N89    N     0.03146   0.09800   0.30323   0.00000  Uiso   1.00
N90    N     0.01805   0.40198   0.92989   0.00000  Uiso   1.00
N91    N     0.21101   0.40149   0.09644   0.00000  Uiso   1.00
N92    N     0.03147   0.40145   0.30327   0.00000  Uiso   1.00
C93    C     0.58681   0.42853   0.89018   0.00000  Uiso   1.00
C94    C     0.56786   0.34692   0.93976   0.00000  Uiso   1.00
C95    C     0.55192   0.44733   0.98148   0.00000  Uiso   1.00
C96    C     0.53597   0.34694   0.02322   0.00000  Uiso   1.00
C97    C     0.50655   0.24970   0.10024   0.00000  Uiso   1.00
C98    C     0.62104   0.34705   0.89387   0.00000  Uiso   1.00
C99    C     0.64981   0.44758   0.89699   0.00000  Uiso   1.00
C100   C     0.67863   0.34729   0.90010   0.00000  Uiso   1.00
C101   C     0.73178   0.25026   0.90582   0.00000  Uiso   1.00
C102   C     0.57155   0.34706   0.83687   0.00000  Uiso   1.00
C103   C     0.55873   0.44760   0.79206   0.00000  Uiso   1.00
C104   C     0.54589   0.34732   0.74717   0.00000  Uiso   1.00
C105   C     0.52220   0.25031   0.66440   0.00000  Uiso   1.00
C106   C     0.58683   0.07166   0.89013   0.00000  Uiso   1.00
C107   C     0.56787   0.15308   0.93974   0.00000  Uiso   1.00
C108   C     0.55194   0.05250   0.98143   0.00000  Uiso   1.00
C109   C     0.53597   0.15275   0.02320   0.00000  Uiso   1.00
C110   C     0.62105   0.15322   0.89385   0.00000  Uiso   1.00
C111   C     0.64983   0.05275   0.89694   0.00000  Uiso   1.00
C112   C     0.67864   0.15311   0.90007   0.00000  Uiso   1.00
C113   C     0.57156   0.15322   0.83685   0.00000  Uiso   1.00
C114   C     0.55874   0.05277   0.79202   0.00000  Uiso   1.00
C115   C     0.54590   0.15313   0.74715   0.00000  Uiso   1.00
H116   H     0.58681   0.57943   0.89020   0.00000  Uiso   1.00
H117   H     0.55192   0.59734   0.98149   0.00000  Uiso   1.00
H118   H     0.64980   0.59758   0.89701   0.00000  Uiso   1.00
H119   H     0.55872   0.59760   0.79210   0.00000  Uiso   1.00
H120   H     0.51325   0.53171   0.08270   0.00000  Uiso   1.00
H121   H     0.71964   0.53223   0.90455   0.00000  Uiso   1.00
H122   H     0.52759   0.53226   0.68332   0.00000  Uiso   1.00
H123   H     0.58684   0.92075   0.89011   0.00000  Uiso   1.00
H124   H     0.55195   0.90250   0.98140   0.00000  Uiso   1.00
H125   H     0.64983   0.90275   0.89692   0.00000  Uiso   1.00
H126   H     0.55875   0.90277   0.79201   0.00000  Uiso   1.00
H127   H     0.51328   0.96775   0.08263   0.00000  Uiso   1.00
H128   H     0.71966   0.96828   0.90448   0.00000  Uiso   1.00
H129   H     0.52762   0.96831   0.68326   0.00000  Uiso   1.00
O130   O     0.49032   0.24961   0.14272   0.00000  Uiso   1.00
O131   O     0.76109   0.25030   0.90899   0.00000  Uiso   1.00
O132   O     0.50913   0.25035   0.61875   0.00000  Uiso   1.00
N133   N     0.51804   0.40148   0.07015   0.00000  Uiso   1.00
N134   N     0.71100   0.40197   0.90360   0.00000  Uiso   1.00
N135   N     0.53146   0.40200   0.69677   0.00000  Uiso   1.00
N136   N     0.51805   0.09802   0.07011   0.00000  Uiso   1.00
N137   N     0.71101   0.09851   0.90356   0.00000  Uiso   1.00
N138   N     0.53147   0.09855   0.69673   0.00000  Uiso   1.00
C139   C     0.91319   0.07147   0.39018   0.00000  Uiso   1.00
C140   C     0.93214   0.15308   0.43976   0.00000  Uiso   1.00
C141   C     0.94808   0.05267   0.48148   0.00000  Uiso   1.00
C142   C     0.96403   0.15306   0.52322   0.00000  Uiso   1.00
C143   C     0.99345   0.25030   0.60024   0.00000  Uiso   1.00
C144   C     0.87896   0.15295   0.39387   0.00000  Uiso   1.00
C145   C     0.85019   0.05242   0.39699   0.00000  Uiso   1.00
C146   C     0.82137   0.15271   0.40010   0.00000  Uiso   1.00
C147   C     0.76822   0.24974   0.40582   0.00000  Uiso   1.00
C148   C     0.92845   0.15294   0.33687   0.00000  Uiso   1.00
C149   C     0.94127   0.05240   0.29206   0.00000  Uiso   1.00
C150   C     0.95411   0.15268   0.24717   0.00000  Uiso   1.00
C151   C     0.97780   0.24969   0.16440   0.00000  Uiso   1.00
C152   C     0.91317   0.42834   0.39013   0.00000  Uiso   1.00
C153   C     0.93213   0.34692   0.43974   0.00000  Uiso   1.00
C154   C     0.94806   0.44750   0.48143   0.00000  Uiso   1.00
C155   C     0.96403   0.34725   0.52320   0.00000  Uiso   1.00
C156   C     0.87895   0.34678   0.39385   0.00000  Uiso   1.00
C157   C     0.85017   0.44725   0.39694   0.00000  Uiso   1.00
C158   C     0.82136   0.34689   0.40007   0.00000  Uiso   1.00
C159   C     0.92844   0.34678   0.33685   0.00000  Uiso   1.00
C160   C     0.94126   0.44723   0.29202   0.00000  Uiso   1.00
C161   C     0.95410   0.34687   0.24715   0.00000  Uiso   1.00
H162   H     0.91319   0.92057   0.39020   0.00000  Uiso   1.00
H163   H     0.94808   0.90266   0.48149   0.00000  Uiso   1.00
H164   H     0.85020   0.90242   0.39701   0.00000  Uiso   1.00
H165   H     0.94128   0.90240   0.29210   0.00000  Uiso   1.00
H166   H     0.98675   0.96829   0.58270   0.00000  Uiso   1.00
H167   H     0.78036   0.96777   0.40455   0.00000  Uiso   1.00
H168   H     0.97241   0.96774   0.18332   0.00000  Uiso   1.00
H169   H     0.91316   0.57925   0.39011   0.00000  Uiso   1.00
H170   H     0.94805   0.59750   0.48140   0.00000  Uiso   1.00
H171   H     0.85017   0.59725   0.39692   0.00000  Uiso   1.00
H172   H     0.94125   0.59723   0.29201   0.00000  Uiso   1.00
H173   H     0.98672   0.53225   0.58263   0.00000  Uiso   1.00
H174   H     0.78034   0.53172   0.40448   0.00000  Uiso   1.00
H175   H     0.97238   0.53169   0.18326   0.00000  Uiso   1.00
O176   O     0.00968   0.25039   0.64272   0.00000  Uiso   1.00
O177   O     0.73891   0.24970   0.40899   0.00000  Uiso   1.00
O178   O     0.99087   0.24965   0.11875   0.00000  Uiso   1.00
N179   N     0.98196   0.09852   0.57015   0.00000  Uiso   1.00
N180   N     0.78900   0.09803   0.40360   0.00000  Uiso   1.00
N181   N     0.96854   0.09800   0.19677   0.00000  Uiso   1.00
N182   N     0.98195   0.40198   0.57011   0.00000  Uiso   1.00
N183   N     0.78899   0.40149   0.40356   0.00000  Uiso   1.00
N184   N     0.96853   0.40145   0.19673   0.00000  Uiso   1.00
C185   C     0.58681   0.57147   0.39018   0.00000  Uiso   1.00
C186   C     0.56786   0.65308   0.43976   0.00000  Uiso   1.00
C187   C     0.55192   0.55267   0.48148   0.00000  Uiso   1.00
C188   C     0.53597   0.65306   0.52322   0.00000  Uiso   1.00
C189   C     0.50655   0.75030   0.60024   0.00000  Uiso   1.00
C190   C     0.62104   0.65295   0.39387   0.00000  Uiso   1.00
C191   C     0.64981   0.55242   0.39699   0.00000  Uiso   1.00
C192   C     0.67863   0.65271   0.40010   0.00000  Uiso   1.00
C193   C     0.73178   0.74974   0.40582   0.00000  Uiso   1.00
C194   C     0.57155   0.65294   0.33687   0.00000  Uiso   1.00
C195   C     0.55873   0.55240   0.29206   0.00000  Uiso   1.00
C196   C     0.54589   0.65268   0.24717   0.00000  Uiso   1.00
C197   C     0.52220   0.74969   0.16440   0.00000  Uiso   1.00
C198   C     0.58683   0.92834   0.39013   0.00000  Uiso   1.00
C199   C     0.56787   0.84692   0.43974   0.00000  Uiso   1.00
C200   C     0.55194   0.94750   0.48143   0.00000  Uiso   1.00
C201   C     0.53597   0.84725   0.52320   0.00000  Uiso   1.00
C202   C     0.62105   0.84678   0.39385   0.00000  Uiso   1.00
C203   C     0.64983   0.94725   0.39694   0.00000  Uiso   1.00
C204   C     0.67864   0.84689   0.40007   0.00000  Uiso   1.00
C205   C     0.57156   0.84678   0.33685   0.00000  Uiso   1.00
C206   C     0.55874   0.94723   0.29202   0.00000  Uiso   1.00
C207   C     0.54590   0.84687   0.24715   0.00000  Uiso   1.00
H208   H     0.58681   0.42057   0.39020   0.00000  Uiso   1.00
H209   H     0.55192   0.40266   0.48149   0.00000  Uiso   1.00
H210   H     0.64980   0.40242   0.39701   0.00000  Uiso   1.00
H211   H     0.55872   0.40240   0.29210   0.00000  Uiso   1.00
H212   H     0.51325   0.46829   0.58270   0.00000  Uiso   1.00
H213   H     0.71964   0.46777   0.40455   0.00000  Uiso   1.00
H214   H     0.52759   0.46774   0.18332   0.00000  Uiso   1.00
H215   H     0.58684   0.07925   0.39011   0.00000  Uiso   1.00
H216   H     0.55195   0.09750   0.48140   0.00000  Uiso   1.00
H217   H     0.64983   0.09725   0.39692   0.00000  Uiso   1.00
H218   H     0.55875   0.09723   0.29201   0.00000  Uiso   1.00
H219   H     0.51328   0.03225   0.58263   0.00000  Uiso   1.00
H220   H     0.71966   0.03172   0.40448   0.00000  Uiso   1.00
H221   H     0.52762   0.03169   0.18326   0.00000  Uiso   1.00
O222   O     0.49032   0.75039   0.64272   0.00000  Uiso   1.00
O223   O     0.76109   0.74970   0.40899   0.00000  Uiso   1.00
O224   O     0.50913   0.74965   0.11875   0.00000  Uiso   1.00
N225   N     0.51804   0.59852   0.57015   0.00000  Uiso   1.00
N226   N     0.71100   0.59803   0.40360   0.00000  Uiso   1.00
N227   N     0.53146   0.59800   0.19677   0.00000  Uiso   1.00
N228   N     0.51805   0.90198   0.57011   0.00000  Uiso   1.00
N229   N     0.71101   0.90149   0.40356   0.00000  Uiso   1.00
N230   N     0.53147   0.90145   0.19673   0.00000  Uiso   1.00
C231   C     0.91319   0.92853   0.89018   0.00000  Uiso   1.00
C232   C     0.93214   0.84692   0.93976   0.00000  Uiso   1.00
C233   C     0.94808   0.94733   0.98148   0.00000  Uiso   1.00
C234   C     0.96403   0.84694   0.02322   0.00000  Uiso   1.00
C235   C     0.99345   0.74970   0.10024   0.00000  Uiso   1.00
C236   C     0.87896   0.84705   0.89387   0.00000  Uiso   1.00
C237   C     0.85019   0.94758   0.89699   0.00000  Uiso   1.00
C238   C     0.82137   0.84729   0.90010   0.00000  Uiso   1.00
C239   C     0.76822   0.75026   0.90582   0.00000  Uiso   1.00
C240   C     0.92845   0.84706   0.83687   0.00000  Uiso   1.00
C241   C     0.94127   0.94760   0.79206   0.00000  Uiso   1.00
C242   C     0.95411   0.84732   0.74717   0.00000  Uiso   1.00
C243   C     0.97780   0.75031   0.66440   0.00000  Uiso   1.00
C244   C     0.91317   0.57166   0.89013   0.00000  Uiso   1.00
C245   C     0.93213   0.65308   0.93974   0.00000  Uiso   1.00
C246   C     0.94806   0.55250   0.98143   0.00000  Uiso   1.00
C247   C     0.96403   0.65275   0.02320   0.00000  Uiso   1.00
C248   C     0.87895   0.65322   0.89385   0.00000  Uiso   1.00
C249   C     0.85017   0.55275   0.89694   0.00000  Uiso   1.00
C250   C     0.82136   0.65311   0.90007   0.00000  Uiso   1.00
C251   C     0.92844   0.65322   0.83685   0.00000  Uiso   1.00
C252   C     0.94126   0.55277   0.79202   0.00000  Uiso   1.00
C253   C     0.95410   0.65313   0.74715   0.00000  Uiso   1.00
H254   H     0.91319   0.07943   0.89020   0.00000  Uiso   1.00
H255   H     0.94808   0.09734   0.98149   0.00000  Uiso   1.00
H256   H     0.85020   0.09758   0.89701   0.00000  Uiso   1.00
H257   H     0.94128   0.09760   0.79210   0.00000  Uiso   1.00
H258   H     0.98675   0.03171   0.08270   0.00000  Uiso   1.00
H259   H     0.78036   0.03223   0.90455   0.00000  Uiso   1.00
H260   H     0.97241   0.03226   0.68332   0.00000  Uiso   1.00
H261   H     0.91316   0.42075   0.89011   0.00000  Uiso   1.00
H262   H     0.94805   0.40250   0.98140   0.00000  Uiso   1.00
H263   H     0.85017   0.40275   0.89692   0.00000  Uiso   1.00
H264   H     0.94125   0.40277   0.79201   0.00000  Uiso   1.00
H265   H     0.98672   0.46775   0.08263   0.00000  Uiso   1.00
H266   H     0.78034   0.46828   0.90448   0.00000  Uiso   1.00
H267   H     0.97238   0.46831   0.68326   0.00000  Uiso   1.00
O268   O     0.00968   0.74961   0.14272   0.00000  Uiso   1.00
O269   O     0.73891   0.75030   0.90899   0.00000  Uiso   1.00
O270   O     0.99087   0.75035   0.61875   0.00000  Uiso   1.00
N271   N     0.98196   0.90148   0.07015   0.00000  Uiso   1.00
N272   N     0.78900   0.90197   0.90360   0.00000  Uiso   1.00
N273   N     0.96854   0.90200   0.69677   0.00000  Uiso   1.00
N274   N     0.98195   0.59802   0.07011   0.00000  Uiso   1.00
N275   N     0.78899   0.59851   0.90356   0.00000  Uiso   1.00
N276   N     0.96853   0.59855   0.69673   0.00000  Uiso   1.00
C277   C     0.41319   0.57147   0.10982   0.00000  Uiso   1.00
C278   C     0.43214   0.65308   0.06024   0.00000  Uiso   1.00
C279   C     0.44808   0.55267   0.01852   0.00000  Uiso   1.00
C280   C     0.46403   0.65306   0.97678   0.00000  Uiso   1.00
C281   C     0.49345   0.75030   0.89976   0.00000  Uiso   1.00
C282   C     0.37896   0.65295   0.10613   0.00000  Uiso   1.00
C283   C     0.35019   0.55242   0.10301   0.00000  Uiso   1.00
C284   C     0.32137   0.65271   0.09990   0.00000  Uiso   1.00
C285   C     0.26822   0.74974   0.09418   0.00000  Uiso   1.00
C286   C     0.42845   0.65294   0.16313   0.00000  Uiso   1.00
C287   C     0.44127   0.55240   0.20794   0.00000  Uiso   1.00
C288   C     0.45411   0.65268   0.25283   0.00000  Uiso   1.00
C289   C     0.47780   0.74969   0.33560   0.00000  Uiso   1.00
C290   C     0.41317   0.92834   0.10987   0.00000  Uiso   1.00
C291   C     0.43213   0.84692   0.06026   0.00000  Uiso   1.00
C292   C     0.44806   0.94750   0.01857   0.00000  Uiso   1.00
C293   C     0.46403   0.84725   0.97680   0.00000  Uiso   1.00
C294   C     0.37895   0.84678   0.10615   0.00000  Uiso   1.00
C295   C     0.35017   0.94725   0.10306   0.00000  Uiso   1.00
C296   C     0.32136   0.84689   0.09993   0.00000  Uiso   1.00
C297   C     0.42844   0.84678   0.16315   0.00000  Uiso   1.00
C298   C     0.44126   0.94723   0.20798   0.00000  Uiso   1.00
C299   C     0.45410   0.84687   0.25285   0.00000  Uiso   1.00
H300   H     0.41319   0.42057   0.10980   0.00000  Uiso   1.00
H301   H     0.44808   0.40266   0.01851   0.00000  Uiso   1.00
H302   H     0.35020   0.40242   0.10299   0.00000  Uiso   1.00
H303   H     0.44128   0.40240   0.20790   0.00000  Uiso   1.00
H304   H     0.48675   0.46829   0.91730   0.00000  Uiso   1.00
H305   H     0.28036   0.46777   0.09545   0.00000  Uiso   1.00
H306   H     0.47241   0.46774   0.31668   0.00000  Uiso   1.00
H307   H     0.41316   0.07925   0.10989   0.00000  Uiso   1.00
H308   H     0.44805   0.09750   0.01860   0.00000  Uiso   1.00
H309   H     0.35017   0.09725   0.10308   0.00000  Uiso   1.00
H310   H     0.44125   0.09723   0.20799   0.00000  Uiso   1.00
H311   H     0.48672   0.03225   0.91737   0.00000  Uiso   1.00
H312   H     0.28034   0.03172   0.09552   0.00000  Uiso   1.00
H313   H     0.47238   0.03169   0.31674   0.00000  Uiso   1.00
O314   O     0.50968   0.75039   0.85728   0.00000  Uiso   1.00
O315   O     0.23891   0.74970   0.09101   0.00000  Uiso   1.00
O316   O     0.49087   0.74965   0.38125   0.00000  Uiso   1.00
N317   N     0.48196   0.59852   0.92985   0.00000  Uiso   1.00
N318   N     0.28900   0.59803   0.09640   0.00000  Uiso   1.00
N319   N     0.46854   0.59800   0.30323   0.00000  Uiso   1.00
N320   N     0.48195   0.90198   0.92989   0.00000  Uiso   1.00
N321   N     0.28899   0.90149   0.09644   0.00000  Uiso   1.00
N322   N     0.46853   0.90145   0.30327   0.00000  Uiso   1.00
C323   C     0.08681   0.92853   0.60982   0.00000  Uiso   1.00
C324   C     0.06786   0.84692   0.56024   0.00000  Uiso   1.00
C325   C     0.05192   0.94733   0.51852   0.00000  Uiso   1.00
C326   C     0.03597   0.84694   0.47678   0.00000  Uiso   1.00
C327   C     0.00655   0.74970   0.39976   0.00000  Uiso   1.00
C328   C     0.12104   0.84705   0.60613   0.00000  Uiso   1.00
C329   C     0.14981   0.94758   0.60301   0.00000  Uiso   1.00
C330   C     0.17863   0.84729   0.59990   0.00000  Uiso   1.00
C331   C     0.23178   0.75026   0.59418   0.00000  Uiso   1.00
C332   C     0.07155   0.84706   0.66313   0.00000  Uiso   1.00
C333   C     0.05873   0.94760   0.70794   0.00000  Uiso   1.00
C334   C     0.04589   0.84732   0.75283   0.00000  Uiso   1.00
C335   C     0.02220   0.75031   0.83560   0.00000  Uiso   1.00
C336   C     0.08683   0.57166   0.60987   0.00000  Uiso   1.00
C337   C     0.06787   0.65308   0.56026   0.00000  Uiso   1.00
C338   C     0.05194   0.55250   0.51857   0.00000  Uiso   1.00
C339   C     0.03597   0.65275   0.47680   0.00000  Uiso   1.00
C340   C     0.12105   0.65322   0.60615   0.00000  Uiso   1.00
C341   C     0.14983   0.55275   0.60306   0.00000  Uiso   1.00
C342   C     0.17864   0.65311   0.59993   0.00000  Uiso   1.00
C343   C     0.07156   0.65322   0.66315   0.00000  Uiso   1.00
C344   C     0.05874   0.55277   0.70798   0.00000  Uiso   1.00
C345   C     0.04590   0.65313   0.75285   0.00000  Uiso   1.00
H346   H     0.08681   0.07943   0.60980   0.00000  Uiso   1.00
H347   H     0.05192   0.09734   0.51851   0.00000  Uiso   1.00
H348   H     0.14980   0.09758   0.60299   0.00000  Uiso   1.00
H349   H     0.05872   0.09760   0.70790   0.00000  Uiso   1.00
H350   H     0.01325   0.03171   0.41730   0.00000  Uiso   1.00
H351   H     0.21964   0.03223   0.59545   0.00000  Uiso   1.00
H352   H     0.02759   0.03226   0.81668   0.00000  Uiso   1.00
H353   H     0.08684   0.42075   0.60989   0.00000  Uiso   1.00
H354   H     0.05195   0.40250   0.51860   0.00000  Uiso   1.00
H355   H     0.14983   0.40275   0.60308   0.00000  Uiso   1.00
H356   H     0.05875   0.40277   0.70799   0.00000  Uiso   1.00
H357   H     0.01328   0.46775   0.41737   0.00000  Uiso   1.00
H358   H     0.21966   0.46828   0.59552   0.00000  Uiso   1.00
H359   H     0.02762   0.46831   0.81674   0.00000  Uiso   1.00
O360   O     0.99032   0.74961   0.35728   0.00000  Uiso   1.00
O361   O     0.26109   0.75030   0.59101   0.00000  Uiso   1.00
O362   O     0.00913   0.75035   0.88125   0.00000  Uiso   1.00
N363   N     0.01804   0.90148   0.42985   0.00000  Uiso   1.00
N364   N     0.21100   0.90197   0.59640   0.00000  Uiso   1.00
N365   N     0.03146   0.90200   0.80323   0.00000  Uiso   1.00
N366   N     0.01805   0.59802   0.42989   0.00000  Uiso   1.00
N367   N     0.21101   0.59851   0.59644   0.00000  Uiso   1.00
N368   N     0.03147   0.59855   0.80327   0.00000  Uiso   1.00
