data_job_02021
_audit_creation_date              2018-12-19
_audit_creation_method            'Materials Studio'
_symmetry_space_group_name_H-M    'P1'
_symmetry_Int_Tables_number       1
_symmetry_cell_setting            triclinic
loop_
_symmetry_equiv_pos_as_xyz
  x,y,z
_cell_length_a                    9.8478
_cell_length_b                    9.8478
_cell_length_c                    54.5888
_cell_angle_alpha                 90.0000
_cell_angle_beta                  90.0000
_cell_angle_gamma                 90.0000
loop_
_atom_site_label
_atom_site_type_symbol
_atom_site_fract_x
_atom_site_fract_y
_atom_site_fract_z
_atom_site_U_iso_or_equiv
_atom_site_adp_type
_atom_site_occupancy
C1     C     0.20621   0.09389   0.68124   0.00000  Uiso   1.00
C2     C     0.31896   0.18430   0.69127   0.00000  Uiso   1.00
C3     C     0.31326   0.32453   0.69357   0.00000  Uiso   1.00
C4     C     0.42703   0.38861   0.70316   0.00000  Uiso   1.00
C5     C     0.58460   0.54020   0.71765   0.00000  Uiso   1.00
C6     C     0.26893   0.01451   0.66009   0.00000  Uiso   1.00
C7     C     0.22114   0.01196   0.63618   0.00000  Uiso   1.00
C8     C     0.29279   0.93309   0.61953   0.00000  Uiso   1.00
C9     C     0.37262   0.82100   0.58562   0.00000  Uiso   1.00
C10    C     0.17615   0.98996   0.70123   0.00000  Uiso   1.00
C11    C     0.05036   0.96675   0.71190   0.00000  Uiso   1.00
C12    C     0.04389   0.86719   0.72987   0.00000  Uiso   1.00
C13    C     0.97968   0.71699   0.75983   0.00000  Uiso   1.00
C14    C     0.41840   0.95833   0.69419   0.00000  Uiso   1.00
C15    C     0.43421   0.11067   0.69830   0.00000  Uiso   1.00
C16    C     0.54802   0.17455   0.70789   0.00000  Uiso   1.00
C17    C     0.54249   0.31485   0.71020   0.00000  Uiso   1.00
C18    C     0.38418   0.94088   0.66712   0.00000  Uiso   1.00
C19    C     0.45591   0.86199   0.65050   0.00000  Uiso   1.00
C20    C     0.40825   0.85933   0.62657   0.00000  Uiso   1.00
C21    C     0.29140   0.91633   0.70826   0.00000  Uiso   1.00
C22    C     0.28513   0.81678   0.72622   0.00000  Uiso   1.00
C23    C     0.15935   0.79343   0.73691   0.00000  Uiso   1.00
H24    H     0.11648   0.15121   0.67577   0.00000  Uiso   1.00
H25    H     0.22405   0.38147   0.68813   0.00000  Uiso   1.00
H26    H     0.13194   0.06894   0.63075   0.00000  Uiso   1.00
H27    H     0.96119   0.02375   0.70645   0.00000  Uiso   1.00
H28    H     0.39417   0.60430   0.70492   0.00000  Uiso   1.00
H29    H     0.19992   0.94528   0.58393   0.00000  Uiso   1.00
H30    H     0.83985   0.84997   0.74357   0.00000  Uiso   1.00
H31    H     0.50813   0.90100   0.69966   0.00000  Uiso   1.00
H32    H     0.63720   0.11754   0.71333   0.00000  Uiso   1.00
H33    H     0.54509   0.80502   0.65595   0.00000  Uiso   1.00
H34    H     0.37434   0.75982   0.73165   0.00000  Uiso   1.00
H35    H     0.72949   0.39009   0.72537   0.00000  Uiso   1.00
H36    H     0.53524   0.73106   0.60438   0.00000  Uiso   1.00
H37    H     0.17518   0.63576   0.76402   0.00000  Uiso   1.00
O38    O     0.63968   0.64416   0.72370   0.00000  Uiso   1.00
O39    O     0.38482   0.77953   0.56497   0.00000  Uiso   1.00
O40    O     0.91243   0.65450   0.77441   0.00000  Uiso   1.00
N41    N     0.45536   0.52416   0.70786   0.00000  Uiso   1.00
N42    N     0.27377   0.90804   0.59475   0.00000  Uiso   1.00
N43    N     0.93712   0.81891   0.74399   0.00000  Uiso   1.00
N44    N     0.63580   0.40890   0.71887   0.00000  Uiso   1.00
N45    N     0.45420   0.79277   0.60575   0.00000  Uiso   1.00
N46    N     0.11756   0.70364   0.75499   0.00000  Uiso   1.00
C47    C     0.79379   0.90611   0.18124   0.00000  Uiso   1.00
C48    C     0.68104   0.81570   0.19127   0.00000  Uiso   1.00
C49    C     0.68674   0.67547   0.19357   0.00000  Uiso   1.00
C50    C     0.57297   0.61139   0.20316   0.00000  Uiso   1.00
C51    C     0.41540   0.45980   0.21765   0.00000  Uiso   1.00
C52    C     0.73107   0.98549   0.16009   0.00000  Uiso   1.00
C53    C     0.77886   0.98804   0.13618   0.00000  Uiso   1.00
C54    C     0.70721   0.06691   0.11953   0.00000  Uiso   1.00
C55    C     0.62738   0.17900   0.08562   0.00000  Uiso   1.00
C56    C     0.82385   0.01004   0.20123   0.00000  Uiso   1.00
C57    C     0.94964   0.03325   0.21190   0.00000  Uiso   1.00
C58    C     0.95611   0.13281   0.22987   0.00000  Uiso   1.00
C59    C     0.02032   0.28301   0.25983   0.00000  Uiso   1.00
C60    C     0.58160   0.04167   0.19419   0.00000  Uiso   1.00
C61    C     0.56579   0.88933   0.19830   0.00000  Uiso   1.00
C62    C     0.45198   0.82545   0.20789   0.00000  Uiso   1.00
C63    C     0.45751   0.68515   0.21020   0.00000  Uiso   1.00
C64    C     0.61582   0.05912   0.16712   0.00000  Uiso   1.00
C65    C     0.54409   0.13801   0.15050   0.00000  Uiso   1.00
C66    C     0.59175   0.14067   0.12657   0.00000  Uiso   1.00
C67    C     0.70860   0.08367   0.20826   0.00000  Uiso   1.00
C68    C     0.71487   0.18322   0.22622   0.00000  Uiso   1.00
C69    C     0.84065   0.20657   0.23691   0.00000  Uiso   1.00
H70    H     0.88352   0.84879   0.17577   0.00000  Uiso   1.00
H71    H     0.77595   0.61853   0.18813   0.00000  Uiso   1.00
H72    H     0.86806   0.93106   0.13075   0.00000  Uiso   1.00
H73    H     0.03881   0.97625   0.20645   0.00000  Uiso   1.00
H74    H     0.60583   0.39570   0.20492   0.00000  Uiso   1.00
H75    H     0.80008   0.05472   0.08393   0.00000  Uiso   1.00
H76    H     0.16015   0.15003   0.24357   0.00000  Uiso   1.00
H77    H     0.49187   0.09900   0.19966   0.00000  Uiso   1.00
H78    H     0.36280   0.88246   0.21333   0.00000  Uiso   1.00
H79    H     0.45491   0.19498   0.15595   0.00000  Uiso   1.00
H80    H     0.62566   0.24018   0.23165   0.00000  Uiso   1.00
H81    H     0.27051   0.60991   0.22537   0.00000  Uiso   1.00
H82    H     0.46476   0.26894   0.10438   0.00000  Uiso   1.00
H83    H     0.82482   0.36424   0.26402   0.00000  Uiso   1.00
O84    O     0.36032   0.35584   0.22370   0.00000  Uiso   1.00
O85    O     0.61518   0.22047   0.06497   0.00000  Uiso   1.00
O86    O     0.08757   0.34550   0.27441   0.00000  Uiso   1.00
N87    N     0.54464   0.47584   0.20786   0.00000  Uiso   1.00
N88    N     0.72623   0.09196   0.09475   0.00000  Uiso   1.00
N89    N     0.06288   0.18109   0.24399   0.00000  Uiso   1.00
N90    N     0.36420   0.59110   0.21887   0.00000  Uiso   1.00
N91    N     0.54580   0.20723   0.10575   0.00000  Uiso   1.00
N92    N     0.88244   0.29636   0.25499   0.00000  Uiso   1.00
C93    C     0.90611   0.20621   0.93124   0.00000  Uiso   1.00
C94    C     0.81570   0.31896   0.94127   0.00000  Uiso   1.00
C95    C     0.67547   0.31326   0.94357   0.00000  Uiso   1.00
C96    C     0.61139   0.42703   0.95316   0.00000  Uiso   1.00
C97    C     0.45980   0.58460   0.96765   0.00000  Uiso   1.00
C98    C     0.98549   0.26893   0.91009   0.00000  Uiso   1.00
C99    C     0.98804   0.22114   0.88618   0.00000  Uiso   1.00
C100   C     0.06691   0.29279   0.86953   0.00000  Uiso   1.00
C101   C     0.17900   0.37262   0.83562   0.00000  Uiso   1.00
C102   C     0.01004   0.17615   0.95123   0.00000  Uiso   1.00
C103   C     0.03325   0.05036   0.96190   0.00000  Uiso   1.00
C104   C     0.13281   0.04389   0.97987   0.00000  Uiso   1.00
C105   C     0.28301   0.97968   0.00983   0.00000  Uiso   1.00
C106   C     0.04167   0.41840   0.94419   0.00000  Uiso   1.00
C107   C     0.88933   0.43421   0.94830   0.00000  Uiso   1.00
C108   C     0.82545   0.54802   0.95789   0.00000  Uiso   1.00
C109   C     0.68515   0.54249   0.96020   0.00000  Uiso   1.00
C110   C     0.05912   0.38418   0.91712   0.00000  Uiso   1.00
C111   C     0.13801   0.45591   0.90050   0.00000  Uiso   1.00
C112   C     0.14067   0.40825   0.87657   0.00000  Uiso   1.00
C113   C     0.08367   0.29140   0.95826   0.00000  Uiso   1.00
C114   C     0.18322   0.28513   0.97622   0.00000  Uiso   1.00
C115   C     0.20657   0.15935   0.98691   0.00000  Uiso   1.00
H116   H     0.84879   0.11648   0.92577   0.00000  Uiso   1.00
H117   H     0.61853   0.22405   0.93813   0.00000  Uiso   1.00
H118   H     0.93106   0.13194   0.88075   0.00000  Uiso   1.00
H119   H     0.97625   0.96119   0.95645   0.00000  Uiso   1.00
H120   H     0.39570   0.39417   0.95492   0.00000  Uiso   1.00
H121   H     0.05472   0.19992   0.83393   0.00000  Uiso   1.00
H122   H     0.15003   0.83985   0.99357   0.00000  Uiso   1.00
H123   H     0.09900   0.50813   0.94966   0.00000  Uiso   1.00
H124   H     0.88246   0.63720   0.96333   0.00000  Uiso   1.00
H125   H     0.19498   0.54509   0.90595   0.00000  Uiso   1.00
H126   H     0.24018   0.37434   0.98165   0.00000  Uiso   1.00
H127   H     0.60991   0.72949   0.97537   0.00000  Uiso   1.00
H128   H     0.26894   0.53524   0.85438   0.00000  Uiso   1.00
H129   H     0.36424   0.17518   0.01402   0.00000  Uiso   1.00
O130   O     0.35584   0.63968   0.97370   0.00000  Uiso   1.00
O131   O     0.22047   0.38482   0.81497   0.00000  Uiso   1.00
O132   O     0.34550   0.91243   0.02441   0.00000  Uiso   1.00
N133   N     0.47584   0.45536   0.95786   0.00000  Uiso   1.00
N134   N     0.09196   0.27377   0.84475   0.00000  Uiso   1.00
N135   N     0.18109   0.93712   0.99399   0.00000  Uiso   1.00
N136   N     0.59110   0.63580   0.96887   0.00000  Uiso   1.00
N137   N     0.20723   0.45420   0.85575   0.00000  Uiso   1.00
N138   N     0.29636   0.11756   0.00499   0.00000  Uiso   1.00
C139   C     0.09389   0.79379   0.43124   0.00000  Uiso   1.00
C140   C     0.18430   0.68104   0.44127   0.00000  Uiso   1.00
C141   C     0.32453   0.68674   0.44357   0.00000  Uiso   1.00
C142   C     0.38861   0.57297   0.45316   0.00000  Uiso   1.00
C143   C     0.54020   0.41540   0.46765   0.00000  Uiso   1.00
C144   C     0.01451   0.73107   0.41009   0.00000  Uiso   1.00
C145   C     0.01196   0.77886   0.38618   0.00000  Uiso   1.00
C146   C     0.93309   0.70721   0.36953   0.00000  Uiso   1.00
C147   C     0.82100   0.62738   0.33562   0.00000  Uiso   1.00
C148   C     0.98996   0.82385   0.45123   0.00000  Uiso   1.00
C149   C     0.96675   0.94964   0.46190   0.00000  Uiso   1.00
C150   C     0.86719   0.95611   0.47987   0.00000  Uiso   1.00
C151   C     0.71699   0.02032   0.50983   0.00000  Uiso   1.00
C152   C     0.95833   0.58160   0.44419   0.00000  Uiso   1.00
C153   C     0.11067   0.56579   0.44830   0.00000  Uiso   1.00
C154   C     0.17455   0.45198   0.45789   0.00000  Uiso   1.00
C155   C     0.31485   0.45751   0.46020   0.00000  Uiso   1.00
C156   C     0.94088   0.61582   0.41712   0.00000  Uiso   1.00
C157   C     0.86199   0.54409   0.40050   0.00000  Uiso   1.00
C158   C     0.85933   0.59175   0.37657   0.00000  Uiso   1.00
C159   C     0.91633   0.70860   0.45826   0.00000  Uiso   1.00
C160   C     0.81678   0.71487   0.47622   0.00000  Uiso   1.00
C161   C     0.79343   0.84065   0.48691   0.00000  Uiso   1.00
H162   H     0.15121   0.88352   0.42577   0.00000  Uiso   1.00
H163   H     0.38147   0.77595   0.43813   0.00000  Uiso   1.00
H164   H     0.06894   0.86806   0.38075   0.00000  Uiso   1.00
H165   H     0.02375   0.03881   0.45645   0.00000  Uiso   1.00
H166   H     0.60430   0.60583   0.45492   0.00000  Uiso   1.00
H167   H     0.94528   0.80008   0.33393   0.00000  Uiso   1.00
H168   H     0.84997   0.16015   0.49357   0.00000  Uiso   1.00
H169   H     0.90100   0.49187   0.44966   0.00000  Uiso   1.00
H170   H     0.11754   0.36280   0.46333   0.00000  Uiso   1.00
H171   H     0.80502   0.45491   0.40595   0.00000  Uiso   1.00
H172   H     0.75982   0.62566   0.48165   0.00000  Uiso   1.00
H173   H     0.39009   0.27051   0.47537   0.00000  Uiso   1.00
H174   H     0.73106   0.46476   0.35438   0.00000  Uiso   1.00
H175   H     0.63576   0.82482   0.51402   0.00000  Uiso   1.00
O176   O     0.64416   0.36032   0.47370   0.00000  Uiso   1.00
O177   O     0.77953   0.61518   0.31497   0.00000  Uiso   1.00
O178   O     0.65450   0.08757   0.52441   0.00000  Uiso   1.00
N179   N     0.52416   0.54464   0.45786   0.00000  Uiso   1.00
N180   N     0.90804   0.72623   0.34475   0.00000  Uiso   1.00
N181   N     0.81891   0.06288   0.49399   0.00000  Uiso   1.00
N182   N     0.40890   0.36420   0.46887   0.00000  Uiso   1.00
N183   N     0.79277   0.54580   0.35575   0.00000  Uiso   1.00
N184   N     0.70364   0.88244   0.50499   0.00000  Uiso   1.00
C185   C     0.79379   0.09389   0.31876   0.00000  Uiso   1.00
C186   C     0.68104   0.18430   0.30873   0.00000  Uiso   1.00
C187   C     0.68674   0.32453   0.30643   0.00000  Uiso   1.00
C188   C     0.57297   0.38861   0.29684   0.00000  Uiso   1.00
C189   C     0.41540   0.54020   0.28235   0.00000  Uiso   1.00
C190   C     0.73107   0.01451   0.33991   0.00000  Uiso   1.00
C191   C     0.77886   0.01196   0.36382   0.00000  Uiso   1.00
C192   C     0.70721   0.93309   0.38047   0.00000  Uiso   1.00
C193   C     0.62738   0.82100   0.41438   0.00000  Uiso   1.00
C194   C     0.82385   0.98996   0.29877   0.00000  Uiso   1.00
C195   C     0.94964   0.96675   0.28810   0.00000  Uiso   1.00
C196   C     0.95611   0.86719   0.27013   0.00000  Uiso   1.00
C197   C     0.02032   0.71699   0.24017   0.00000  Uiso   1.00
C198   C     0.58160   0.95833   0.30581   0.00000  Uiso   1.00
C199   C     0.56579   0.11067   0.30170   0.00000  Uiso   1.00
C200   C     0.45198   0.17455   0.29211   0.00000  Uiso   1.00
C201   C     0.45751   0.31485   0.28980   0.00000  Uiso   1.00
C202   C     0.61582   0.94088   0.33288   0.00000  Uiso   1.00
C203   C     0.54409   0.86199   0.34950   0.00000  Uiso   1.00
C204   C     0.59175   0.85933   0.37343   0.00000  Uiso   1.00
C205   C     0.70860   0.91633   0.29174   0.00000  Uiso   1.00
C206   C     0.71487   0.81678   0.27378   0.00000  Uiso   1.00
C207   C     0.84065   0.79343   0.26309   0.00000  Uiso   1.00
H208   H     0.88352   0.15121   0.32423   0.00000  Uiso   1.00
H209   H     0.77595   0.38147   0.31187   0.00000  Uiso   1.00
H210   H     0.86806   0.06894   0.36925   0.00000  Uiso   1.00
H211   H     0.03881   0.02375   0.29355   0.00000  Uiso   1.00
H212   H     0.60583   0.60430   0.29508   0.00000  Uiso   1.00
H213   H     0.80008   0.94528   0.41607   0.00000  Uiso   1.00
H214   H     0.16015   0.84997   0.25643   0.00000  Uiso   1.00
H215   H     0.49187   0.90100   0.30034   0.00000  Uiso   1.00
H216   H     0.36280   0.11754   0.28667   0.00000  Uiso   1.00
H217   H     0.45491   0.80502   0.34405   0.00000  Uiso   1.00
H218   H     0.62566   0.75982   0.26835   0.00000  Uiso   1.00
H219   H     0.27051   0.39009   0.27463   0.00000  Uiso   1.00
H220   H     0.46476   0.73106   0.39562   0.00000  Uiso   1.00
H221   H     0.82482   0.63576   0.23598   0.00000  Uiso   1.00
O222   O     0.36032   0.64416   0.27630   0.00000  Uiso   1.00
O223   O     0.61518   0.77953   0.43503   0.00000  Uiso   1.00
O224   O     0.08757   0.65450   0.22559   0.00000  Uiso   1.00
N225   N     0.54464   0.52416   0.29214   0.00000  Uiso   1.00
N226   N     0.72623   0.90804   0.40525   0.00000  Uiso   1.00
N227   N     0.06288   0.81891   0.25601   0.00000  Uiso   1.00
N228   N     0.36420   0.40890   0.28113   0.00000  Uiso   1.00
N229   N     0.54580   0.79277   0.39425   0.00000  Uiso   1.00
N230   N     0.88244   0.70364   0.24501   0.00000  Uiso   1.00
C231   C     0.20621   0.90611   0.81876   0.00000  Uiso   1.00
C232   C     0.31896   0.81570   0.80873   0.00000  Uiso   1.00
C233   C     0.31326   0.67547   0.80643   0.00000  Uiso   1.00
C234   C     0.42703   0.61139   0.79684   0.00000  Uiso   1.00
C235   C     0.58460   0.45980   0.78235   0.00000  Uiso   1.00
C236   C     0.26893   0.98549   0.83991   0.00000  Uiso   1.00
C237   C     0.22114   0.98804   0.86382   0.00000  Uiso   1.00
C238   C     0.29279   0.06691   0.88047   0.00000  Uiso   1.00
C239   C     0.37262   0.17900   0.91438   0.00000  Uiso   1.00
C240   C     0.17615   0.01004   0.79877   0.00000  Uiso   1.00
C241   C     0.05036   0.03325   0.78810   0.00000  Uiso   1.00
C242   C     0.04389   0.13281   0.77013   0.00000  Uiso   1.00
C243   C     0.97968   0.28301   0.74017   0.00000  Uiso   1.00
C244   C     0.41840   0.04167   0.80581   0.00000  Uiso   1.00
C245   C     0.43421   0.88933   0.80170   0.00000  Uiso   1.00
C246   C     0.54802   0.82545   0.79211   0.00000  Uiso   1.00
C247   C     0.54249   0.68515   0.78980   0.00000  Uiso   1.00
C248   C     0.38418   0.05912   0.83288   0.00000  Uiso   1.00
C249   C     0.45591   0.13801   0.84950   0.00000  Uiso   1.00
C250   C     0.40825   0.14067   0.87343   0.00000  Uiso   1.00
C251   C     0.29140   0.08367   0.79174   0.00000  Uiso   1.00
C252   C     0.28513   0.18322   0.77378   0.00000  Uiso   1.00
C253   C     0.15935   0.20657   0.76309   0.00000  Uiso   1.00
H254   H     0.11648   0.84879   0.82423   0.00000  Uiso   1.00
H255   H     0.22405   0.61853   0.81187   0.00000  Uiso   1.00
H256   H     0.13194   0.93106   0.86925   0.00000  Uiso   1.00
H257   H     0.96119   0.97625   0.79355   0.00000  Uiso   1.00
H258   H     0.39417   0.39570   0.79508   0.00000  Uiso   1.00
H259   H     0.19992   0.05472   0.91607   0.00000  Uiso   1.00
H260   H     0.83985   0.15003   0.75643   0.00000  Uiso   1.00
H261   H     0.50813   0.09900   0.80034   0.00000  Uiso   1.00
H262   H     0.63720   0.88246   0.78667   0.00000  Uiso   1.00
H263   H     0.54509   0.19498   0.84405   0.00000  Uiso   1.00
H264   H     0.37434   0.24018   0.76835   0.00000  Uiso   1.00
H265   H     0.72949   0.60991   0.77463   0.00000  Uiso   1.00
H266   H     0.53524   0.26894   0.89562   0.00000  Uiso   1.00
H267   H     0.17518   0.36424   0.73598   0.00000  Uiso   1.00
O268   O     0.63968   0.35584   0.77630   0.00000  Uiso   1.00
O269   O     0.38482   0.22047   0.93503   0.00000  Uiso   1.00
O270   O     0.91243   0.34550   0.72559   0.00000  Uiso   1.00
N271   N     0.45536   0.47584   0.79214   0.00000  Uiso   1.00
N272   N     0.27377   0.09196   0.90525   0.00000  Uiso   1.00
N273   N     0.93712   0.18109   0.75601   0.00000  Uiso   1.00
N274   N     0.63580   0.59110   0.78113   0.00000  Uiso   1.00
N275   N     0.45420   0.20723   0.89425   0.00000  Uiso   1.00
N276   N     0.11756   0.29636   0.74501   0.00000  Uiso   1.00
C277   C     0.09389   0.20621   0.06876   0.00000  Uiso   1.00
C278   C     0.18430   0.31896   0.05873   0.00000  Uiso   1.00
C279   C     0.32453   0.31326   0.05643   0.00000  Uiso   1.00
C280   C     0.38861   0.42703   0.04684   0.00000  Uiso   1.00
C281   C     0.54020   0.58460   0.03235   0.00000  Uiso   1.00
C282   C     0.01451   0.26893   0.08991   0.00000  Uiso   1.00
C283   C     0.01196   0.22114   0.11382   0.00000  Uiso   1.00
C284   C     0.93309   0.29279   0.13047   0.00000  Uiso   1.00
C285   C     0.82100   0.37262   0.16438   0.00000  Uiso   1.00
C286   C     0.98996   0.17615   0.04877   0.00000  Uiso   1.00
C287   C     0.96675   0.05036   0.03810   0.00000  Uiso   1.00
C288   C     0.86719   0.04389   0.02013   0.00000  Uiso   1.00
C289   C     0.71699   0.97968   0.99017   0.00000  Uiso   1.00
C290   C     0.95833   0.41840   0.05581   0.00000  Uiso   1.00
C291   C     0.11067   0.43421   0.05170   0.00000  Uiso   1.00
C292   C     0.17455   0.54802   0.04211   0.00000  Uiso   1.00
C293   C     0.31485   0.54249   0.03980   0.00000  Uiso   1.00
C294   C     0.94088   0.38418   0.08288   0.00000  Uiso   1.00
C295   C     0.86199   0.45591   0.09950   0.00000  Uiso   1.00
C296   C     0.85933   0.40825   0.12343   0.00000  Uiso   1.00
C297   C     0.91633   0.29140   0.04174   0.00000  Uiso   1.00
C298   C     0.81678   0.28513   0.02378   0.00000  Uiso   1.00
C299   C     0.79343   0.15935   0.01309   0.00000  Uiso   1.00
H300   H     0.15121   0.11648   0.07423   0.00000  Uiso   1.00
H301   H     0.38147   0.22405   0.06187   0.00000  Uiso   1.00
H302   H     0.06894   0.13194   0.11925   0.00000  Uiso   1.00
H303   H     0.02375   0.96119   0.04355   0.00000  Uiso   1.00
H304   H     0.60430   0.39417   0.04508   0.00000  Uiso   1.00
H305   H     0.94528   0.19992   0.16607   0.00000  Uiso   1.00
H306   H     0.84997   0.83985   0.00643   0.00000  Uiso   1.00
H307   H     0.90100   0.50813   0.05034   0.00000  Uiso   1.00
H308   H     0.11754   0.63720   0.03667   0.00000  Uiso   1.00
H309   H     0.80502   0.54509   0.09405   0.00000  Uiso   1.00
H310   H     0.75982   0.37434   0.01835   0.00000  Uiso   1.00
H311   H     0.39009   0.72949   0.02463   0.00000  Uiso   1.00
H312   H     0.73106   0.53524   0.14562   0.00000  Uiso   1.00
H313   H     0.63576   0.17518   0.98598   0.00000  Uiso   1.00
O314   O     0.64416   0.63968   0.02630   0.00000  Uiso   1.00
O315   O     0.77953   0.38482   0.18503   0.00000  Uiso   1.00
O316   O     0.65450   0.91243   0.97559   0.00000  Uiso   1.00
N317   N     0.52416   0.45536   0.04214   0.00000  Uiso   1.00
N318   N     0.90804   0.27377   0.15525   0.00000  Uiso   1.00
N319   N     0.81891   0.93712   0.00601   0.00000  Uiso   1.00
N320   N     0.40890   0.63580   0.03113   0.00000  Uiso   1.00
N321   N     0.79277   0.45420   0.14425   0.00000  Uiso   1.00
N322   N     0.70364   0.11756   0.99501   0.00000  Uiso   1.00
C323   C     0.90611   0.79379   0.56876   0.00000  Uiso   1.00
C324   C     0.81570   0.68104   0.55873   0.00000  Uiso   1.00
C325   C     0.67547   0.68674   0.55643   0.00000  Uiso   1.00
C326   C     0.61139   0.57297   0.54684   0.00000  Uiso   1.00
C327   C     0.45980   0.41540   0.53235   0.00000  Uiso   1.00
C328   C     0.98549   0.73107   0.58991   0.00000  Uiso   1.00
C329   C     0.98804   0.77886   0.61382   0.00000  Uiso   1.00
C330   C     0.06691   0.70721   0.63047   0.00000  Uiso   1.00
C331   C     0.17900   0.62738   0.66438   0.00000  Uiso   1.00
C332   C     0.01004   0.82385   0.54877   0.00000  Uiso   1.00
C333   C     0.03325   0.94964   0.53810   0.00000  Uiso   1.00
C334   C     0.13281   0.95611   0.52013   0.00000  Uiso   1.00
C335   C     0.28301   0.02032   0.49017   0.00000  Uiso   1.00
C336   C     0.04167   0.58160   0.55581   0.00000  Uiso   1.00
C337   C     0.88933   0.56579   0.55170   0.00000  Uiso   1.00
C338   C     0.82545   0.45198   0.54211   0.00000  Uiso   1.00
C339   C     0.68515   0.45751   0.53980   0.00000  Uiso   1.00
C340   C     0.05912   0.61582   0.58288   0.00000  Uiso   1.00
C341   C     0.13801   0.54409   0.59950   0.00000  Uiso   1.00
C342   C     0.14067   0.59175   0.62343   0.00000  Uiso   1.00
C343   C     0.08367   0.70860   0.54174   0.00000  Uiso   1.00
C344   C     0.18322   0.71487   0.52378   0.00000  Uiso   1.00
C345   C     0.20657   0.84065   0.51309   0.00000  Uiso   1.00
H346   H     0.84879   0.88352   0.57423   0.00000  Uiso   1.00
H347   H     0.61853   0.77595   0.56187   0.00000  Uiso   1.00
H348   H     0.93106   0.86806   0.61925   0.00000  Uiso   1.00
H349   H     0.97625   0.03881   0.54355   0.00000  Uiso   1.00
H350   H     0.39570   0.60583   0.54508   0.00000  Uiso   1.00
H351   H     0.05472   0.80008   0.66607   0.00000  Uiso   1.00
H352   H     0.15003   0.16015   0.50643   0.00000  Uiso   1.00
H353   H     0.09900   0.49187   0.55034   0.00000  Uiso   1.00
H354   H     0.88246   0.36280   0.53667   0.00000  Uiso   1.00
H355   H     0.19498   0.45491   0.59405   0.00000  Uiso   1.00
H356   H     0.24018   0.62566   0.51835   0.00000  Uiso   1.00
H357   H     0.60991   0.27051   0.52463   0.00000  Uiso   1.00
H358   H     0.26894   0.46476   0.64562   0.00000  Uiso   1.00
H359   H     0.36424   0.82482   0.48598   0.00000  Uiso   1.00
O360   O     0.35584   0.36032   0.52630   0.00000  Uiso   1.00
O361   O     0.22047   0.61518   0.68503   0.00000  Uiso   1.00
O362   O     0.34550   0.08757   0.47559   0.00000  Uiso   1.00
N363   N     0.47584   0.54464   0.54214   0.00000  Uiso   1.00
N364   N     0.09196   0.72623   0.65525   0.00000  Uiso   1.00
N365   N     0.18109   0.06288   0.50601   0.00000  Uiso   1.00
N366   N     0.59110   0.36420   0.53113   0.00000  Uiso   1.00
N367   N     0.20723   0.54580   0.64425   0.00000  Uiso   1.00
N368   N     0.29636   0.88244   0.49501   0.00000  Uiso   1.00
