data_job_00811
_audit_creation_date              2018-12-19
_audit_creation_method            'Materials Studio'
_symmetry_space_group_name_H-M    'P1'
_symmetry_Int_Tables_number       1
_symmetry_cell_setting            triclinic
loop_
_symmetry_equiv_pos_as_xyz
  x,y,z
_cell_length_a                    10.3031
_cell_length_b                    23.3953
_cell_length_c                    14.4971
_cell_angle_alpha                 90.0000
_cell_angle_beta                  75.3314
_cell_angle_gamma                 90.0000
loop_
_atom_site_label
_atom_site_type_symbol
_atom_site_fract_x
_atom_site_fract_y
_atom_site_fract_z
_atom_site_U_iso_or_equiv
_atom_site_adp_type
_atom_site_occupancy
C1     C     0.83645   0.97835   0.19748   0.00000  Uiso   1.00
C2     C     0.77903   0.92344   0.24847   0.00000  Uiso   1.00
C3     C     0.71780   0.87987   0.21002   0.00000  Uiso   1.00
C4     C     0.67192   0.83314   0.26818   0.00000  Uiso   1.00
C5     C     0.58057   0.74832   0.33316   0.00000  Uiso   1.00
C6     C     0.98284   0.98057   0.20149   0.00000  Uiso   1.00
C7     C     0.09296   0.98505   0.12353   0.00000  Uiso   1.00
C8     C     0.21864   0.98642   0.14215   0.00000  Uiso   1.00
C9     C     0.44369   0.99034   0.13419   0.00000  Uiso   1.00
C10    C     0.76626   0.02727   0.26014   0.00000  Uiso   1.00
C11    C     0.69430   0.07103   0.23148   0.00000  Uiso   1.00
C12    C     0.63766   0.11173   0.29948   0.00000  Uiso   1.00
C13    C     0.52644   0.18816   0.38258   0.00000  Uiso   1.00
C14    C     0.86385   0.97284   0.36918   0.00000  Uiso   1.00
C15    C     0.79392   0.92045   0.34173   0.00000  Uiso   1.00
C16    C     0.74812   0.87378   0.39998   0.00000  Uiso   1.00
C17    C     0.68682   0.83015   0.36161   0.00000  Uiso   1.00
C18    C     0.99773   0.97758   0.29474   0.00000  Uiso   1.00
C19    C     0.12327   0.97895   0.31349   0.00000  Uiso   1.00
C20    C     0.23355   0.98343   0.23558   0.00000  Uiso   1.00
C21    C     0.78114   0.02428   0.35340   0.00000  Uiso   1.00
C22    C     0.72461   0.06493   0.42145   0.00000  Uiso   1.00
C23    C     0.65258   0.10874   0.39291   0.00000  Uiso   1.00
H24    H     0.82487   0.98068   0.12488   0.00000  Uiso   1.00
H25    H     0.70631   0.88220   0.13784   0.00000  Uiso   1.00
H26    H     0.08141   0.98736   0.05137   0.00000  Uiso   1.00
H27    H     0.68281   0.07332   0.15931   0.00000  Uiso   1.00
H28    H     0.58148   0.77168   0.19333   0.00000  Uiso   1.00
H29    H     0.37238   0.99345   0.01100   0.00000  Uiso   1.00
H30    H     0.53186   0.17472   0.23862   0.00000  Uiso   1.00
H31    H     0.87544   0.97052   0.44178   0.00000  Uiso   1.00
H32    H     0.75965   0.87148   0.47214   0.00000  Uiso   1.00
H33    H     0.13475   0.97664   0.38567   0.00000  Uiso   1.00
H34    H     0.73615   0.06260   0.49361   0.00000  Uiso   1.00
H35    H     0.62478   0.76298   0.46465   0.00000  Uiso   1.00
H36    H     0.41568   0.98475   0.28233   0.00000  Uiso   1.00
H37    H     0.57516   0.16602   0.50995   0.00000  Uiso   1.00
O38    O     0.52609   0.70235   0.34323   0.00000  Uiso   1.00
O39    O     0.56371   0.99332   0.10403   0.00000  Uiso   1.00
O40    O     0.46097   0.23114   0.40265   0.00000  Uiso   1.00
N41    N     0.60754   0.78323   0.25302   0.00000  Uiso   1.00
N42    N     0.34698   0.99057   0.08256   0.00000  Uiso   1.00
N43    N     0.56120   0.16004   0.29535   0.00000  Uiso   1.00
N44    N     0.63083   0.77855   0.39902   0.00000  Uiso   1.00
N45    N     0.37028   0.98588   0.22856   0.00000  Uiso   1.00
N46    N     0.58449   0.15536   0.44135   0.00000  Uiso   1.00
C47    C     0.16355   0.47835   0.30252   0.00000  Uiso   1.00
C48    C     0.22097   0.42344   0.25153   0.00000  Uiso   1.00
C49    C     0.28220   0.37987   0.28998   0.00000  Uiso   1.00
C50    C     0.32808   0.33314   0.23182   0.00000  Uiso   1.00
C51    C     0.41943   0.24832   0.16684   0.00000  Uiso   1.00
C52    C     0.01716   0.48057   0.29851   0.00000  Uiso   1.00
C53    C     0.90704   0.48505   0.37647   0.00000  Uiso   1.00
C54    C     0.78136   0.48642   0.35785   0.00000  Uiso   1.00
C55    C     0.55631   0.49034   0.36581   0.00000  Uiso   1.00
C56    C     0.23374   0.52727   0.23986   0.00000  Uiso   1.00
C57    C     0.30570   0.57103   0.26852   0.00000  Uiso   1.00
C58    C     0.36234   0.61173   0.20052   0.00000  Uiso   1.00
C59    C     0.47356   0.68816   0.11742   0.00000  Uiso   1.00
C60    C     0.13615   0.47284   0.13082   0.00000  Uiso   1.00
C61    C     0.20608   0.42045   0.15827   0.00000  Uiso   1.00
C62    C     0.25188   0.37378   0.10002   0.00000  Uiso   1.00
C63    C     0.31318   0.33015   0.13839   0.00000  Uiso   1.00
C64    C     0.00227   0.47758   0.20526   0.00000  Uiso   1.00
C65    C     0.87673   0.47895   0.18651   0.00000  Uiso   1.00
C66    C     0.76645   0.48343   0.26442   0.00000  Uiso   1.00
C67    C     0.21886   0.52428   0.14660   0.00000  Uiso   1.00
C68    C     0.27539   0.56493   0.07855   0.00000  Uiso   1.00
C69    C     0.34742   0.60874   0.10709   0.00000  Uiso   1.00
H70    H     0.17513   0.48068   0.37512   0.00000  Uiso   1.00
H71    H     0.29369   0.38220   0.36216   0.00000  Uiso   1.00
H72    H     0.91859   0.48736   0.44863   0.00000  Uiso   1.00
H73    H     0.31719   0.57332   0.34069   0.00000  Uiso   1.00
H74    H     0.41852   0.27168   0.30667   0.00000  Uiso   1.00
H75    H     0.62762   0.49345   0.48900   0.00000  Uiso   1.00
H76    H     0.46814   0.67472   0.26138   0.00000  Uiso   1.00
H77    H     0.12456   0.47052   0.05822   0.00000  Uiso   1.00
H78    H     0.24035   0.37148   0.02786   0.00000  Uiso   1.00
H79    H     0.86525   0.47664   0.11433   0.00000  Uiso   1.00
H80    H     0.26385   0.56260   0.00639   0.00000  Uiso   1.00
H81    H     0.37522   0.26298   0.03535   0.00000  Uiso   1.00
H82    H     0.58432   0.48475   0.21767   0.00000  Uiso   1.00
H83    H     0.42484   0.66602   0.99005   0.00000  Uiso   1.00
O84    O     0.47391   0.20235   0.15677   0.00000  Uiso   1.00
O85    O     0.43629   0.49332   0.39597   0.00000  Uiso   1.00
O86    O     0.53903   0.73114   0.09735   0.00000  Uiso   1.00
N87    N     0.39246   0.28323   0.24698   0.00000  Uiso   1.00
N88    N     0.65302   0.49057   0.41744   0.00000  Uiso   1.00
N89    N     0.43880   0.66004   0.20465   0.00000  Uiso   1.00
N90    N     0.36917   0.27855   0.10098   0.00000  Uiso   1.00
N91    N     0.62972   0.48588   0.27144   0.00000  Uiso   1.00
N92    N     0.41551   0.65536   0.05865   0.00000  Uiso   1.00
C93    C     0.16355   0.02165   0.80252   0.00000  Uiso   1.00
C94    C     0.22097   0.07656   0.75153   0.00000  Uiso   1.00
C95    C     0.28220   0.12013   0.78998   0.00000  Uiso   1.00
C96    C     0.32808   0.16686   0.73182   0.00000  Uiso   1.00
C97    C     0.41943   0.25168   0.66684   0.00000  Uiso   1.00
C98    C     0.01716   0.01943   0.79851   0.00000  Uiso   1.00
C99    C     0.90704   0.01495   0.87647   0.00000  Uiso   1.00
C100   C     0.78136   0.01358   0.85785   0.00000  Uiso   1.00
C101   C     0.55631   0.00966   0.86581   0.00000  Uiso   1.00
C102   C     0.23374   0.97273   0.73986   0.00000  Uiso   1.00
C103   C     0.30570   0.92897   0.76852   0.00000  Uiso   1.00
C104   C     0.36234   0.88827   0.70052   0.00000  Uiso   1.00
C105   C     0.47356   0.81184   0.61742   0.00000  Uiso   1.00
C106   C     0.13615   0.02716   0.63082   0.00000  Uiso   1.00
C107   C     0.20608   0.07955   0.65827   0.00000  Uiso   1.00
C108   C     0.25188   0.12622   0.60002   0.00000  Uiso   1.00
C109   C     0.31318   0.16985   0.63839   0.00000  Uiso   1.00
C110   C     0.00227   0.02242   0.70526   0.00000  Uiso   1.00
C111   C     0.87673   0.02105   0.68651   0.00000  Uiso   1.00
C112   C     0.76645   0.01657   0.76442   0.00000  Uiso   1.00
C113   C     0.21886   0.97572   0.64660   0.00000  Uiso   1.00
C114   C     0.27539   0.93507   0.57855   0.00000  Uiso   1.00
C115   C     0.34742   0.89126   0.60709   0.00000  Uiso   1.00
H116   H     0.17513   0.01932   0.87512   0.00000  Uiso   1.00
H117   H     0.29369   0.11780   0.86216   0.00000  Uiso   1.00
H118   H     0.91859   0.01264   0.94863   0.00000  Uiso   1.00
H119   H     0.31719   0.92668   0.84069   0.00000  Uiso   1.00
H120   H     0.41852   0.22832   0.80667   0.00000  Uiso   1.00
H121   H     0.62762   0.00655   0.98900   0.00000  Uiso   1.00
H122   H     0.46814   0.82528   0.76138   0.00000  Uiso   1.00
H123   H     0.12456   0.02948   0.55822   0.00000  Uiso   1.00
H124   H     0.24035   0.12852   0.52786   0.00000  Uiso   1.00
H125   H     0.86525   0.02336   0.61433   0.00000  Uiso   1.00
H126   H     0.26385   0.93740   0.50639   0.00000  Uiso   1.00
H127   H     0.37522   0.23702   0.53535   0.00000  Uiso   1.00
H128   H     0.58432   0.01525   0.71767   0.00000  Uiso   1.00
H129   H     0.42484   0.83398   0.49005   0.00000  Uiso   1.00
O130   O     0.47391   0.29765   0.65677   0.00000  Uiso   1.00
O131   O     0.43629   0.00668   0.89597   0.00000  Uiso   1.00
O132   O     0.53903   0.76886   0.59735   0.00000  Uiso   1.00
N133   N     0.39246   0.21677   0.74698   0.00000  Uiso   1.00
N134   N     0.65302   0.00943   0.91744   0.00000  Uiso   1.00
N135   N     0.43880   0.83996   0.70465   0.00000  Uiso   1.00
N136   N     0.36917   0.22145   0.60098   0.00000  Uiso   1.00
N137   N     0.62972   0.01412   0.77144   0.00000  Uiso   1.00
N138   N     0.41551   0.84464   0.55865   0.00000  Uiso   1.00
C139   C     0.83645   0.52165   0.69748   0.00000  Uiso   1.00
C140   C     0.77903   0.57656   0.74847   0.00000  Uiso   1.00
C141   C     0.71780   0.62013   0.71002   0.00000  Uiso   1.00
C142   C     0.67192   0.66686   0.76818   0.00000  Uiso   1.00
C143   C     0.58057   0.75168   0.83316   0.00000  Uiso   1.00
C144   C     0.98284   0.51943   0.70149   0.00000  Uiso   1.00
C145   C     0.09296   0.51495   0.62353   0.00000  Uiso   1.00
C146   C     0.21864   0.51358   0.64215   0.00000  Uiso   1.00
C147   C     0.44369   0.50966   0.63419   0.00000  Uiso   1.00
C148   C     0.76626   0.47273   0.76014   0.00000  Uiso   1.00
C149   C     0.69430   0.42897   0.73148   0.00000  Uiso   1.00
C150   C     0.63766   0.38827   0.79948   0.00000  Uiso   1.00
C151   C     0.52644   0.31184   0.88258   0.00000  Uiso   1.00
C152   C     0.86385   0.52716   0.86918   0.00000  Uiso   1.00
C153   C     0.79392   0.57955   0.84173   0.00000  Uiso   1.00
C154   C     0.74812   0.62622   0.89998   0.00000  Uiso   1.00
C155   C     0.68682   0.66985   0.86161   0.00000  Uiso   1.00
C156   C     0.99773   0.52242   0.79474   0.00000  Uiso   1.00
C157   C     0.12327   0.52105   0.81349   0.00000  Uiso   1.00
C158   C     0.23355   0.51657   0.73558   0.00000  Uiso   1.00
C159   C     0.78114   0.47572   0.85340   0.00000  Uiso   1.00
C160   C     0.72461   0.43507   0.92145   0.00000  Uiso   1.00
C161   C     0.65258   0.39126   0.89291   0.00000  Uiso   1.00
H162   H     0.82487   0.51932   0.62488   0.00000  Uiso   1.00
H163   H     0.70631   0.61780   0.63784   0.00000  Uiso   1.00
H164   H     0.08141   0.51264   0.55137   0.00000  Uiso   1.00
H165   H     0.68281   0.42668   0.65931   0.00000  Uiso   1.00
H166   H     0.58148   0.72832   0.69333   0.00000  Uiso   1.00
H167   H     0.37238   0.50655   0.51100   0.00000  Uiso   1.00
H168   H     0.53186   0.32528   0.73862   0.00000  Uiso   1.00
H169   H     0.87544   0.52948   0.94178   0.00000  Uiso   1.00
H170   H     0.75965   0.62852   0.97214   0.00000  Uiso   1.00
H171   H     0.13475   0.52336   0.88567   0.00000  Uiso   1.00
H172   H     0.73615   0.43740   0.99361   0.00000  Uiso   1.00
H173   H     0.62478   0.73702   0.96465   0.00000  Uiso   1.00
H174   H     0.41568   0.51525   0.78233   0.00000  Uiso   1.00
H175   H     0.57516   0.33398   0.00995   0.00000  Uiso   1.00
O176   O     0.52609   0.79765   0.84323   0.00000  Uiso   1.00
O177   O     0.56371   0.50668   0.60403   0.00000  Uiso   1.00
O178   O     0.46097   0.26886   0.90265   0.00000  Uiso   1.00
N179   N     0.60754   0.71677   0.75302   0.00000  Uiso   1.00
N180   N     0.34698   0.50943   0.58256   0.00000  Uiso   1.00
N181   N     0.56120   0.33996   0.79535   0.00000  Uiso   1.00
N182   N     0.63083   0.72145   0.89902   0.00000  Uiso   1.00
N183   N     0.37028   0.51412   0.72856   0.00000  Uiso   1.00
N184   N     0.58449   0.34464   0.94135   0.00000  Uiso   1.00
