data_job_05227
_audit_creation_date              2018-12-19
_audit_creation_method            'Materials Studio'
_symmetry_space_group_name_H-M    'P1'
_symmetry_Int_Tables_number       1
_symmetry_cell_setting            triclinic
loop_
_symmetry_equiv_pos_as_xyz
  x,y,z
_cell_length_a                    19.7584
_cell_length_b                    12.6356
_cell_length_c                    10.0131
_cell_angle_alpha                 90.0000
_cell_angle_beta                  90.0000
_cell_angle_gamma                 90.0000
loop_
_atom_site_label
_atom_site_type_symbol
_atom_site_fract_x
_atom_site_fract_y
_atom_site_fract_z
_atom_site_U_iso_or_equiv
_atom_site_adp_type
_atom_site_occupancy
C1     C     0.41614   0.34644   0.27249   0.00000  Uiso   1.00
C2     C     0.39114   0.23807   0.22714   0.00000  Uiso   1.00
C3     C     0.42374   0.17191   0.13713   0.00000  Uiso   1.00
C4     C     0.39264   0.07600   0.10865   0.00000  Uiso   1.00
C5     C     0.36315   0.91209   0.02913   0.00000  Uiso   1.00
C6     C     0.35919   0.42397   0.24098   0.00000  Uiso   1.00
C7     C     0.36492   0.51412   0.16261   0.00000  Uiso   1.00
C8     C     0.30692   0.57471   0.14580   0.00000  Uiso   1.00
C9     C     0.22785   0.69946   0.08784   0.00000  Uiso   1.00
C10    C     0.42052   0.34119   0.42439   0.00000  Uiso   1.00
C11    C     0.47781   0.36177   0.50026   0.00000  Uiso   1.00
C12    C     0.47143   0.35269   0.63787   0.00000  Uiso   1.00
C13    C     0.48757   0.34892   0.86469   0.00000  Uiso   1.00
C14    C     0.30295   0.29375   0.38199   0.00000  Uiso   1.00
C15    C     0.32966   0.20945   0.28661   0.00000  Uiso   1.00
C16    C     0.29850   0.11361   0.25827   0.00000  Uiso   1.00
C17    C     0.33104   0.04732   0.16823   0.00000  Uiso   1.00
C18    C     0.29771   0.39535   0.30045   0.00000  Uiso   1.00
C19    C     0.23969   0.45583   0.28376   0.00000  Uiso   1.00
C20    C     0.24533   0.54604   0.20538   0.00000  Uiso   1.00
C21    C     0.35903   0.31257   0.48387   0.00000  Uiso   1.00
C22    C     0.35257   0.30347   0.62140   0.00000  Uiso   1.00
C23    C     0.40984   0.32403   0.69745   0.00000  Uiso   1.00
H24    H     0.46401   0.36873   0.22619   0.00000  Uiso   1.00
H25    H     0.47132   0.19409   0.09111   0.00000  Uiso   1.00
H26    H     0.41251   0.53625   0.11661   0.00000  Uiso   1.00
H27    H     0.52538   0.38392   0.45420   0.00000  Uiso   1.00
H28    H     0.45229   0.98786   0.96755   0.00000  Uiso   1.00
H29    H     0.32831   0.70935   0.02134   0.00000  Uiso   1.00
H30    H     0.56631   0.38813   0.73322   0.00000  Uiso   1.00
H31    H     0.25508   0.27148   0.42830   0.00000  Uiso   1.00
H32    H     0.25092   0.09149   0.30431   0.00000  Uiso   1.00
H33    H     0.19212   0.43366   0.32980   0.00000  Uiso   1.00
H34    H     0.30498   0.28132   0.66739   0.00000  Uiso   1.00
H35    H     0.27341   0.90459   0.14058   0.00000  Uiso   1.00
H36    H     0.14942   0.62609   0.19438   0.00000  Uiso   1.00
H37    H     0.38742   0.30486   0.90625   0.00000  Uiso   1.00
O38    O     0.36387   0.82960   0.96882   0.00000  Uiso   1.00
O39    O     0.20122   0.77617   0.03942   0.00000  Uiso   1.00
O40    O     0.51346   0.35474   0.97337   0.00000  Uiso   1.00
N41    N     0.41077   0.99296   0.02531   0.00000  Uiso   1.00
N42    N     0.29485   0.66750   0.07558   0.00000  Uiso   1.00
N43    N     0.51735   0.36721   0.74113   0.00000  Uiso   1.00
N44    N     0.31451   0.94815   0.11841   0.00000  Uiso   1.00
N45    N     0.19859   0.62269   0.16869   0.00000  Uiso   1.00
N46    N     0.42110   0.32240   0.83424   0.00000  Uiso   1.00
C47    C     0.58386   0.65356   0.27249   0.00000  Uiso   1.00
C48    C     0.60886   0.76193   0.22714   0.00000  Uiso   1.00
C49    C     0.57626   0.82809   0.13713   0.00000  Uiso   1.00
C50    C     0.60736   0.92400   0.10865   0.00000  Uiso   1.00
C51    C     0.63685   0.08791   0.02913   0.00000  Uiso   1.00
C52    C     0.64081   0.57603   0.24098   0.00000  Uiso   1.00
C53    C     0.63508   0.48588   0.16261   0.00000  Uiso   1.00
C54    C     0.69308   0.42529   0.14580   0.00000  Uiso   1.00
C55    C     0.77215   0.30054   0.08784   0.00000  Uiso   1.00
C56    C     0.57948   0.65881   0.42439   0.00000  Uiso   1.00
C57    C     0.52219   0.63823   0.50026   0.00000  Uiso   1.00
C58    C     0.52857   0.64731   0.63787   0.00000  Uiso   1.00
C59    C     0.51243   0.65108   0.86469   0.00000  Uiso   1.00
C60    C     0.69705   0.70625   0.38199   0.00000  Uiso   1.00
C61    C     0.67034   0.79055   0.28661   0.00000  Uiso   1.00
C62    C     0.70150   0.88639   0.25827   0.00000  Uiso   1.00
C63    C     0.66896   0.95268   0.16823   0.00000  Uiso   1.00
C64    C     0.70229   0.60465   0.30045   0.00000  Uiso   1.00
C65    C     0.76031   0.54417   0.28376   0.00000  Uiso   1.00
C66    C     0.75467   0.45396   0.20538   0.00000  Uiso   1.00
C67    C     0.64097   0.68743   0.48387   0.00000  Uiso   1.00
C68    C     0.64743   0.69653   0.62140   0.00000  Uiso   1.00
C69    C     0.59016   0.67597   0.69745   0.00000  Uiso   1.00
H70    H     0.53599   0.63127   0.22619   0.00000  Uiso   1.00
H71    H     0.52868   0.80591   0.09111   0.00000  Uiso   1.00
H72    H     0.58749   0.46375   0.11661   0.00000  Uiso   1.00
H73    H     0.47462   0.61608   0.45420   0.00000  Uiso   1.00
H74    H     0.54771   0.01214   0.96755   0.00000  Uiso   1.00
H75    H     0.67169   0.29065   0.02134   0.00000  Uiso   1.00
H76    H     0.43369   0.61187   0.73322   0.00000  Uiso   1.00
H77    H     0.74492   0.72852   0.42830   0.00000  Uiso   1.00
H78    H     0.74908   0.90851   0.30431   0.00000  Uiso   1.00
H79    H     0.80788   0.56634   0.32980   0.00000  Uiso   1.00
H80    H     0.69502   0.71868   0.66739   0.00000  Uiso   1.00
H81    H     0.72659   0.09541   0.14058   0.00000  Uiso   1.00
H82    H     0.85058   0.37391   0.19438   0.00000  Uiso   1.00
H83    H     0.61258   0.69514   0.90625   0.00000  Uiso   1.00
O84    O     0.63613   0.17040   0.96882   0.00000  Uiso   1.00
O85    O     0.79878   0.22383   0.03942   0.00000  Uiso   1.00
O86    O     0.48654   0.64526   0.97337   0.00000  Uiso   1.00
N87    N     0.58923   0.00704   0.02531   0.00000  Uiso   1.00
N88    N     0.70515   0.33250   0.07558   0.00000  Uiso   1.00
N89    N     0.48265   0.63279   0.74113   0.00000  Uiso   1.00
N90    N     0.68549   0.05185   0.11841   0.00000  Uiso   1.00
N91    N     0.80141   0.37731   0.16869   0.00000  Uiso   1.00
N92    N     0.57890   0.67760   0.83424   0.00000  Uiso   1.00
C93    C     0.08386   0.84644   0.72751   0.00000  Uiso   1.00
C94    C     0.10886   0.73807   0.77286   0.00000  Uiso   1.00
C95    C     0.07626   0.67191   0.86287   0.00000  Uiso   1.00
C96    C     0.10736   0.57600   0.89135   0.00000  Uiso   1.00
C97    C     0.13685   0.41209   0.97087   0.00000  Uiso   1.00
C98    C     0.14081   0.92397   0.75902   0.00000  Uiso   1.00
C99    C     0.13508   0.01412   0.83739   0.00000  Uiso   1.00
C100   C     0.19308   0.07471   0.85420   0.00000  Uiso   1.00
C101   C     0.27215   0.19946   0.91216   0.00000  Uiso   1.00
C102   C     0.07948   0.84119   0.57561   0.00000  Uiso   1.00
C103   C     0.02219   0.86177   0.49974   0.00000  Uiso   1.00
C104   C     0.02857   0.85269   0.36213   0.00000  Uiso   1.00
C105   C     0.01243   0.84892   0.13531   0.00000  Uiso   1.00
C106   C     0.19705   0.79375   0.61801   0.00000  Uiso   1.00
C107   C     0.17034   0.70945   0.71339   0.00000  Uiso   1.00
C108   C     0.20150   0.61361   0.74173   0.00000  Uiso   1.00
C109   C     0.16896   0.54732   0.83177   0.00000  Uiso   1.00
C110   C     0.20229   0.89535   0.69955   0.00000  Uiso   1.00
C111   C     0.26031   0.95583   0.71624   0.00000  Uiso   1.00
C112   C     0.25467   0.04604   0.79462   0.00000  Uiso   1.00
C113   C     0.14097   0.81257   0.51613   0.00000  Uiso   1.00
C114   C     0.14743   0.80347   0.37860   0.00000  Uiso   1.00
C115   C     0.09016   0.82403   0.30255   0.00000  Uiso   1.00
H116   H     0.03599   0.86873   0.77381   0.00000  Uiso   1.00
H117   H     0.02868   0.69409   0.90889   0.00000  Uiso   1.00
H118   H     0.08749   0.03625   0.88339   0.00000  Uiso   1.00
H119   H     0.97462   0.88392   0.54580   0.00000  Uiso   1.00
H120   H     0.04771   0.48786   0.03245   0.00000  Uiso   1.00
H121   H     0.17169   0.20935   0.97866   0.00000  Uiso   1.00
H122   H     0.93369   0.88813   0.26678   0.00000  Uiso   1.00
H123   H     0.24492   0.77148   0.57170   0.00000  Uiso   1.00
H124   H     0.24908   0.59149   0.69569   0.00000  Uiso   1.00
H125   H     0.30788   0.93366   0.67020   0.00000  Uiso   1.00
H126   H     0.19502   0.78132   0.33261   0.00000  Uiso   1.00
H127   H     0.22659   0.40459   0.85942   0.00000  Uiso   1.00
H128   H     0.35058   0.12609   0.80562   0.00000  Uiso   1.00
H129   H     0.11258   0.80486   0.09375   0.00000  Uiso   1.00
O130   O     0.13613   0.32960   0.03118   0.00000  Uiso   1.00
O131   O     0.29878   0.27617   0.96058   0.00000  Uiso   1.00
O132   O     0.98654   0.85474   0.02663   0.00000  Uiso   1.00
N133   N     0.08923   0.49296   0.97469   0.00000  Uiso   1.00
N134   N     0.20515   0.16750   0.92442   0.00000  Uiso   1.00
N135   N     0.98265   0.86721   0.25887   0.00000  Uiso   1.00
N136   N     0.18549   0.44815   0.88159   0.00000  Uiso   1.00
N137   N     0.30141   0.12269   0.83131   0.00000  Uiso   1.00
N138   N     0.07890   0.82240   0.16576   0.00000  Uiso   1.00
C139   C     0.91614   0.15356   0.72751   0.00000  Uiso   1.00
C140   C     0.89114   0.26193   0.77286   0.00000  Uiso   1.00
C141   C     0.92374   0.32809   0.86287   0.00000  Uiso   1.00
C142   C     0.89264   0.42400   0.89135   0.00000  Uiso   1.00
C143   C     0.86315   0.58791   0.97087   0.00000  Uiso   1.00
C144   C     0.85919   0.07603   0.75902   0.00000  Uiso   1.00
C145   C     0.86492   0.98588   0.83739   0.00000  Uiso   1.00
C146   C     0.80692   0.92529   0.85420   0.00000  Uiso   1.00
C147   C     0.72785   0.80054   0.91216   0.00000  Uiso   1.00
C148   C     0.92052   0.15881   0.57561   0.00000  Uiso   1.00
C149   C     0.97781   0.13823   0.49974   0.00000  Uiso   1.00
C150   C     0.97143   0.14731   0.36213   0.00000  Uiso   1.00
C151   C     0.98757   0.15108   0.13531   0.00000  Uiso   1.00
C152   C     0.80295   0.20625   0.61801   0.00000  Uiso   1.00
C153   C     0.82966   0.29055   0.71339   0.00000  Uiso   1.00
C154   C     0.79850   0.38639   0.74173   0.00000  Uiso   1.00
C155   C     0.83104   0.45268   0.83177   0.00000  Uiso   1.00
C156   C     0.79771   0.10465   0.69955   0.00000  Uiso   1.00
C157   C     0.73969   0.04417   0.71624   0.00000  Uiso   1.00
C158   C     0.74533   0.95396   0.79462   0.00000  Uiso   1.00
C159   C     0.85903   0.18743   0.51613   0.00000  Uiso   1.00
C160   C     0.85257   0.19653   0.37860   0.00000  Uiso   1.00
C161   C     0.90984   0.17597   0.30255   0.00000  Uiso   1.00
H162   H     0.96401   0.13127   0.77381   0.00000  Uiso   1.00
H163   H     0.97132   0.30591   0.90889   0.00000  Uiso   1.00
H164   H     0.91251   0.96375   0.88339   0.00000  Uiso   1.00
H165   H     0.02538   0.11608   0.54580   0.00000  Uiso   1.00
H166   H     0.95229   0.51214   0.03245   0.00000  Uiso   1.00
H167   H     0.82831   0.79065   0.97866   0.00000  Uiso   1.00
H168   H     0.06631   0.11187   0.26678   0.00000  Uiso   1.00
H169   H     0.75508   0.22852   0.57170   0.00000  Uiso   1.00
H170   H     0.75092   0.40851   0.69569   0.00000  Uiso   1.00
H171   H     0.69212   0.06634   0.67020   0.00000  Uiso   1.00
H172   H     0.80498   0.21868   0.33261   0.00000  Uiso   1.00
H173   H     0.77341   0.59541   0.85942   0.00000  Uiso   1.00
H174   H     0.64942   0.87391   0.80562   0.00000  Uiso   1.00
H175   H     0.88742   0.19514   0.09375   0.00000  Uiso   1.00
O176   O     0.86387   0.67040   0.03118   0.00000  Uiso   1.00
O177   O     0.70122   0.72383   0.96058   0.00000  Uiso   1.00
O178   O     0.01346   0.14526   0.02663   0.00000  Uiso   1.00
N179   N     0.91077   0.50704   0.97469   0.00000  Uiso   1.00
N180   N     0.79485   0.83250   0.92442   0.00000  Uiso   1.00
N181   N     0.01735   0.13279   0.25887   0.00000  Uiso   1.00
N182   N     0.81451   0.55185   0.88159   0.00000  Uiso   1.00
N183   N     0.69859   0.87731   0.83131   0.00000  Uiso   1.00
N184   N     0.92110   0.17760   0.16576   0.00000  Uiso   1.00
