data_job_02545
_audit_creation_date              2018-12-19
_audit_creation_method            'Materials Studio'
_symmetry_space_group_name_H-M    'P1'
_symmetry_Int_Tables_number       1
_symmetry_cell_setting            triclinic
loop_
_symmetry_equiv_pos_as_xyz
  x,y,z
_cell_length_a                    30.8051
_cell_length_b                    22.9304
_cell_length_c                    9.5382
_cell_angle_alpha                 90.0000
_cell_angle_beta                  90.0000
_cell_angle_gamma                 90.0000
loop_
_atom_site_label
_atom_site_type_symbol
_atom_site_fract_x
_atom_site_fract_y
_atom_site_fract_z
_atom_site_U_iso_or_equiv
_atom_site_adp_type
_atom_site_occupancy
C1     C     0.63811   0.94578   0.68278   0.00000  Uiso   1.00
C2     C     0.61038   0.99892   0.64783   0.00000  Uiso   1.00
C3     C     0.62231   0.04439   0.55991   0.00000  Uiso   1.00
C4     C     0.59236   0.08898   0.54148   0.00000  Uiso   1.00
C5     C     0.55546   0.17164   0.47705   0.00000  Uiso   1.00
C6     C     0.64199   0.94459   0.84214   0.00000  Uiso   1.00
C7     C     0.68052   0.94438   0.91758   0.00000  Uiso   1.00
C8     C     0.67718   0.94323   0.06272   0.00000  Uiso   1.00
C9     C     0.68937   0.94150   0.29996   0.00000  Uiso   1.00
C10    C     0.61095   0.89269   0.64310   0.00000  Uiso   1.00
C11    C     0.62338   0.84883   0.55122   0.00000  Uiso   1.00
C12    C     0.59391   0.80397   0.52881   0.00000  Uiso   1.00
C13    C     0.55790   0.72166   0.45700   0.00000  Uiso   1.00
C14    C     0.56368   0.94410   0.80639   0.00000  Uiso   1.00
C15    C     0.56995   0.99800   0.71498   0.00000  Uiso   1.00
C16    C     0.53997   0.04253   0.69667   0.00000  Uiso   1.00
C17    C     0.55187   0.08807   0.60873   0.00000  Uiso   1.00
C18    C     0.60157   0.94368   0.90928   0.00000  Uiso   1.00
C19    C     0.59818   0.94252   0.05434   0.00000  Uiso   1.00
C20    C     0.63669   0.94231   0.12999   0.00000  Uiso   1.00
C21    C     0.57053   0.89177   0.71024   0.00000  Uiso   1.00
C22    C     0.54104   0.84697   0.68798   0.00000  Uiso   1.00
C23    C     0.55341   0.80305   0.59607   0.00000  Uiso   1.00
H24    H     0.66958   0.94649   0.63052   0.00000  Uiso   1.00
H25    H     0.65360   0.04508   0.50798   0.00000  Uiso   1.00
H26    H     0.71179   0.94508   0.86560   0.00000  Uiso   1.00
H27    H     0.65466   0.84955   0.49928   0.00000  Uiso   1.00
H28    H     0.61807   0.15400   0.40177   0.00000  Uiso   1.00
H29    H     0.74077   0.94312   0.15582   0.00000  Uiso   1.00
H30    H     0.62030   0.74167   0.38338   0.00000  Uiso   1.00
H31    H     0.53221   0.94339   0.85867   0.00000  Uiso   1.00
H32    H     0.50870   0.04181   0.74864   0.00000  Uiso   1.00
H33    H     0.56689   0.94181   0.10626   0.00000  Uiso   1.00
H34    H     0.50976   0.84628   0.73995   0.00000  Uiso   1.00
H35    H     0.50046   0.15135   0.59711   0.00000  Uiso   1.00
H36    H     0.62316   0.94047   0.35116   0.00000  Uiso   1.00
H37    H     0.50269   0.73901   0.57872   0.00000  Uiso   1.00
O38    O     0.54628   0.21749   0.42298   0.00000  Uiso   1.00
O39    O     0.70726   0.94081   0.41226   0.00000  Uiso   1.00
O40    O     0.54920   0.67651   0.39884   0.00000  Uiso   1.00
N41    N     0.59361   0.13986   0.46282   0.00000  Uiso   1.00
N42    N     0.70833   0.94271   0.16782   0.00000  Uiso   1.00
N43    N     0.59570   0.75436   0.44568   0.00000  Uiso   1.00
N44    N     0.53033   0.13844   0.56793   0.00000  Uiso   1.00
N45    N     0.64505   0.94129   0.27292   0.00000  Uiso   1.00
N46    N     0.53242   0.75293   0.55078   0.00000  Uiso   1.00
C47    C     0.13804   0.44655   0.83129   0.00000  Uiso   1.00
C48    C     0.11079   0.39327   0.86880   0.00000  Uiso   1.00
C49    C     0.12313   0.34874   0.95890   0.00000  Uiso   1.00
C50    C     0.09358   0.30383   0.97948   0.00000  Uiso   1.00
C51    C     0.05743   0.22113   0.04789   0.00000  Uiso   1.00
C52    C     0.14193   0.44647   0.67191   0.00000  Uiso   1.00
C53    C     0.18046   0.44668   0.59647   0.00000  Uiso   1.00
C54    C     0.17712   0.44656   0.45130   0.00000  Uiso   1.00
C55    C     0.18931   0.44651   0.21403   0.00000  Uiso   1.00
C56    C     0.11041   0.49952   0.86840   0.00000  Uiso   1.00
C57    C     0.12243   0.54434   0.95815   0.00000  Uiso   1.00
C58    C     0.09256   0.58889   0.97839   0.00000  Uiso   1.00
C59    C     0.05580   0.67119   0.04620   0.00000  Uiso   1.00
C60    C     0.06362   0.44599   0.70762   0.00000  Uiso   1.00
C61    C     0.07037   0.39296   0.80162   0.00000  Uiso   1.00
C62    C     0.04079   0.34811   0.82208   0.00000  Uiso   1.00
C63    C     0.05309   0.30352   0.91220   0.00000  Uiso   1.00
C64    C     0.10151   0.44617   0.60474   0.00000  Uiso   1.00
C65    C     0.09812   0.44605   0.45965   0.00000  Uiso   1.00
C66    C     0.13662   0.44626   0.38401   0.00000  Uiso   1.00
C67    C     0.06998   0.49921   0.80123   0.00000  Uiso   1.00
C68    C     0.04009   0.54371   0.82133   0.00000  Uiso   1.00
C69    C     0.05206   0.58858   0.91109   0.00000  Uiso   1.00
H70    H     0.16952   0.44679   0.88358   0.00000  Uiso   1.00
H71    H     0.15442   0.34899   0.01085   0.00000  Uiso   1.00
H72    H     0.21173   0.44692   0.64848   0.00000  Uiso   1.00
H73    H     0.15372   0.54456   0.01011   0.00000  Uiso   1.00
H74    H     0.11986   0.24041   0.12230   0.00000  Uiso   1.00
H75    H     0.24071   0.44693   0.35821   0.00000  Uiso   1.00
H76    H     0.11837   0.65282   0.12077   0.00000  Uiso   1.00
H77    H     0.03215   0.44575   0.65532   0.00000  Uiso   1.00
H78    H     0.00951   0.34789   0.77008   0.00000  Uiso   1.00
H79    H     0.06683   0.44582   0.40770   0.00000  Uiso   1.00
H80    H     0.00881   0.54346   0.76933   0.00000  Uiso   1.00
H81    H     0.00225   0.23951   0.92688   0.00000  Uiso   1.00
H82    H     0.12310   0.44604   0.16279   0.00000  Uiso   1.00
H83    H     0.00076   0.65192   0.92535   0.00000  Uiso   1.00
O84    O     0.04865   0.17559   0.10416   0.00000  Uiso   1.00
O85    O     0.20720   0.44655   0.10171   0.00000  Uiso   1.00
O86    O     0.04669   0.71667   0.10218   0.00000  Uiso   1.00
N87    N     0.09529   0.25363   0.06058   0.00000  Uiso   1.00
N88    N     0.20827   0.44671   0.34620   0.00000  Uiso   1.00
N89    N     0.09390   0.63921   0.05911   0.00000  Uiso   1.00
N90    N     0.03200   0.25315   0.95543   0.00000  Uiso   1.00
N91    N     0.14499   0.44623   0.24105   0.00000  Uiso   1.00
N92    N     0.03061   0.63873   0.95395   0.00000  Uiso   1.00
C93    C     0.36189   0.05422   0.18278   0.00000  Uiso   1.00
C94    C     0.38962   0.00108   0.14783   0.00000  Uiso   1.00
C95    C     0.37769   0.95561   0.05991   0.00000  Uiso   1.00
C96    C     0.40764   0.91102   0.04148   0.00000  Uiso   1.00
C97    C     0.44454   0.82836   0.97705   0.00000  Uiso   1.00
C98    C     0.35801   0.05541   0.34214   0.00000  Uiso   1.00
C99    C     0.31948   0.05562   0.41758   0.00000  Uiso   1.00
C100   C     0.32282   0.05677   0.56272   0.00000  Uiso   1.00
C101   C     0.31063   0.05850   0.79996   0.00000  Uiso   1.00
C102   C     0.38905   0.10731   0.14310   0.00000  Uiso   1.00
C103   C     0.37662   0.15117   0.05122   0.00000  Uiso   1.00
C104   C     0.40609   0.19603   0.02881   0.00000  Uiso   1.00
C105   C     0.44210   0.27834   0.95700   0.00000  Uiso   1.00
C106   C     0.43632   0.05590   0.30639   0.00000  Uiso   1.00
C107   C     0.43005   0.00200   0.21498   0.00000  Uiso   1.00
C108   C     0.46003   0.95747   0.19667   0.00000  Uiso   1.00
C109   C     0.44813   0.91193   0.10873   0.00000  Uiso   1.00
C110   C     0.39843   0.05632   0.40928   0.00000  Uiso   1.00
C111   C     0.40182   0.05748   0.55434   0.00000  Uiso   1.00
C112   C     0.36331   0.05769   0.62999   0.00000  Uiso   1.00
C113   C     0.42947   0.10823   0.21024   0.00000  Uiso   1.00
C114   C     0.45896   0.15303   0.18798   0.00000  Uiso   1.00
C115   C     0.44659   0.19695   0.09607   0.00000  Uiso   1.00
H116   H     0.33042   0.05351   0.13052   0.00000  Uiso   1.00
H117   H     0.34640   0.95492   0.00798   0.00000  Uiso   1.00
H118   H     0.28821   0.05492   0.36560   0.00000  Uiso   1.00
H119   H     0.34534   0.15045   0.99928   0.00000  Uiso   1.00
H120   H     0.38193   0.84600   0.90177   0.00000  Uiso   1.00
H121   H     0.25923   0.05688   0.65582   0.00000  Uiso   1.00
H122   H     0.37970   0.25833   0.88338   0.00000  Uiso   1.00
H123   H     0.46779   0.05661   0.35867   0.00000  Uiso   1.00
H124   H     0.49130   0.95819   0.24864   0.00000  Uiso   1.00
H125   H     0.43311   0.05819   0.60626   0.00000  Uiso   1.00
H126   H     0.49024   0.15372   0.23995   0.00000  Uiso   1.00
H127   H     0.49954   0.84865   0.09711   0.00000  Uiso   1.00
H128   H     0.37684   0.05953   0.85116   0.00000  Uiso   1.00
H129   H     0.49731   0.26099   0.07872   0.00000  Uiso   1.00
O130   O     0.45372   0.78251   0.92298   0.00000  Uiso   1.00
O131   O     0.29274   0.05919   0.91226   0.00000  Uiso   1.00
O132   O     0.45080   0.32349   0.89884   0.00000  Uiso   1.00
N133   N     0.40639   0.86014   0.96282   0.00000  Uiso   1.00
N134   N     0.29167   0.05729   0.66782   0.00000  Uiso   1.00
N135   N     0.40430   0.24564   0.94568   0.00000  Uiso   1.00
N136   N     0.46967   0.86156   0.06793   0.00000  Uiso   1.00
N137   N     0.35495   0.05871   0.77292   0.00000  Uiso   1.00
N138   N     0.46758   0.24707   0.05078   0.00000  Uiso   1.00
C139   C     0.86196   0.55345   0.33129   0.00000  Uiso   1.00
C140   C     0.88921   0.60673   0.36880   0.00000  Uiso   1.00
C141   C     0.87687   0.65126   0.45890   0.00000  Uiso   1.00
C142   C     0.90642   0.69617   0.47948   0.00000  Uiso   1.00
C143   C     0.94257   0.77887   0.54789   0.00000  Uiso   1.00
C144   C     0.85807   0.55353   0.17191   0.00000  Uiso   1.00
C145   C     0.81954   0.55332   0.09647   0.00000  Uiso   1.00
C146   C     0.82288   0.55344   0.95130   0.00000  Uiso   1.00
C147   C     0.81069   0.55349   0.71403   0.00000  Uiso   1.00
C148   C     0.88959   0.50048   0.36840   0.00000  Uiso   1.00
C149   C     0.87757   0.45566   0.45815   0.00000  Uiso   1.00
C150   C     0.90744   0.41111   0.47839   0.00000  Uiso   1.00
C151   C     0.94420   0.32881   0.54620   0.00000  Uiso   1.00
C152   C     0.93638   0.55401   0.20762   0.00000  Uiso   1.00
C153   C     0.92963   0.60704   0.30162   0.00000  Uiso   1.00
C154   C     0.95921   0.65189   0.32208   0.00000  Uiso   1.00
C155   C     0.94691   0.69648   0.41220   0.00000  Uiso   1.00
C156   C     0.89849   0.55383   0.10474   0.00000  Uiso   1.00
C157   C     0.90188   0.55395   0.95965   0.00000  Uiso   1.00
C158   C     0.86338   0.55374   0.88401   0.00000  Uiso   1.00
C159   C     0.93002   0.50079   0.30123   0.00000  Uiso   1.00
C160   C     0.95991   0.45629   0.32133   0.00000  Uiso   1.00
C161   C     0.94794   0.41142   0.41109   0.00000  Uiso   1.00
H162   H     0.83048   0.55321   0.38358   0.00000  Uiso   1.00
H163   H     0.84558   0.65101   0.51085   0.00000  Uiso   1.00
H164   H     0.78827   0.55308   0.14848   0.00000  Uiso   1.00
H165   H     0.84628   0.45544   0.51011   0.00000  Uiso   1.00
H166   H     0.88014   0.75959   0.62230   0.00000  Uiso   1.00
H167   H     0.75929   0.55307   0.85821   0.00000  Uiso   1.00
H168   H     0.88163   0.34718   0.62077   0.00000  Uiso   1.00
H169   H     0.96785   0.55425   0.15532   0.00000  Uiso   1.00
H170   H     0.99049   0.65211   0.27008   0.00000  Uiso   1.00
H171   H     0.93317   0.55418   0.90770   0.00000  Uiso   1.00
H172   H     0.99119   0.45654   0.26933   0.00000  Uiso   1.00
H173   H     0.99775   0.76049   0.42688   0.00000  Uiso   1.00
H174   H     0.87690   0.55396   0.66279   0.00000  Uiso   1.00
H175   H     0.99924   0.34808   0.42535   0.00000  Uiso   1.00
O176   O     0.95135   0.82441   0.60416   0.00000  Uiso   1.00
O177   O     0.79280   0.55345   0.60171   0.00000  Uiso   1.00
O178   O     0.95331   0.28333   0.60218   0.00000  Uiso   1.00
N179   N     0.90471   0.74637   0.56058   0.00000  Uiso   1.00
N180   N     0.79173   0.55329   0.84620   0.00000  Uiso   1.00
N181   N     0.90610   0.36079   0.55911   0.00000  Uiso   1.00
N182   N     0.96800   0.74685   0.45543   0.00000  Uiso   1.00
N183   N     0.85501   0.55377   0.74105   0.00000  Uiso   1.00
N184   N     0.96939   0.36127   0.45395   0.00000  Uiso   1.00
C185   C     0.13811   0.05422   0.68278   0.00000  Uiso   1.00
C186   C     0.11038   0.00108   0.64783   0.00000  Uiso   1.00
C187   C     0.12231   0.95561   0.55991   0.00000  Uiso   1.00
C188   C     0.09236   0.91102   0.54148   0.00000  Uiso   1.00
C189   C     0.05546   0.82836   0.47705   0.00000  Uiso   1.00
C190   C     0.14199   0.05541   0.84214   0.00000  Uiso   1.00
C191   C     0.18052   0.05562   0.91758   0.00000  Uiso   1.00
C192   C     0.17718   0.05677   0.06272   0.00000  Uiso   1.00
C193   C     0.18937   0.05850   0.29996   0.00000  Uiso   1.00
C194   C     0.11095   0.10731   0.64310   0.00000  Uiso   1.00
C195   C     0.12338   0.15117   0.55122   0.00000  Uiso   1.00
C196   C     0.09391   0.19603   0.52881   0.00000  Uiso   1.00
C197   C     0.05790   0.27834   0.45700   0.00000  Uiso   1.00
C198   C     0.06368   0.05590   0.80639   0.00000  Uiso   1.00
C199   C     0.06995   0.00200   0.71498   0.00000  Uiso   1.00
C200   C     0.03997   0.95747   0.69667   0.00000  Uiso   1.00
C201   C     0.05187   0.91193   0.60873   0.00000  Uiso   1.00
C202   C     0.10157   0.05632   0.90928   0.00000  Uiso   1.00
C203   C     0.09818   0.05748   0.05434   0.00000  Uiso   1.00
C204   C     0.13669   0.05769   0.12999   0.00000  Uiso   1.00
C205   C     0.07053   0.10823   0.71024   0.00000  Uiso   1.00
C206   C     0.04104   0.15303   0.68798   0.00000  Uiso   1.00
C207   C     0.05341   0.19695   0.59607   0.00000  Uiso   1.00
H208   H     0.16958   0.05351   0.63052   0.00000  Uiso   1.00
H209   H     0.15360   0.95492   0.50798   0.00000  Uiso   1.00
H210   H     0.21179   0.05492   0.86560   0.00000  Uiso   1.00
H211   H     0.15466   0.15045   0.49928   0.00000  Uiso   1.00
H212   H     0.11807   0.84600   0.40177   0.00000  Uiso   1.00
H213   H     0.24077   0.05688   0.15582   0.00000  Uiso   1.00
H214   H     0.12030   0.25833   0.38338   0.00000  Uiso   1.00
H215   H     0.03221   0.05661   0.85867   0.00000  Uiso   1.00
H216   H     0.00870   0.95819   0.74864   0.00000  Uiso   1.00
H217   H     0.06689   0.05819   0.10626   0.00000  Uiso   1.00
H218   H     0.00976   0.15372   0.73995   0.00000  Uiso   1.00
H219   H     0.00046   0.84865   0.59711   0.00000  Uiso   1.00
H220   H     0.12316   0.05953   0.35116   0.00000  Uiso   1.00
H221   H     0.00269   0.26099   0.57872   0.00000  Uiso   1.00
O222   O     0.04628   0.78251   0.42298   0.00000  Uiso   1.00
O223   O     0.20726   0.05919   0.41226   0.00000  Uiso   1.00
O224   O     0.04920   0.32349   0.39884   0.00000  Uiso   1.00
N225   N     0.09361   0.86014   0.46282   0.00000  Uiso   1.00
N226   N     0.20833   0.05729   0.16782   0.00000  Uiso   1.00
N227   N     0.09570   0.24564   0.44568   0.00000  Uiso   1.00
N228   N     0.03033   0.86156   0.56793   0.00000  Uiso   1.00
N229   N     0.14505   0.05871   0.27292   0.00000  Uiso   1.00
N230   N     0.03242   0.24707   0.55078   0.00000  Uiso   1.00
C231   C     0.63804   0.55345   0.83129   0.00000  Uiso   1.00
C232   C     0.61079   0.60673   0.86880   0.00000  Uiso   1.00
C233   C     0.62313   0.65126   0.95890   0.00000  Uiso   1.00
C234   C     0.59358   0.69617   0.97948   0.00000  Uiso   1.00
C235   C     0.55743   0.77887   0.04789   0.00000  Uiso   1.00
C236   C     0.64193   0.55353   0.67191   0.00000  Uiso   1.00
C237   C     0.68046   0.55332   0.59647   0.00000  Uiso   1.00
C238   C     0.67712   0.55344   0.45130   0.00000  Uiso   1.00
C239   C     0.68931   0.55349   0.21403   0.00000  Uiso   1.00
C240   C     0.61041   0.50048   0.86840   0.00000  Uiso   1.00
C241   C     0.62243   0.45566   0.95815   0.00000  Uiso   1.00
C242   C     0.59256   0.41111   0.97839   0.00000  Uiso   1.00
C243   C     0.55580   0.32881   0.04620   0.00000  Uiso   1.00
C244   C     0.56362   0.55401   0.70762   0.00000  Uiso   1.00
C245   C     0.57037   0.60704   0.80162   0.00000  Uiso   1.00
C246   C     0.54079   0.65189   0.82208   0.00000  Uiso   1.00
C247   C     0.55309   0.69648   0.91220   0.00000  Uiso   1.00
C248   C     0.60151   0.55383   0.60474   0.00000  Uiso   1.00
C249   C     0.59812   0.55395   0.45965   0.00000  Uiso   1.00
C250   C     0.63662   0.55374   0.38401   0.00000  Uiso   1.00
C251   C     0.56998   0.50079   0.80123   0.00000  Uiso   1.00
C252   C     0.54009   0.45629   0.82133   0.00000  Uiso   1.00
C253   C     0.55206   0.41142   0.91109   0.00000  Uiso   1.00
H254   H     0.66952   0.55321   0.88358   0.00000  Uiso   1.00
H255   H     0.65442   0.65101   0.01085   0.00000  Uiso   1.00
H256   H     0.71173   0.55308   0.64848   0.00000  Uiso   1.00
H257   H     0.65372   0.45544   0.01011   0.00000  Uiso   1.00
H258   H     0.61986   0.75959   0.12230   0.00000  Uiso   1.00
H259   H     0.74071   0.55307   0.35821   0.00000  Uiso   1.00
H260   H     0.61837   0.34718   0.12077   0.00000  Uiso   1.00
H261   H     0.53215   0.55425   0.65532   0.00000  Uiso   1.00
H262   H     0.50951   0.65211   0.77008   0.00000  Uiso   1.00
H263   H     0.56683   0.55418   0.40770   0.00000  Uiso   1.00
H264   H     0.50881   0.45654   0.76933   0.00000  Uiso   1.00
H265   H     0.50225   0.76049   0.92688   0.00000  Uiso   1.00
H266   H     0.62310   0.55396   0.16279   0.00000  Uiso   1.00
H267   H     0.50076   0.34808   0.92535   0.00000  Uiso   1.00
O268   O     0.54865   0.82441   0.10416   0.00000  Uiso   1.00
O269   O     0.70720   0.55345   0.10171   0.00000  Uiso   1.00
O270   O     0.54669   0.28333   0.10218   0.00000  Uiso   1.00
N271   N     0.59529   0.74637   0.06058   0.00000  Uiso   1.00
N272   N     0.70827   0.55329   0.34620   0.00000  Uiso   1.00
N273   N     0.59390   0.36079   0.05911   0.00000  Uiso   1.00
N274   N     0.53200   0.74685   0.95543   0.00000  Uiso   1.00
N275   N     0.64499   0.55377   0.24105   0.00000  Uiso   1.00
N276   N     0.53061   0.36127   0.95395   0.00000  Uiso   1.00
C277   C     0.86189   0.94578   0.18278   0.00000  Uiso   1.00
C278   C     0.88962   0.99892   0.14783   0.00000  Uiso   1.00
C279   C     0.87769   0.04439   0.05991   0.00000  Uiso   1.00
C280   C     0.90764   0.08898   0.04148   0.00000  Uiso   1.00
C281   C     0.94454   0.17164   0.97705   0.00000  Uiso   1.00
C282   C     0.85801   0.94459   0.34214   0.00000  Uiso   1.00
C283   C     0.81948   0.94438   0.41758   0.00000  Uiso   1.00
C284   C     0.82282   0.94323   0.56272   0.00000  Uiso   1.00
C285   C     0.81063   0.94150   0.79996   0.00000  Uiso   1.00
C286   C     0.88905   0.89269   0.14310   0.00000  Uiso   1.00
C287   C     0.87662   0.84883   0.05122   0.00000  Uiso   1.00
C288   C     0.90609   0.80397   0.02881   0.00000  Uiso   1.00
C289   C     0.94210   0.72166   0.95700   0.00000  Uiso   1.00
C290   C     0.93632   0.94410   0.30639   0.00000  Uiso   1.00
C291   C     0.93005   0.99800   0.21498   0.00000  Uiso   1.00
C292   C     0.96003   0.04253   0.19667   0.00000  Uiso   1.00
C293   C     0.94813   0.08807   0.10873   0.00000  Uiso   1.00
C294   C     0.89843   0.94368   0.40928   0.00000  Uiso   1.00
C295   C     0.90182   0.94252   0.55434   0.00000  Uiso   1.00
C296   C     0.86331   0.94231   0.62999   0.00000  Uiso   1.00
C297   C     0.92947   0.89177   0.21024   0.00000  Uiso   1.00
C298   C     0.95896   0.84697   0.18798   0.00000  Uiso   1.00
C299   C     0.94659   0.80305   0.09607   0.00000  Uiso   1.00
H300   H     0.83042   0.94649   0.13052   0.00000  Uiso   1.00
H301   H     0.84640   0.04508   0.00798   0.00000  Uiso   1.00
H302   H     0.78821   0.94508   0.36560   0.00000  Uiso   1.00
H303   H     0.84534   0.84955   0.99928   0.00000  Uiso   1.00
H304   H     0.88193   0.15400   0.90177   0.00000  Uiso   1.00
H305   H     0.75923   0.94312   0.65582   0.00000  Uiso   1.00
H306   H     0.87970   0.74167   0.88338   0.00000  Uiso   1.00
H307   H     0.96779   0.94339   0.35867   0.00000  Uiso   1.00
H308   H     0.99130   0.04181   0.24864   0.00000  Uiso   1.00
H309   H     0.93311   0.94181   0.60626   0.00000  Uiso   1.00
H310   H     0.99024   0.84628   0.23995   0.00000  Uiso   1.00
H311   H     0.99954   0.15135   0.09711   0.00000  Uiso   1.00
H312   H     0.87684   0.94047   0.85116   0.00000  Uiso   1.00
H313   H     0.99731   0.73901   0.07872   0.00000  Uiso   1.00
O314   O     0.95372   0.21749   0.92298   0.00000  Uiso   1.00
O315   O     0.79274   0.94081   0.91226   0.00000  Uiso   1.00
O316   O     0.95080   0.67651   0.89884   0.00000  Uiso   1.00
N317   N     0.90639   0.13986   0.96282   0.00000  Uiso   1.00
N318   N     0.79167   0.94271   0.66782   0.00000  Uiso   1.00
N319   N     0.90430   0.75436   0.94568   0.00000  Uiso   1.00
N320   N     0.96967   0.13844   0.06793   0.00000  Uiso   1.00
N321   N     0.85495   0.94129   0.77292   0.00000  Uiso   1.00
N322   N     0.96758   0.75293   0.05078   0.00000  Uiso   1.00
C323   C     0.36196   0.44655   0.33129   0.00000  Uiso   1.00
C324   C     0.38921   0.39327   0.36880   0.00000  Uiso   1.00
C325   C     0.37687   0.34874   0.45890   0.00000  Uiso   1.00
C326   C     0.40642   0.30383   0.47948   0.00000  Uiso   1.00
C327   C     0.44257   0.22113   0.54789   0.00000  Uiso   1.00
C328   C     0.35807   0.44647   0.17191   0.00000  Uiso   1.00
C329   C     0.31954   0.44668   0.09647   0.00000  Uiso   1.00
C330   C     0.32288   0.44656   0.95130   0.00000  Uiso   1.00
C331   C     0.31069   0.44651   0.71403   0.00000  Uiso   1.00
C332   C     0.38959   0.49952   0.36840   0.00000  Uiso   1.00
C333   C     0.37757   0.54434   0.45815   0.00000  Uiso   1.00
C334   C     0.40744   0.58889   0.47839   0.00000  Uiso   1.00
C335   C     0.44420   0.67119   0.54620   0.00000  Uiso   1.00
C336   C     0.43638   0.44599   0.20762   0.00000  Uiso   1.00
C337   C     0.42963   0.39296   0.30162   0.00000  Uiso   1.00
C338   C     0.45921   0.34811   0.32208   0.00000  Uiso   1.00
C339   C     0.44691   0.30352   0.41220   0.00000  Uiso   1.00
C340   C     0.39849   0.44617   0.10474   0.00000  Uiso   1.00
C341   C     0.40188   0.44605   0.95965   0.00000  Uiso   1.00
C342   C     0.36338   0.44626   0.88401   0.00000  Uiso   1.00
C343   C     0.43002   0.49921   0.30123   0.00000  Uiso   1.00
C344   C     0.45991   0.54371   0.32133   0.00000  Uiso   1.00
C345   C     0.44794   0.58858   0.41109   0.00000  Uiso   1.00
H346   H     0.33048   0.44679   0.38358   0.00000  Uiso   1.00
H347   H     0.34558   0.34899   0.51085   0.00000  Uiso   1.00
H348   H     0.28827   0.44692   0.14848   0.00000  Uiso   1.00
H349   H     0.34628   0.54456   0.51011   0.00000  Uiso   1.00
H350   H     0.38014   0.24041   0.62230   0.00000  Uiso   1.00
H351   H     0.25929   0.44693   0.85821   0.00000  Uiso   1.00
H352   H     0.38163   0.65282   0.62077   0.00000  Uiso   1.00
H353   H     0.46785   0.44575   0.15532   0.00000  Uiso   1.00
H354   H     0.49049   0.34789   0.27008   0.00000  Uiso   1.00
H355   H     0.43317   0.44582   0.90770   0.00000  Uiso   1.00
H356   H     0.49119   0.54346   0.26933   0.00000  Uiso   1.00
H357   H     0.49775   0.23951   0.42688   0.00000  Uiso   1.00
H358   H     0.37690   0.44604   0.66279   0.00000  Uiso   1.00
H359   H     0.49924   0.65192   0.42535   0.00000  Uiso   1.00
O360   O     0.45135   0.17559   0.60416   0.00000  Uiso   1.00
O361   O     0.29280   0.44655   0.60171   0.00000  Uiso   1.00
O362   O     0.45331   0.71667   0.60218   0.00000  Uiso   1.00
N363   N     0.40471   0.25363   0.56058   0.00000  Uiso   1.00
N364   N     0.29173   0.44671   0.84620   0.00000  Uiso   1.00
N365   N     0.40610   0.63921   0.55911   0.00000  Uiso   1.00
N366   N     0.46800   0.25315   0.45543   0.00000  Uiso   1.00
N367   N     0.35501   0.44623   0.74105   0.00000  Uiso   1.00
N368   N     0.46939   0.63873   0.45395   0.00000  Uiso   1.00
