data_job_00153
_audit_creation_date              2018-12-19
_audit_creation_method            'Materials Studio'
_symmetry_space_group_name_H-M    'P1'
_symmetry_Int_Tables_number       1
_symmetry_cell_setting            triclinic
loop_
_symmetry_equiv_pos_as_xyz
  x,y,z
_cell_length_a                    7.1551
_cell_length_b                    12.4265
_cell_length_c                    83.5485
_cell_angle_alpha                 90.7662
_cell_angle_beta                  89.9664
_cell_angle_gamma                 73.2680
loop_
_atom_site_label
_atom_site_type_symbol
_atom_site_fract_x
_atom_site_fract_y
_atom_site_fract_z
_atom_site_U_iso_or_equiv
_atom_site_adp_type
_atom_site_occupancy
C1     C     0.32971   0.33830   0.41887   0.00000  Uiso   1.00
C2     C     0.46395   0.23512   0.41046   0.00000  Uiso   1.00
C3     C     0.40606   0.14853   0.40332   0.00000  Uiso   1.00
C4     C     0.55108   0.06162   0.39626   0.00000  Uiso   1.00
C5     C     0.72975   0.90141   0.38320   0.00000  Uiso   1.00
C6     C     0.41009   0.33968   0.43575   0.00000  Uiso   1.00
C7     C     0.30689   0.34102   0.44985   0.00000  Uiso   1.00
C8     C     0.40658   0.34215   0.46408   0.00000  Uiso   1.00
C9     C     0.50157   0.34435   0.49027   0.00000  Uiso   1.00
C10    C     0.36215   0.43986   0.41052   0.00000  Uiso   1.00
C11    C     0.21865   0.52544   0.40342   0.00000  Uiso   1.00
C12    C     0.27798   0.61092   0.39640   0.00000  Uiso   1.00
C13    C     0.29856   0.76866   0.38343   0.00000  Uiso   1.00
C14    C     0.69022   0.33795   0.41905   0.00000  Uiso   1.00
C15    C     0.65976   0.23494   0.41056   0.00000  Uiso   1.00
C16    C     0.80492   0.14814   0.40351   0.00000  Uiso   1.00
C17    C     0.74725   0.06143   0.39636   0.00000  Uiso   1.00
C18    C     0.60589   0.33949   0.43584   0.00000  Uiso   1.00
C19    C     0.70575   0.34063   0.45005   0.00000  Uiso   1.00
C20    C     0.60274   0.34196   0.46418   0.00000  Uiso   1.00
C21    C     0.55797   0.43967   0.41061   0.00000  Uiso   1.00
C22    C     0.61753   0.52504   0.40361   0.00000  Uiso   1.00
C23    C     0.47415   0.61073   0.39650   0.00000  Uiso   1.00
H24    H     0.17726   0.33845   0.41879   0.00000  Uiso   1.00
H25    H     0.25450   0.14870   0.40325   0.00000  Uiso   1.00
H26    H     0.15535   0.34117   0.44977   0.00000  Uiso   1.00
H27    H     0.06714   0.52555   0.40334   0.00000  Uiso   1.00
H28    H     0.42651   0.93822   0.38606   0.00000  Uiso   1.00
H29    H     0.21742   0.34410   0.48416   0.00000  Uiso   1.00
H30    H     0.03140   0.73291   0.38626   0.00000  Uiso   1.00
H31    H     0.84268   0.33781   0.41912   0.00000  Uiso   1.00
H32    H     0.95644   0.14802   0.40359   0.00000  Uiso   1.00
H33    H     0.85728   0.34049   0.45012   0.00000  Uiso   1.00
H34    H     0.76907   0.52487   0.40369   0.00000  Uiso   1.00
H35    H     0.99623   0.93767   0.38634   0.00000  Uiso   1.00
H36    H     0.78713   0.34355   0.48445   0.00000  Uiso   1.00
H37    H     0.60112   0.73236   0.38654   0.00000  Uiso   1.00
O38    O     0.77420   0.81309   0.37598   0.00000  Uiso   1.00
O39    O     0.49987   0.34561   0.50469   0.00000  Uiso   1.00
O40    O     0.25582   0.85571   0.37624   0.00000  Uiso   1.00
N41    N     0.54497   0.96415   0.38825   0.00000  Uiso   1.00
N42    N     0.34950   0.34360   0.47998   0.00000  Uiso   1.00
N43    N     0.17557   0.70712   0.38844   0.00000  Uiso   1.00
N44    N     0.85153   0.96385   0.38840   0.00000  Uiso   1.00
N45    N     0.65606   0.34330   0.48013   0.00000  Uiso   1.00
N46    N     0.48213   0.70683   0.38860   0.00000  Uiso   1.00
C47    C     0.19672   0.33536   0.58022   0.00000  Uiso   1.00
C48    C     0.16683   0.23231   0.58833   0.00000  Uiso   1.00
C49    C     0.31223   0.14597   0.59508   0.00000  Uiso   1.00
C50    C     0.25510   0.05915   0.60192   0.00000  Uiso   1.00
C51    C     0.23845   0.89916   0.61449   0.00000  Uiso   1.00
C52    C     0.11319   0.33627   0.56342   0.00000  Uiso   1.00
C53    C     0.21349   0.33735   0.54923   0.00000  Uiso   1.00
C54    C     0.11119   0.33805   0.53509   0.00000  Uiso   1.00
C55    C     0.01122   0.33954   0.50899   0.00000  Uiso   1.00
C56    C     0.06343   0.43705   0.58900   0.00000  Uiso   1.00
C57    C     0.12187   0.52290   0.59632   0.00000  Uiso   1.00
C58    C     0.97766   0.60847   0.60372   0.00000  Uiso   1.00
C59    C     0.80044   0.76644   0.61735   0.00000  Uiso   1.00
C60    C     0.83671   0.33470   0.58036   0.00000  Uiso   1.00
C61    C     0.97128   0.23196   0.58840   0.00000  Uiso   1.00
C62    C     0.91392   0.14524   0.59523   0.00000  Uiso   1.00
C63    C     0.05921   0.05879   0.60199   0.00000  Uiso   1.00
C64    C     0.91765   0.33591   0.56349   0.00000  Uiso   1.00
C65    C     0.81518   0.33662   0.54938   0.00000  Uiso   1.00
C66    C     0.91529   0.33769   0.53517   0.00000  Uiso   1.00
C67    C     0.86788   0.43669   0.58908   0.00000  Uiso   1.00
C68    C     0.72356   0.52216   0.59647   0.00000  Uiso   1.00
C69    C     0.78177   0.60811   0.60380   0.00000  Uiso   1.00
H70    H     0.34895   0.33565   0.58016   0.00000  Uiso   1.00
H71    H     0.46354   0.14628   0.59502   0.00000  Uiso   1.00
H72    H     0.36480   0.33764   0.54917   0.00000  Uiso   1.00
H73    H     0.27320   0.52315   0.59626   0.00000  Uiso   1.00
H74    H     0.50436   0.93615   0.61153   0.00000  Uiso   1.00
H75    H     0.29615   0.33968   0.51485   0.00000  Uiso   1.00
H76    H     0.10299   0.73087   0.61414   0.00000  Uiso   1.00
H77    H     0.68446   0.33442   0.58041   0.00000  Uiso   1.00
H78    H     0.76259   0.14499   0.59529   0.00000  Uiso   1.00
H79    H     0.66385   0.33634   0.54944   0.00000  Uiso   1.00
H80    H     0.57225   0.52185   0.59652   0.00000  Uiso   1.00
H81    H     0.93544   0.93510   0.61174   0.00000  Uiso   1.00
H82    H     0.72723   0.33863   0.51506   0.00000  Uiso   1.00
H83    H     0.53407   0.72981   0.61435   0.00000  Uiso   1.00
O84    O     0.28329   0.81101   0.62141   0.00000  Uiso   1.00
O85    O     0.01012   0.34045   0.49457   0.00000  Uiso   1.00
O86    O     0.75670   0.85367   0.62484   0.00000  Uiso   1.00
N87    N     0.35974   0.96191   0.60954   0.00000  Uiso   1.00
N88    N     0.16508   0.33917   0.51915   0.00000  Uiso   1.00
N89    N     0.98448   0.70491   0.61198   0.00000  Uiso   1.00
N90    N     0.05361   0.96135   0.60965   0.00000  Uiso   1.00
N91    N     0.85895   0.33860   0.51927   0.00000  Uiso   1.00
N92    N     0.67835   0.70435   0.61209   0.00000  Uiso   1.00
C93    C     0.48132   0.83777   0.66888   0.00000  Uiso   1.00
C94    C     0.45037   0.73463   0.66047   0.00000  Uiso   1.00
C95    C     0.59494   0.64807   0.65331   0.00000  Uiso   1.00
C96    C     0.53691   0.56119   0.64625   0.00000  Uiso   1.00
C97    C     0.51862   0.40104   0.63318   0.00000  Uiso   1.00
C98    C     0.39936   0.83908   0.68576   0.00000  Uiso   1.00
C99    C     0.50106   0.84035   0.69987   0.00000  Uiso   1.00
C100   C     0.40007   0.84142   0.71409   0.00000  Uiso   1.00
C101   C     0.30255   0.84350   0.74028   0.00000  Uiso   1.00
C102   C     0.34742   0.93936   0.66054   0.00000  Uiso   1.00
C103   C     0.40542   0.02498   0.65345   0.00000  Uiso   1.00
C104   C     0.26069   0.11050   0.64644   0.00000  Uiso   1.00
C105   C     0.08253   0.26829   0.63348   0.00000  Uiso   1.00
C106   C     0.12116   0.83742   0.66906   0.00000  Uiso   1.00
C107   C     0.25474   0.73444   0.66056   0.00000  Uiso   1.00
C108   C     0.19646   0.64768   0.65351   0.00000  Uiso   1.00
C109   C     0.34093   0.56100   0.64634   0.00000  Uiso   1.00
C110   C     0.20375   0.83889   0.68585   0.00000  Uiso   1.00
C111   C     0.10258   0.83996   0.70006   0.00000  Uiso   1.00
C112   C     0.20409   0.84122   0.71419   0.00000  Uiso   1.00
C113   C     0.15179   0.93917   0.66063   0.00000  Uiso   1.00
C114   C     0.00694   0.02458   0.65364   0.00000  Uiso   1.00
C115   C     0.06471   0.11030   0.64654   0.00000  Uiso   1.00
H116   H     0.63362   0.83792   0.66881   0.00000  Uiso   1.00
H117   H     0.74632   0.64824   0.65324   0.00000  Uiso   1.00
H118   H     0.65244   0.84051   0.69979   0.00000  Uiso   1.00
H119   H     0.55682   0.02510   0.65337   0.00000  Uiso   1.00
H120   H     0.78501   0.43784   0.63603   0.00000  Uiso   1.00
H121   H     0.58703   0.84328   0.73418   0.00000  Uiso   1.00
H122   H     0.38540   0.23253   0.63631   0.00000  Uiso   1.00
H123   H     0.96885   0.83727   0.66913   0.00000  Uiso   1.00
H124   H     0.04507   0.64755   0.65358   0.00000  Uiso   1.00
H125   H     0.95119   0.83982   0.70013   0.00000  Uiso   1.00
H126   H     0.85557   0.02441   0.65372   0.00000  Uiso   1.00
H127   H     0.21585   0.43727   0.63631   0.00000  Uiso   1.00
H128   H     0.01787   0.84272   0.73446   0.00000  Uiso   1.00
H129   H     0.81624   0.23197   0.63658   0.00000  Uiso   1.00
O130   O     0.56257   0.31274   0.62594   0.00000  Uiso   1.00
O131   O     0.30282   0.84469   0.75470   0.00000  Uiso   1.00
O132   O     0.03830   0.35537   0.62630   0.00000  Uiso   1.00
N133   N     0.64059   0.46375   0.63823   0.00000  Uiso   1.00
N134   N     0.45550   0.84280   0.72999   0.00000  Uiso   1.00
N135   N     0.26699   0.20673   0.63849   0.00000  Uiso   1.00
N136   N     0.33433   0.46345   0.63838   0.00000  Uiso   1.00
N137   N     0.14924   0.84250   0.73014   0.00000  Uiso   1.00
N138   N     0.96073   0.20643   0.63864   0.00000  Uiso   1.00
C139   C     0.61840   0.83498   0.83022   0.00000  Uiso   1.00
C140   C     0.75120   0.73197   0.83834   0.00000  Uiso   1.00
C141   C     0.69202   0.64566   0.84510   0.00000  Uiso   1.00
C142   C     0.83585   0.55887   0.85195   0.00000  Uiso   1.00
C143   C     0.01226   0.39894   0.86454   0.00000  Uiso   1.00
C144   C     0.70132   0.83581   0.81342   0.00000  Uiso   1.00
C145   C     0.60019   0.83682   0.79922   0.00000  Uiso   1.00
C146   C     0.70204   0.83746   0.78509   0.00000  Uiso   1.00
C147   C     0.80097   0.83883   0.75899   0.00000  Uiso   1.00
C148   C     0.64985   0.93671   0.83899   0.00000  Uiso   1.00
C149   C     0.50544   0.02258   0.84630   0.00000  Uiso   1.00
C150   C     0.56394   0.10819   0.85370   0.00000  Uiso   1.00
C151   C     0.58296   0.26622   0.86731   0.00000  Uiso   1.00
C152   C     0.97907   0.83432   0.83036   0.00000  Uiso   1.00
C153   C     0.94710   0.73161   0.83841   0.00000  Uiso   1.00
C154   C     0.09106   0.64493   0.84525   0.00000  Uiso   1.00
C155   C     0.03210   0.55851   0.85202   0.00000  Uiso   1.00
C156   C     0.89722   0.83545   0.81349   0.00000  Uiso   1.00
C157   C     0.99923   0.83609   0.79938   0.00000  Uiso   1.00
C158   C     0.89829   0.83710   0.78517   0.00000  Uiso   1.00
C159   C     0.84575   0.93635   0.83907   0.00000  Uiso   1.00
C160   C     0.90448   0.02185   0.84645   0.00000  Uiso   1.00
C161   C     0.76020   0.10783   0.85377   0.00000  Uiso   1.00
H162   H     0.46589   0.83526   0.83016   0.00000  Uiso   1.00
H163   H     0.54040   0.64596   0.84504   0.00000  Uiso   1.00
H164   H     0.44859   0.83711   0.79917   0.00000  Uiso   1.00
H165   H     0.35386   0.02283   0.84624   0.00000  Uiso   1.00
H166   H     0.70942   0.43591   0.86156   0.00000  Uiso   1.00
H167   H     0.51581   0.83900   0.76485   0.00000  Uiso   1.00
H168   H     0.31604   0.23063   0.86410   0.00000  Uiso   1.00
H169   H     0.13159   0.83404   0.83042   0.00000  Uiso   1.00
H170   H     0.24265   0.64467   0.84531   0.00000  Uiso   1.00
H171   H     0.15083   0.83582   0.79944   0.00000  Uiso   1.00
H172   H     0.05609   0.02154   0.84651   0.00000  Uiso   1.00
H173   H     0.27939   0.43486   0.86178   0.00000  Uiso   1.00
H174   H     0.08577   0.83795   0.76507   0.00000  Uiso   1.00
H175   H     0.88601   0.22958   0.86432   0.00000  Uiso   1.00
O176   O     0.05546   0.31082   0.87146   0.00000  Uiso   1.00
O177   O     0.80142   0.83967   0.74457   0.00000  Uiso   1.00
O178   O     0.53934   0.35348   0.87479   0.00000  Uiso   1.00
N179   N     0.82832   0.46167   0.85957   0.00000  Uiso   1.00
N180   N     0.64731   0.83851   0.76915   0.00000  Uiso   1.00
N181   N     0.46053   0.20467   0.86194   0.00000  Uiso   1.00
N182   N     0.13501   0.46110   0.85969   0.00000  Uiso   1.00
N183   N     0.95400   0.83794   0.76927   0.00000  Uiso   1.00
N184   N     0.76723   0.20411   0.86206   0.00000  Uiso   1.00
C185   C     0.84931   0.33808   0.91887   0.00000  Uiso   1.00
C186   C     0.98354   0.23491   0.91046   0.00000  Uiso   1.00
C187   C     0.92565   0.14834   0.90331   0.00000  Uiso   1.00
C188   C     0.07067   0.06144   0.89625   0.00000  Uiso   1.00
C189   C     0.24934   0.90125   0.88319   0.00000  Uiso   1.00
C190   C     0.92966   0.33942   0.93575   0.00000  Uiso   1.00
C191   C     0.82645   0.34073   0.94985   0.00000  Uiso   1.00
C192   C     0.92613   0.34183   0.96408   0.00000  Uiso   1.00
C193   C     0.02109   0.34398   0.99027   0.00000  Uiso   1.00
C194   C     0.88177   0.43965   0.91052   0.00000  Uiso   1.00
C195   C     0.73829   0.52525   0.90342   0.00000  Uiso   1.00
C196   C     0.79763   0.61074   0.89641   0.00000  Uiso   1.00
C197   C     0.81824   0.76850   0.88345   0.00000  Uiso   1.00
C198   C     0.20982   0.33772   0.91905   0.00000  Uiso   1.00
C199   C     0.17936   0.23472   0.91056   0.00000  Uiso   1.00
C200   C     0.32452   0.14793   0.90351   0.00000  Uiso   1.00
C201   C     0.26684   0.06124   0.89635   0.00000  Uiso   1.00
C202   C     0.12548   0.33923   0.93585   0.00000  Uiso   1.00
C203   C     0.22532   0.34033   0.95005   0.00000  Uiso   1.00
C204   C     0.12230   0.34163   0.96418   0.00000  Uiso   1.00
C205   C     0.07759   0.43945   0.91062   0.00000  Uiso   1.00
C206   C     0.13716   0.52484   0.90362   0.00000  Uiso   1.00
C207   C     0.99380   0.61054   0.89652   0.00000  Uiso   1.00
H208   H     0.69685   0.33823   0.91879   0.00000  Uiso   1.00
H209   H     0.77409   0.14851   0.90323   0.00000  Uiso   1.00
H210   H     0.67491   0.34090   0.94977   0.00000  Uiso   1.00
H211   H     0.58677   0.52537   0.90335   0.00000  Uiso   1.00
H212   H     0.94609   0.93807   0.88604   0.00000  Uiso   1.00
H213   H     0.73694   0.34375   0.98416   0.00000  Uiso   1.00
H214   H     0.55107   0.73276   0.88627   0.00000  Uiso   1.00
H215   H     0.36228   0.33756   0.91913   0.00000  Uiso   1.00
H216   H     0.47604   0.14780   0.90359   0.00000  Uiso   1.00
H217   H     0.37685   0.34018   0.95013   0.00000  Uiso   1.00
H218   H     0.28871   0.52466   0.90370   0.00000  Uiso   1.00
H219   H     0.51582   0.93749   0.88633   0.00000  Uiso   1.00
H220   H     0.30667   0.34318   0.98445   0.00000  Uiso   1.00
H221   H     0.12080   0.73218   0.88656   0.00000  Uiso   1.00
O222   O     0.29379   0.81294   0.87596   0.00000  Uiso   1.00
O223   O     0.01938   0.34521   0.00469   0.00000  Uiso   1.00
O224   O     0.77552   0.85557   0.87626   0.00000  Uiso   1.00
N225   N     0.06456   0.96398   0.88823   0.00000  Uiso   1.00
N226   N     0.86903   0.34326   0.97997   0.00000  Uiso   1.00
N227   N     0.69524   0.70696   0.88846   0.00000  Uiso   1.00
N228   N     0.37113   0.96367   0.88839   0.00000  Uiso   1.00
N229   N     0.17559   0.34295   0.98013   0.00000  Uiso   1.00
N230   N     0.00181   0.70665   0.88861   0.00000  Uiso   1.00
C231   C     0.71616   0.33546   0.08022   0.00000  Uiso   1.00
C232   C     0.68626   0.23244   0.08834   0.00000  Uiso   1.00
C233   C     0.83166   0.14612   0.09510   0.00000  Uiso   1.00
C234   C     0.77453   0.05932   0.10194   0.00000  Uiso   1.00
C235   C     0.75788   0.89938   0.11453   0.00000  Uiso   1.00
C236   C     0.63262   0.33630   0.06342   0.00000  Uiso   1.00
C237   C     0.73292   0.33733   0.04922   0.00000  Uiso   1.00
C238   C     0.63062   0.33799   0.03509   0.00000  Uiso   1.00
C239   C     0.53064   0.33939   0.00899   0.00000  Uiso   1.00
C240   C     0.58287   0.43718   0.08900   0.00000  Uiso   1.00
C241   C     0.64132   0.52304   0.09630   0.00000  Uiso   1.00
C242   C     0.49712   0.60864   0.10370   0.00000  Uiso   1.00
C243   C     0.31990   0.76666   0.11732   0.00000  Uiso   1.00
C244   C     0.35614   0.33480   0.08036   0.00000  Uiso   1.00
C245   C     0.49072   0.23208   0.08841   0.00000  Uiso   1.00
C246   C     0.43335   0.14539   0.09525   0.00000  Uiso   1.00
C247   C     0.57864   0.05896   0.10202   0.00000  Uiso   1.00
C248   C     0.43708   0.33595   0.06349   0.00000  Uiso   1.00
C249   C     0.33461   0.33661   0.04938   0.00000  Uiso   1.00
C250   C     0.43472   0.33763   0.03517   0.00000  Uiso   1.00
C251   C     0.38732   0.43682   0.08907   0.00000  Uiso   1.00
C252   C     0.24301   0.52231   0.09646   0.00000  Uiso   1.00
C253   C     0.30122   0.60829   0.10378   0.00000  Uiso   1.00
H254   H     0.86839   0.33574   0.08016   0.00000  Uiso   1.00
H255   H     0.98298   0.14642   0.09503   0.00000  Uiso   1.00
H256   H     0.88423   0.33762   0.04917   0.00000  Uiso   1.00
H257   H     0.79265   0.52329   0.09624   0.00000  Uiso   1.00
H258   H     0.02379   0.93635   0.11155   0.00000  Uiso   1.00
H259   H     0.81557   0.33954   0.01485   0.00000  Uiso   1.00
H260   H     0.62245   0.73107   0.11411   0.00000  Uiso   1.00
H261   H     0.20390   0.33453   0.08042   0.00000  Uiso   1.00
H262   H     0.28201   0.14514   0.09531   0.00000  Uiso   1.00
H263   H     0.18328   0.33634   0.04944   0.00000  Uiso   1.00
H264   H     0.09170   0.52201   0.09652   0.00000  Uiso   1.00
H265   H     0.45486   0.93531   0.11177   0.00000  Uiso   1.00
H266   H     0.24665   0.33851   0.01507   0.00000  Uiso   1.00
H267   H     0.05353   0.73003   0.11433   0.00000  Uiso   1.00
O268   O     0.80271   0.81125   0.12145   0.00000  Uiso   1.00
O269   O     0.52953   0.34025   0.99458   0.00000  Uiso   1.00
O270   O     0.27617   0.85391   0.12481   0.00000  Uiso   1.00
N271   N     0.87916   0.96211   0.10956   0.00000  Uiso   1.00
N272   N     0.68450   0.33905   0.01915   0.00000  Uiso   1.00
N273   N     0.50395   0.70511   0.11195   0.00000  Uiso   1.00
N274   N     0.57303   0.96155   0.10968   0.00000  Uiso   1.00
N275   N     0.37837   0.33849   0.01927   0.00000  Uiso   1.00
N276   N     0.19781   0.70455   0.11207   0.00000  Uiso   1.00
C277   C     0.97859   0.83867   0.16888   0.00000  Uiso   1.00
C278   C     0.94766   0.73548   0.16048   0.00000  Uiso   1.00
C279   C     0.09225   0.64888   0.15333   0.00000  Uiso   1.00
C280   C     0.03423   0.56197   0.14628   0.00000  Uiso   1.00
C281   C     0.01597   0.40174   0.13323   0.00000  Uiso   1.00
C282   C     0.89660   0.84007   0.18576   0.00000  Uiso   1.00
C283   C     0.99827   0.84142   0.19987   0.00000  Uiso   1.00
C284   C     0.89726   0.84256   0.21409   0.00000  Uiso   1.00
C285   C     0.79969   0.84479   0.24029   0.00000  Uiso   1.00
C286   C     0.84471   0.94021   0.16053   0.00000  Uiso   1.00
C287   C     0.90272   0.02579   0.15343   0.00000  Uiso   1.00
C288   C     0.75800   0.11126   0.14641   0.00000  Uiso   1.00
C289   C     0.57985   0.26899   0.13343   0.00000  Uiso   1.00
C290   C     0.61843   0.83831   0.16906   0.00000  Uiso   1.00
C291   C     0.75203   0.73529   0.16058   0.00000  Uiso   1.00
C292   C     0.69377   0.64848   0.15353   0.00000  Uiso   1.00
C293   C     0.83825   0.56177   0.14638   0.00000  Uiso   1.00
C294   C     0.70099   0.83987   0.18586   0.00000  Uiso   1.00
C295   C     0.59979   0.84102   0.20006   0.00000  Uiso   1.00
C296   C     0.70128   0.84237   0.21419   0.00000  Uiso   1.00
C297   C     0.64908   0.94002   0.16063   0.00000  Uiso   1.00
C298   C     0.50424   0.02539   0.15362   0.00000  Uiso   1.00
C299   C     0.56202   0.11107   0.14651   0.00000  Uiso   1.00
H300   H     0.13089   0.83882   0.16881   0.00000  Uiso   1.00
H301   H     0.24363   0.64906   0.15326   0.00000  Uiso   1.00
H302   H     0.14965   0.84158   0.19979   0.00000  Uiso   1.00
H303   H     0.05411   0.02591   0.15335   0.00000  Uiso   1.00
H304   H     0.28235   0.43856   0.13608   0.00000  Uiso   1.00
H305   H     0.08418   0.84454   0.23418   0.00000  Uiso   1.00
H306   H     0.88272   0.23325   0.13626   0.00000  Uiso   1.00
H307   H     0.46612   0.83816   0.16914   0.00000  Uiso   1.00
H308   H     0.54238   0.64836   0.15361   0.00000  Uiso   1.00
H309   H     0.44840   0.84088   0.20014   0.00000  Uiso   1.00
H310   H     0.35287   0.02521   0.15370   0.00000  Uiso   1.00
H311   H     0.71319   0.43799   0.13636   0.00000  Uiso   1.00
H312   H     0.51502   0.84398   0.23446   0.00000  Uiso   1.00
H313   H     0.31356   0.23268   0.13654   0.00000  Uiso   1.00
O314   O     0.05994   0.31341   0.12600   0.00000  Uiso   1.00
O315   O     0.79994   0.84606   0.25471   0.00000  Uiso   1.00
O316   O     0.53563   0.35603   0.12624   0.00000  Uiso   1.00
N317   N     0.13793   0.46448   0.13827   0.00000  Uiso   1.00
N318   N     0.95266   0.84403   0.22999   0.00000  Uiso   1.00
N319   N     0.76431   0.20746   0.13845   0.00000  Uiso   1.00
N320   N     0.83167   0.46418   0.13842   0.00000  Uiso   1.00
N321   N     0.64640   0.84373   0.23014   0.00000  Uiso   1.00
N322   N     0.45805   0.20715   0.13860   0.00000  Uiso   1.00
C323   C     0.11566   0.83590   0.33022   0.00000  Uiso   1.00
C324   C     0.24847   0.73285   0.33833   0.00000  Uiso   1.00
C325   C     0.18930   0.64652   0.34508   0.00000  Uiso   1.00
C326   C     0.33314   0.55970   0.35192   0.00000  Uiso   1.00
C327   C     0.50957   0.39972   0.36450   0.00000  Uiso   1.00
C328   C     0.19857   0.83680   0.31342   0.00000  Uiso   1.00
C329   C     0.09742   0.83788   0.29922   0.00000  Uiso   1.00
C330   C     0.19925   0.83857   0.28509   0.00000  Uiso   1.00
C331   C     0.29816   0.84006   0.25899   0.00000  Uiso   1.00
C332   C     0.14712   0.93759   0.33900   0.00000  Uiso   1.00
C333   C     0.00271   0.02344   0.34631   0.00000  Uiso   1.00
C334   C     0.06122   0.10901   0.35372   0.00000  Uiso   1.00
C335   C     0.08024   0.26699   0.36734   0.00000  Uiso   1.00
C336   C     0.47633   0.83525   0.33036   0.00000  Uiso   1.00
C337   C     0.44437   0.73250   0.33841   0.00000  Uiso   1.00
C338   C     0.58834   0.64579   0.34524   0.00000  Uiso   1.00
C339   C     0.52939   0.55934   0.35200   0.00000  Uiso   1.00
C340   C     0.39446   0.83644   0.31349   0.00000  Uiso   1.00
C341   C     0.49646   0.83715   0.29938   0.00000  Uiso   1.00
C342   C     0.39550   0.83822   0.28517   0.00000  Uiso   1.00
C343   C     0.34302   0.93724   0.33908   0.00000  Uiso   1.00
C344   C     0.40175   0.02270   0.34647   0.00000  Uiso   1.00
C345   C     0.25747   0.10866   0.35380   0.00000  Uiso   1.00
H346   H     0.96315   0.83618   0.33016   0.00000  Uiso   1.00
H347   H     0.03768   0.64682   0.34502   0.00000  Uiso   1.00
H348   H     0.94582   0.83816   0.29917   0.00000  Uiso   1.00
H349   H     0.85113   0.02369   0.34625   0.00000  Uiso   1.00
H350   H     0.20673   0.43670   0.36152   0.00000  Uiso   1.00
H351   H     0.01300   0.84019   0.26484   0.00000  Uiso   1.00
H352   H     0.81332   0.23141   0.36413   0.00000  Uiso   1.00
H353   H     0.62885   0.83497   0.33042   0.00000  Uiso   1.00
H354   H     0.73992   0.64554   0.34530   0.00000  Uiso   1.00
H355   H     0.64805   0.83688   0.29944   0.00000  Uiso   1.00
H356   H     0.55336   0.02240   0.34653   0.00000  Uiso   1.00
H357   H     0.77669   0.43565   0.36175   0.00000  Uiso   1.00
H358   H     0.58296   0.83916   0.26507   0.00000  Uiso   1.00
H359   H     0.38329   0.23037   0.36436   0.00000  Uiso   1.00
O360   O     0.55277   0.31156   0.37141   0.00000  Uiso   1.00
O361   O     0.29860   0.84096   0.24457   0.00000  Uiso   1.00
O362   O     0.03663   0.35422   0.37484   0.00000  Uiso   1.00
N363   N     0.32562   0.46246   0.35954   0.00000  Uiso   1.00
N364   N     0.14450   0.83969   0.26915   0.00000  Uiso   1.00
N365   N     0.95781   0.20546   0.36197   0.00000  Uiso   1.00
N366   N     0.63231   0.46190   0.35966   0.00000  Uiso   1.00
N367   N     0.45120   0.83913   0.26927   0.00000  Uiso   1.00
N368   N     0.26451   0.20490   0.36209   0.00000  Uiso   1.00
