data_job_06940
_audit_creation_date              2018-12-19
_audit_creation_method            'Materials Studio'
_symmetry_space_group_name_H-M    'P1'
_symmetry_Int_Tables_number       1
_symmetry_cell_setting            triclinic
loop_
_symmetry_equiv_pos_as_xyz
  x,y,z
_cell_length_a                    21.8503
_cell_length_b                    23.2632
_cell_length_c                    26.0416
_cell_angle_alpha                 79.0265
_cell_angle_beta                  111.9438
_cell_angle_gamma                 74.2180
loop_
_atom_site_label
_atom_site_type_symbol
_atom_site_fract_x
_atom_site_fract_y
_atom_site_fract_z
_atom_site_U_iso_or_equiv
_atom_site_adp_type
_atom_site_occupancy
C1     C     0.43355   0.21459   0.08121   0.00000  Uiso   1.00
C2     C     0.49774   0.23192   0.08697   0.00000  Uiso   1.00
C3     C     0.49644   0.28433   0.05007   0.00000  Uiso   1.00
C4     C     0.56085   0.29182   0.06274   0.00000  Uiso   1.00
C5     C     0.65088   0.32530   0.06439   0.00000  Uiso   1.00
C6     C     0.45214   0.14787   0.07756   0.00000  Uiso   1.00
C7     C     0.41250   0.12961   0.03274   0.00000  Uiso   1.00
C8     C     0.43852   0.06634   0.03750   0.00000  Uiso   1.00
C9     C     0.45774   0.96933   0.02455   0.00000  Uiso   1.00
C10    C     0.43072   0.20923   0.13949   0.00000  Uiso   1.00
C11    C     0.37307   0.24255   0.14675   0.00000  Uiso   1.00
C12    C     0.38105   0.23093   0.20365   0.00000  Uiso   1.00
C13    C     0.36701   0.22919   0.28686   0.00000  Uiso   1.00
C14    C     0.55022   0.13469   0.16935   0.00000  Uiso   1.00
C15    C     0.56111   0.18852   0.13485   0.00000  Uiso   1.00
C16    C     0.62553   0.19593   0.14759   0.00000  Uiso   1.00
C17    C     0.62433   0.24834   0.11070   0.00000  Uiso   1.00
C18    C     0.51551   0.10447   0.12543   0.00000  Uiso   1.00
C19    C     0.54159   0.04121   0.13026   0.00000  Uiso   1.00
C20    C     0.50201   0.02286   0.08546   0.00000  Uiso   1.00
C21    C     0.49410   0.16583   0.18737   0.00000  Uiso   1.00
C22    C     0.50216   0.15415   0.24427   0.00000  Uiso   1.00
C23    C     0.44453   0.18745   0.25161   0.00000  Uiso   1.00
H24    H     0.38421   0.24837   0.04394   0.00000  Uiso   1.00
H25    H     0.44739   0.31790   0.01302   0.00000  Uiso   1.00
H26    H     0.36346   0.16320   0.99570   0.00000  Uiso   1.00
H27    H     0.32403   0.27613   0.10969   0.00000  Uiso   1.00
H28    H     0.54539   0.37583   0.99984   0.00000  Uiso   1.00
H29    H     0.36841   0.04964   0.96333   0.00000  Uiso   1.00
H30    H     0.28527   0.28776   0.20370   0.00000  Uiso   1.00
H31    H     0.59957   0.10090   0.20663   0.00000  Uiso   1.00
H32    H     0.67457   0.16233   0.18464   0.00000  Uiso   1.00
H33    H     0.59064   0.00764   0.16732   0.00000  Uiso   1.00
H34    H     0.55121   0.12056   0.28131   0.00000  Uiso   1.00
H35    H     0.72978   0.24957   0.13913   0.00000  Uiso   1.00
H36    H     0.55279   0.92338   0.10262   0.00000  Uiso   1.00
H37    H     0.46966   0.16150   0.34299   0.00000  Uiso   1.00
O38    O     0.68304   0.35576   0.05207   0.00000  Uiso   1.00
O39    O     0.45084   0.92781   0.00418   0.00000  Uiso   1.00
O40    O     0.34176   0.24022   0.31954   0.00000  Uiso   1.00
N41    N     0.57849   0.33769   0.03565   0.00000  Uiso   1.00
N42    N     0.41303   0.03272   0.00151   0.00000  Uiso   1.00
N43    N     0.33529   0.25533   0.22623   0.00000  Uiso   1.00
N44    N     0.67771   0.26975   0.11060   0.00000  Uiso   1.00
N45    N     0.51225   0.96478   0.07646   0.00000  Uiso   1.00
N46    N     0.43451   0.18739   0.30118   0.00000  Uiso   1.00
C47    C     0.16041   0.40231   0.57933   0.00000  Uiso   1.00
C48    C     0.08907   0.45709   0.54067   0.00000  Uiso   1.00
C49    C     0.03312   0.45630   0.49292   0.00000  Uiso   1.00
C50    C     0.97231   0.51120   0.46323   0.00000  Uiso   1.00
C51    C     0.86224   0.58809   0.40053   0.00000  Uiso   1.00
C52    C     0.21729   0.42768   0.57760   0.00000  Uiso   1.00
C53    C     0.26915   0.40216   0.56091   0.00000  Uiso   1.00
C54    C     0.31628   0.43230   0.56232   0.00000  Uiso   1.00
C55    C     0.40532   0.46351   0.55699   0.00000  Uiso   1.00
C56    C     0.16905   0.38994   0.64177   0.00000  Uiso   1.00
C57    C     0.18037   0.33269   0.67903   0.00000  Uiso   1.00
C58    C     0.18690   0.33105   0.73446   0.00000  Uiso   1.00
C59    C     0.20103   0.30366   0.82876   0.00000  Uiso   1.00
C60    C     0.15190   0.50120   0.61152   0.00000  Uiso   1.00
C61    C     0.08445   0.51080   0.55816   0.00000  Uiso   1.00
C62    C     0.02370   0.56571   0.52853   0.00000  Uiso   1.00
C63    C     0.96767   0.56501   0.48074   0.00000  Uiso   1.00
C64    C     0.21267   0.48139   0.59509   0.00000  Uiso   1.00
C65    C     0.25974   0.51157   0.59652   0.00000  Uiso   1.00
C66    C     0.31165   0.48611   0.57983   0.00000  Uiso   1.00
C67    C     0.16442   0.44365   0.65925   0.00000  Uiso   1.00
C68    C     0.17095   0.44210   0.71464   0.00000  Uiso   1.00
C69    C     0.18227   0.38486   0.75198   0.00000  Uiso   1.00
H70    H     0.16401   0.36050   0.56572   0.00000  Uiso   1.00
H71    H     0.03672   0.41473   0.47940   0.00000  Uiso   1.00
H72    H     0.27272   0.36059   0.54739   0.00000  Uiso   1.00
H73    H     0.18394   0.29113   0.66548   0.00000  Uiso   1.00
H74    H     0.89356   0.49855   0.39139   0.00000  Uiso   1.00
H75    H     0.39119   0.38439   0.53477   0.00000  Uiso   1.00
H76    H     0.20399   0.23792   0.78380   0.00000  Uiso   1.00
H77    H     0.14831   0.54302   0.62513   0.00000  Uiso   1.00
H78    H     0.02014   0.60727   0.54207   0.00000  Uiso   1.00
H79    H     0.25615   0.55314   0.61006   0.00000  Uiso   1.00
H80    H     0.16737   0.48367   0.72816   0.00000  Uiso   1.00
H81    H     0.88011   0.65483   0.44226   0.00000  Uiso   1.00
H82    H     0.37775   0.54067   0.58564   0.00000  Uiso   1.00
H83    H     0.19054   0.39419   0.83467   0.00000  Uiso   1.00
O84    O     0.80282   0.61567   0.36111   0.00000  Uiso   1.00
O85    O     0.45570   0.46589   0.54922   0.00000  Uiso   1.00
O86    O     0.21009   0.27372   0.87594   0.00000  Uiso   1.00
N87    N     0.90798   0.52651   0.41477   0.00000  Uiso   1.00
N88    N     0.37323   0.41978   0.54881   0.00000  Uiso   1.00
N89    N     0.19823   0.28284   0.78164   0.00000  Uiso   1.00
N90    N     0.90074   0.61060   0.44214   0.00000  Uiso   1.00
N91    N     0.36599   0.50387   0.57618   0.00000  Uiso   1.00
N92    N     0.19099   0.36693   0.80901   0.00000  Uiso   1.00
C93    C     0.21592   0.18620   0.35037   0.00000  Uiso   1.00
C94    C     0.23743   0.12073   0.34425   0.00000  Uiso   1.00
C95    C     0.29162   0.09449   0.33017   0.00000  Uiso   1.00
C96    C     0.30296   0.03397   0.32668   0.00000  Uiso   1.00
C97    C     0.34264   0.93734   0.31559   0.00000  Uiso   1.00
C98    C     0.13689   0.22033   0.30806   0.00000  Uiso   1.00
C99    C     0.10655   0.27784   0.26354   0.00000  Uiso   1.00
C100   C     0.03325   0.30117   0.22959   0.00000  Uiso   1.00
C101   C     0.91683   0.35920   0.16234   0.00000  Uiso   1.00
C102   C     0.22119   0.17587   0.41173   0.00000  Uiso   1.00
C103   C     0.26171   0.19602   0.45438   0.00000  Uiso   1.00
C104   C     0.25936   0.18192   0.50771   0.00000  Uiso   1.00
C105   C     0.27383   0.17092   0.60141   0.00000  Uiso   1.00
C106   C     0.13969   0.12537   0.36924   0.00000  Uiso   1.00
C107   C     0.19602   0.08769   0.35450   0.00000  Uiso   1.00
C108   C     0.20728   0.02719   0.35104   0.00000  Uiso   1.00
C109   C     0.26148   0.00087   0.33695   0.00000  Uiso   1.00
C110   C     0.09549   0.18729   0.31830   0.00000  Uiso   1.00
C111   C     0.02221   0.21054   0.28441   0.00000  Uiso   1.00
C112   C     0.99176   0.26807   0.23986   0.00000  Uiso   1.00
C113   C     0.17978   0.14283   0.42198   0.00000  Uiso   1.00
C114   C     0.17737   0.12871   0.47525   0.00000  Uiso   1.00
C115   C     0.21788   0.14882   0.51797   0.00000  Uiso   1.00
H116   H     0.24815   0.21193   0.34239   0.00000  Uiso   1.00
H117   H     0.32365   0.12008   0.32223   0.00000  Uiso   1.00
H118   H     0.13860   0.30341   0.25563   0.00000  Uiso   1.00
H119   H     0.29374   0.22159   0.44643   0.00000  Uiso   1.00
H120   H     0.38908   0.00369   0.30438   0.00000  Uiso   1.00
H121   H     0.99890   0.39024   0.16395   0.00000  Uiso   1.00
H122   H     0.32603   0.21772   0.56630   0.00000  Uiso   1.00
H123   H     0.10745   0.09965   0.37721   0.00000  Uiso   1.00
H124   H     0.17523   0.00163   0.35897   0.00000  Uiso   1.00
H125   H     0.99018   0.18496   0.29236   0.00000  Uiso   1.00
H126   H     0.14532   0.10314   0.48316   0.00000  Uiso   1.00
H127   H     0.26861   0.90755   0.33419   0.00000  Uiso   1.00
H128   H     0.87843   0.29411   0.19376   0.00000  Uiso   1.00
H129   H     0.20557   0.12158   0.59611   0.00000  Uiso   1.00
O130   O     0.37596   0.89318   0.30664   0.00000  Uiso   1.00
O131   O     0.86405   0.40033   0.12240   0.00000  Uiso   1.00
O132   O     0.29325   0.17397   0.65027   0.00000  Uiso   1.00
N133   N     0.35143   0.99451   0.31391   0.00000  Uiso   1.00
N134   N     0.98664   0.35591   0.18261   0.00000  Uiso   1.00
N135   N     0.29247   0.19463   0.55877   0.00000  Uiso   1.00
N136   N     0.28661   0.94277   0.32995   0.00000  Uiso   1.00
N137   N     0.92182   0.30418   0.19865   0.00000  Uiso   1.00
N138   N     0.22765   0.14289   0.57481   0.00000  Uiso   1.00
C139   C     0.57072   0.52424   0.32265   0.00000  Uiso   1.00
C140   C     0.50200   0.58051   0.28046   0.00000  Uiso   1.00
C141   C     0.49702   0.63538   0.24407   0.00000  Uiso   1.00
C142   C     0.42927   0.68133   0.20872   0.00000  Uiso   1.00
C143   C     0.33178   0.77001   0.14303   0.00000  Uiso   1.00
C144   C     0.56105   0.46683   0.30588   0.00000  Uiso   1.00
C145   C     0.60572   0.42612   0.29086   0.00000  Uiso   1.00
C146   C     0.58767   0.37637   0.27691   0.00000  Uiso   1.00
C147   C     0.58188   0.28854   0.25072   0.00000  Uiso   1.00
C148   C     0.57272   0.51444   0.38293   0.00000  Uiso   1.00
C149   C     0.62721   0.51373   0.43271   0.00000  Uiso   1.00
C150   C     0.61901   0.50404   0.48364   0.00000  Uiso   1.00
C151   C     0.63134   0.49012   0.57709   0.00000  Uiso   1.00
C152   C     0.45926   0.50828   0.32458   0.00000  Uiso   1.00
C153   C     0.44146   0.57184   0.28151   0.00000  Uiso   1.00
C154   C     0.37370   0.61772   0.24621   0.00000  Uiso   1.00
C155   C     0.36862   0.67265   0.20977   0.00000  Uiso   1.00
C156   C     0.50051   0.45817   0.30693   0.00000  Uiso   1.00
C157   C     0.48240   0.40847   0.29300   0.00000  Uiso   1.00
C158   C     0.52703   0.36769   0.27796   0.00000  Uiso   1.00
C159   C     0.51218   0.50577   0.38398   0.00000  Uiso   1.00
C160   C     0.50389   0.49608   0.43485   0.00000  Uiso   1.00
C161   C     0.55836   0.49536   0.48469   0.00000  Uiso   1.00
H162   H     0.61785   0.53098   0.32183   0.00000  Uiso   1.00
H163   H     0.54388   0.64206   0.24327   0.00000  Uiso   1.00
H164   H     0.65256   0.43283   0.29006   0.00000  Uiso   1.00
H165   H     0.67405   0.52044   0.43188   0.00000  Uiso   1.00
H166   H     0.43517   0.76138   0.15661   0.00000  Uiso   1.00
H167   H     0.66435   0.32020   0.25529   0.00000  Uiso   1.00
H168   H     0.70967   0.50492   0.55436   0.00000  Uiso   1.00
H169   H     0.41212   0.50153   0.32540   0.00000  Uiso   1.00
H170   H     0.32686   0.61100   0.24703   0.00000  Uiso   1.00
H171   H     0.43555   0.40177   0.29382   0.00000  Uiso   1.00
H172   H     0.45704   0.48937   0.43564   0.00000  Uiso   1.00
H173   H     0.25904   0.73617   0.15966   0.00000  Uiso   1.00
H174   H     0.48822   0.29499   0.25834   0.00000  Uiso   1.00
H175   H     0.53353   0.47971   0.55741   0.00000  Uiso   1.00
O176   O     0.29473   0.82131   0.10650   0.00000  Uiso   1.00
O177   O     0.59541   0.24249   0.23598   0.00000  Uiso   1.00
O178   O     0.65486   0.48485   0.62834   0.00000  Uiso   1.00
N179   N     0.40542   0.74043   0.16809   0.00000  Uiso   1.00
N180   N     0.61968   0.32796   0.26034   0.00000  Uiso   1.00
N181   N     0.66206   0.50064   0.53995   0.00000  Uiso   1.00
N182   N     0.31064   0.72687   0.16973   0.00000  Uiso   1.00
N183   N     0.52490   0.31440   0.26198   0.00000  Uiso   1.00
N184   N     0.56728   0.48708   0.54159   0.00000  Uiso   1.00
C185   C     0.74349   0.57642   0.06583   0.00000  Uiso   1.00
C186   C     0.80691   0.59176   0.06544   0.00000  Uiso   1.00
C187   C     0.85543   0.55975   0.04834   0.00000  Uiso   1.00
C188   C     0.90971   0.58108   0.05115   0.00000  Uiso   1.00
C189   C     0.00732   0.59708   0.04759   0.00000  Uiso   1.00
C190   C     0.67801   0.63701   0.02799   0.00000  Uiso   1.00
C191   C     0.61815   0.64306   0.97942   0.00000  Uiso   1.00
C192   C     0.56392   0.70249   0.95072   0.00000  Uiso   1.00
C193   C     0.46139   0.78874   0.88905   0.00000  Uiso   1.00
C194   C     0.75249   0.56546   0.12829   0.00000  Uiso   1.00
C195   C     0.75523   0.51136   0.16404   0.00000  Uiso   1.00
C196   C     0.76370   0.51055   0.21977   0.00000  Uiso   1.00
C197   C     0.77681   0.48571   0.31383   0.00000  Uiso   1.00
C198   C     0.75361   0.67122   0.10120   0.00000  Uiso   1.00
C199   C     0.81240   0.64325   0.08465   0.00000  Uiso   1.00
C200   C     0.86663   0.66463   0.08748   0.00000  Uiso   1.00
C201   C     0.91522   0.63267   0.07040   0.00000  Uiso   1.00
C202   C     0.68351   0.68850   0.04721   0.00000  Uiso   1.00
C203   C     0.62935   0.74794   0.01857   0.00000  Uiso   1.00
C204   C     0.56943   0.75407   0.96996   0.00000  Uiso   1.00
C205   C     0.75799   0.61695   0.14750   0.00000  Uiso   1.00
C206   C     0.76644   0.61624   0.20318   0.00000  Uiso   1.00
C207   C     0.76920   0.56214   0.23902   0.00000  Uiso   1.00
H208   H     0.73920   0.53634   0.05086   0.00000  Uiso   1.00
H209   H     0.85115   0.51991   0.03347   0.00000  Uiso   1.00
H210   H     0.61390   0.60320   0.96457   0.00000  Uiso   1.00
H211   H     0.75098   0.47152   0.14916   0.00000  Uiso   1.00
H212   H     0.97767   0.52442   0.02264   0.00000  Uiso   1.00
H213   H     0.47742   0.70004   0.87737   0.00000  Uiso   1.00
H214   H     0.76646   0.42236   0.26661   0.00000  Uiso   1.00
H215   H     0.75789   0.71131   0.11616   0.00000  Uiso   1.00
H216   H     0.87087   0.70448   0.10236   0.00000  Uiso   1.00
H217   H     0.63362   0.78777   0.03345   0.00000  Uiso   1.00
H218   H     0.77069   0.65609   0.21804   0.00000  Uiso   1.00
H219   H     0.99367   0.67422   0.07855   0.00000  Uiso   1.00
H220   H     0.49342   0.84985   0.93327   0.00000  Uiso   1.00
H221   H     0.78246   0.57217   0.32252   0.00000  Uiso   1.00
O222   O     0.05963   0.59169   0.04031   0.00000  Uiso   1.00
O223   O     0.40332   0.82209   0.84973   0.00000  Uiso   1.00
O224   O     0.78254   0.45778   0.36040   0.00000  Uiso   1.00
N225   N     0.96594   0.56060   0.03770   0.00000  Uiso   1.00
N226   N     0.49824   0.72480   0.90188   0.00000  Uiso   1.00
N227   N     0.76845   0.46520   0.26578   0.00000  Uiso   1.00
N228   N     0.97455   0.64121   0.06779   0.00000  Uiso   1.00
N229   N     0.50685   0.80541   0.93196   0.00000  Uiso   1.00
N230   N     0.77706   0.54581   0.29586   0.00000  Uiso   1.00
C231   C     0.88145   0.28013   0.89973   0.00000  Uiso   1.00
C232   C     0.88768   0.22286   0.87876   0.00000  Uiso   1.00
C233   C     0.83907   0.22078   0.82709   0.00000  Uiso   1.00
C234   C     0.85442   0.16393   0.81581   0.00000  Uiso   1.00
C235   C     0.85471   0.08305   0.77730   0.00000  Uiso   1.00
C236   C     0.94944   0.29226   0.90941   0.00000  Uiso   1.00
C237   C     0.95275   0.34854   0.88350   0.00000  Uiso   1.00
C238   C     0.02009   0.35012   0.89802   0.00000  Uiso   1.00
C239   C     0.11626   0.37701   0.90712   0.00000  Uiso   1.00
C240   C     0.88515   0.25861   0.96028   0.00000  Uiso   1.00
C241   C     0.83442   0.28661   0.97715   0.00000  Uiso   1.00
C242   C     0.84764   0.25986   0.03451   0.00000  Uiso   1.00
C243   C     0.84399   0.23451   0.12259   0.00000  Uiso   1.00
C244   C     0.99513   0.18288   0.97160   0.00000  Uiso   1.00
C245   C     0.94943   0.17004   0.91780   0.00000  Uiso   1.00
C246   C     0.96485   0.11318   0.90660   0.00000  Uiso   1.00
C247   C     0.91627   0.11101   0.85492   0.00000  Uiso   1.00
C248   C     0.01118   0.23944   0.94844   0.00000  Uiso   1.00
C249   C     0.07853   0.24094   0.96301   0.00000  Uiso   1.00
C250   C     0.08194   0.29720   0.93713   0.00000  Uiso   1.00
C251   C     0.94690   0.20579   0.99931   0.00000  Uiso   1.00
C252   C     0.96019   0.17901   0.05666   0.00000  Uiso   1.00
C253   C     0.90950   0.20695   0.07362   0.00000  Uiso   1.00
H254   H     0.83338   0.32125   0.86934   0.00000  Uiso   1.00
H255   H     0.79130   0.26167   0.79689   0.00000  Uiso   1.00
H256   H     0.90496   0.38941   0.85330   0.00000  Uiso   1.00
H257   H     0.78665   0.32748   0.94693   0.00000  Uiso   1.00
H258   H     0.77188   0.17232   0.73376   0.00000  Uiso   1.00
H259   H     0.01154   0.44168   0.85272   0.00000  Uiso   1.00
H260   H     0.76205   0.31109   0.05016   0.00000  Uiso   1.00
H261   H     0.04321   0.14175   0.00199   0.00000  Uiso   1.00
H262   H     0.01264   0.07231   0.93682   0.00000  Uiso   1.00
H263   H     0.12630   0.20006   0.99322   0.00000  Uiso   1.00
H264   H     0.00798   0.13813   0.08686   0.00000  Uiso   1.00
H265   H     0.95153   0.01863   0.84733   0.00000  Uiso   1.00
H266   H     0.19119   0.28800   0.96629   0.00000  Uiso   1.00
H267   H     0.94170   0.15741   0.16373   0.00000  Uiso   1.00
O268   O     0.83782   0.05304   0.74527   0.00000  Uiso   1.00
O269   O     0.15224   0.40644   0.90134   0.00000  Uiso   1.00
O270   O     0.82492   0.23511   0.16038   0.00000  Uiso   1.00
N271   N     0.81835   0.14567   0.76944   0.00000  Uiso   1.00
N272   N     0.04242   0.39751   0.88065   0.00000  Uiso   1.00
N273   N     0.80918   0.27543   0.06525   0.00000  Uiso   1.00
N274   N     0.91502   0.06297   0.83055   0.00000  Uiso   1.00
N275   N     0.13909   0.31481   0.94176   0.00000  Uiso   1.00
N276   N     0.90584   0.19273   0.12636   0.00000  Uiso   1.00
C277   C     0.51859   0.56992   0.10471   0.00000  Uiso   1.00
C278   C     0.44631   0.57527   0.10214   0.00000  Uiso   1.00
C279   C     0.43515   0.53839   0.14373   0.00000  Uiso   1.00
C280   C     0.36499   0.55065   0.13336   0.00000  Uiso   1.00
C281   C     0.26141   0.55174   0.13701   0.00000  Uiso   1.00
C282   C     0.52158   0.63530   0.10056   0.00000  Uiso   1.00
C283   C     0.57372   0.64888   0.14081   0.00000  Uiso   1.00
C284   C     0.56693   0.71168   0.12911   0.00000  Uiso   1.00
C285   C     0.58025   0.80597   0.13028   0.00000  Uiso   1.00
C286   C     0.51610   0.55908   0.04815   0.00000  Uiso   1.00
C287   C     0.56364   0.50859   0.04434   0.00000  Uiso   1.00
C288   C     0.55225   0.50723   0.98852   0.00000  Uiso   1.00
C289   C     0.55705   0.48317   0.90832   0.00000  Uiso   1.00
C290   C     0.41385   0.65728   0.01235   0.00000  Uiso   1.00
C291   C     0.38941   0.62271   0.05197   0.00000  Uiso   1.00
C292   C     0.31926   0.63503   0.04154   0.00000  Uiso   1.00
C293   C     0.30800   0.59818   0.08311   0.00000  Uiso   1.00
C294   C     0.46469   0.68274   0.05039   0.00000  Uiso   1.00
C295   C     0.45783   0.74553   0.03863   0.00000  Uiso   1.00
C296   C     0.50994   0.75921   0.07885   0.00000  Uiso   1.00
C297   C     0.45921   0.60652   0.99798   0.00000  Uiso   1.00
C298   C     0.44775   0.60524   0.94216   0.00000  Uiso   1.00
C299   C     0.49526   0.55476   0.93826   0.00000  Uiso   1.00
H300   H     0.56288   0.53299   0.14377   0.00000  Uiso   1.00
H301   H     0.47919   0.50168   0.18255   0.00000  Uiso   1.00
H302   H     0.61774   0.61216   0.17962   0.00000  Uiso   1.00
H303   H     0.60766   0.47188   0.08317   0.00000  Uiso   1.00
H304   H     0.36131   0.48790   0.20342   0.00000  Uiso   1.00
H305   H     0.65347   0.72085   0.19726   0.00000  Uiso   1.00
H306   H     0.63221   0.42506   0.99386   0.00000  Uiso   1.00
H307   H     0.36955   0.69422   0.97330   0.00000  Uiso   1.00
H308   H     0.27524   0.67175   0.00272   0.00000  Uiso   1.00
H309   H     0.41380   0.78224   0.99980   0.00000  Uiso   1.00
H310   H     0.40372   0.64196   0.90335   0.00000  Uiso   1.00
H311   H     0.19578   0.62594   0.05747   0.00000  Uiso   1.00
H312   H     0.48794   0.85890   0.05130   0.00000  Uiso   1.00
H313   H     0.46668   0.56311   0.84791   0.00000  Uiso   1.00
O314   O     0.21999   0.53925   0.15289   0.00000  Uiso   1.00
O315   O     0.60331   0.84487   0.14479   0.00000  Uiso   1.00
O316   O     0.57541   0.45680   0.87795   0.00000  Uiso   1.00
N317   N     0.33529   0.52346   0.16503   0.00000  Uiso   1.00
N318   N     0.60844   0.74126   0.15927   0.00000  Uiso   1.00
N319   N     0.58858   0.46473   0.96911   0.00000  Uiso   1.00
N320   N     0.24622   0.59774   0.08649   0.00000  Uiso   1.00
N321   N     0.51937   0.81554   0.08073   0.00000  Uiso   1.00
N322   N     0.49951   0.53901   0.89058   0.00000  Uiso   1.00
C323   C     0.83292   0.27667   0.60763   0.00000  Uiso   1.00
C324   C     0.89068   0.21234   0.64837   0.00000  Uiso   1.00
C325   C     0.95754   0.20209   0.69116   0.00000  Uiso   1.00
C326   C     0.00273   0.13971   0.72386   0.00000  Uiso   1.00
C327   C     0.09560   0.04747   0.78863   0.00000  Uiso   1.00
C328   C     0.76731   0.27923   0.61668   0.00000  Uiso   1.00
C329   C     0.73045   0.32523   0.63282   0.00000  Uiso   1.00
C330   C     0.67179   0.31916   0.63884   0.00000  Uiso   1.00
C331   C     0.57309   0.33080   0.65437   0.00000  Uiso   1.00
C332   C     0.81427   0.27501   0.54550   0.00000  Uiso   1.00
C333   C     0.81688   0.31748   0.50178   0.00000  Uiso   1.00
C334   C     0.79774   0.30787   0.44786   0.00000  Uiso   1.00
C335   C     0.77196   0.31295   0.35287   0.00000  Uiso   1.00
C336   C     0.79427   0.18411   0.58961   0.00000  Uiso   1.00
C337   C     0.86968   0.16206   0.63858   0.00000  Uiso   1.00
C338   C     0.91478   0.09968   0.67122   0.00000  Uiso   1.00
C339   C     0.98170   0.08935   0.71406   0.00000  Uiso   1.00
C340   C     0.74632   0.22896   0.60689   0.00000  Uiso   1.00
C341   C     0.68769   0.22282   0.61289   0.00000  Uiso   1.00
C342   C     0.65075   0.26880   0.62904   0.00000  Uiso   1.00
C343   C     0.79328   0.22473   0.53571   0.00000  Uiso   1.00
C344   C     0.77412   0.21506   0.48185   0.00000  Uiso   1.00
C345   C     0.77670   0.25750   0.43806   0.00000  Uiso   1.00
H346   H     0.84925   0.31581   0.61525   0.00000  Uiso   1.00
H347   H     0.97376   0.24101   0.69873   0.00000  Uiso   1.00
H348   H     0.74670   0.36413   0.64039   0.00000  Uiso   1.00
H349   H     0.83313   0.35638   0.50937   0.00000  Uiso   1.00
H350   H     0.10254   0.13591   0.78697   0.00000  Uiso   1.00
H351   H     0.62376   0.39553   0.66395   0.00000  Uiso   1.00
H352   H     0.80599   0.37918   0.38767   0.00000  Uiso   1.00
H353   H     0.77792   0.14497   0.58199   0.00000  Uiso   1.00
H354   H     0.89852   0.06079   0.66364   0.00000  Uiso   1.00
H355   H     0.67146   0.18391   0.60530   0.00000  Uiso   1.00
H356   H     0.75788   0.17615   0.47429   0.00000  Uiso   1.00
H357   H     0.04147   0.98963   0.75850   0.00000  Uiso   1.00
H358   H     0.56268   0.24926   0.63547   0.00000  Uiso   1.00
H359   H     0.74492   0.23290   0.35919   0.00000  Uiso   1.00
O360   O     0.15262   0.01048   0.82706   0.00000  Uiso   1.00
O361   O     0.52446   0.35110   0.66565   0.00000  Uiso   1.00
O362   O     0.76355   0.32964   0.30318   0.00000  Uiso   1.00
N363   N     0.07162   0.11304   0.76906   0.00000  Uiso   1.00
N364   N     0.62399   0.35576   0.65405   0.00000  Uiso   1.00
N365   N     0.79435   0.34048   0.39574   0.00000  Uiso   1.00
N366   N     0.03876   0.03433   0.75373   0.00000  Uiso   1.00
N367   N     0.59113   0.27705   0.63872   0.00000  Uiso   1.00
N368   N     0.76149   0.26177   0.38042   0.00000  Uiso   1.00
C369   C     0.83999   0.51776   0.89062   0.00000  Uiso   1.00
C370   C     0.82392   0.58355   0.89648   0.00000  Uiso   1.00
C371   C     0.76817   0.61575   0.90644   0.00000  Uiso   1.00
C372   C     0.76257   0.67546   0.91043   0.00000  Uiso   1.00
C373   C     0.73027   0.77357   0.92042   0.00000  Uiso   1.00
C374   C     0.91652   0.47824   0.93670   0.00000  Uiso   1.00
C375   C     0.93862   0.42189   0.98048   0.00000  Uiso   1.00
C376   C     0.01097   0.39295   0.01833   0.00000  Uiso   1.00
C377   C     0.12244   0.32755   0.09075   0.00000  Uiso   1.00
C378   C     0.84064   0.52491   0.83142   0.00000  Uiso   1.00
C379   C     0.79897   0.50780   0.78667   0.00000  Uiso   1.00
C380   C     0.80746   0.51815   0.73588   0.00000  Uiso   1.00
C381   C     0.80112   0.52522   0.64484   0.00000  Uiso   1.00
C382   C     0.92916   0.56654   0.88000   0.00000  Uiso   1.00
C383   C     0.87236   0.61004   0.89071   0.00000  Uiso   1.00
C384   C     0.86683   0.66973   0.89468   0.00000  Uiso   1.00
C385   C     0.81109   0.70201   0.90465   0.00000  Uiso   1.00
C386   C     0.96495   0.50473   0.93094   0.00000  Uiso   1.00
C387   C     0.03729   0.47587   0.96873   0.00000  Uiso   1.00
C388   C     0.05950   0.41950   0.01255   0.00000  Uiso   1.00
C389   C     0.88908   0.55142   0.82565   0.00000  Uiso   1.00
C390   C     0.89763   0.56179   0.77492   0.00000  Uiso   1.00
C391   C     0.85598   0.54470   0.73011   0.00000  Uiso   1.00
H392   H     0.80228   0.49712   0.89512   0.00000  Uiso   1.00
H393   H     0.73070   0.59522   0.91090   0.00000  Uiso   1.00
H394   H     0.90113   0.40139   0.98493   0.00000  Uiso   1.00
H395   H     0.76150   0.48730   0.79115   0.00000  Uiso   1.00
H396   H     0.67272   0.71566   0.92588   0.00000  Uiso   1.00
H397   H     0.03208   0.30695   0.08196   0.00000  Uiso   1.00
H398   H     0.73764   0.48809   0.67334   0.00000  Uiso   1.00
H399   H     0.96688   0.58717   0.87551   0.00000  Uiso   1.00
H400   H     0.90433   0.69022   0.89022   0.00000  Uiso   1.00
H401   H     0.07475   0.49639   0.96425   0.00000  Uiso   1.00
H402   H     0.93512   0.58229   0.77047   0.00000  Uiso   1.00
H403   H     0.81364   0.79276   0.90910   0.00000  Uiso   1.00
H404   H     0.17300   0.38405   0.06518   0.00000  Uiso   1.00
H405   H     0.87856   0.56520   0.65656   0.00000  Uiso   1.00
O406   O     0.69908   0.82037   0.92754   0.00000  Uiso   1.00
O407   O     0.17054   0.28415   0.13230   0.00000  Uiso   1.00
O408   O     0.78424   0.52181   0.59620   0.00000  Uiso   1.00
N409   N     0.71446   0.71967   0.91990   0.00000  Uiso   1.00
N410   N     0.05044   0.33756   0.06583   0.00000  Uiso   1.00
N411   N     0.77518   0.50689   0.68381   0.00000  Uiso   1.00
N412   N     0.79029   0.76116   0.91087   0.00000  Uiso   1.00
N413   N     0.12627   0.37905   0.05680   0.00000  Uiso   1.00
N414   N     0.85100   0.54838   0.67478   0.00000  Uiso   1.00
C415   C     0.43279   0.24717   0.89414   0.00000  Uiso   1.00
C416   C     0.51100   0.21755   0.93922   0.00000  Uiso   1.00
C417   C     0.54312   0.16032   0.98434   0.00000  Uiso   1.00
C418   C     0.61526   0.14145   0.02095   0.00000  Uiso   1.00
C419   C     0.73083   0.08983   0.09222   0.00000  Uiso   1.00
C420   C     0.40378   0.31262   0.89845   0.00000  Uiso   1.00
C421   C     0.34574   0.33531   0.90928   0.00000  Uiso   1.00
C422   C     0.32763   0.39647   0.91155   0.00000  Uiso   1.00
C423   C     0.27670   0.49246   0.91948   0.00000  Uiso   1.00
C424   C     0.43224   0.25813   0.83433   0.00000  Uiso   1.00
C425   C     0.39813   0.23503   0.79123   0.00000  Uiso   1.00
C426   C     0.40397   0.25034   0.73951   0.00000  Uiso   1.00
C427   C     0.39724   0.26173   0.64788   0.00000  Uiso   1.00
C428   C     0.50379   0.31544   0.87891   0.00000  Uiso   1.00
C429   C     0.54956   0.25464   0.93095   0.00000  Uiso   1.00
C430   C     0.62168   0.23585   0.96749   0.00000  Uiso   1.00
C431   C     0.65390   0.17859   0.01266   0.00000  Uiso   1.00
C432   C     0.44234   0.34970   0.89017   0.00000  Uiso   1.00
C433   C     0.42430   0.41084   0.89242   0.00000  Uiso   1.00
C434   C     0.36626   0.43362   0.90326   0.00000  Uiso   1.00
C435   C     0.47081   0.29522   0.82605   0.00000  Uiso   1.00
C436   C     0.47670   0.31056   0.77438   0.00000  Uiso   1.00
C437   C     0.44260   0.28749   0.73122   0.00000  Uiso   1.00
H438   H     0.40276   0.21831   0.90059   0.00000  Uiso   1.00
H439   H     0.51325   0.13164   0.99074   0.00000  Uiso   1.00
H440   H     0.31590   0.30661   0.91568   0.00000  Uiso   1.00
H441   H     0.36829   0.20634   0.79765   0.00000  Uiso   1.00
H442   H     0.65276   0.05191   0.08705   0.00000  Uiso   1.00
H443   H     0.23662   0.42085   0.92876   0.00000  Uiso   1.00
H444   H     0.34708   0.20942   0.67988   0.00000  Uiso   1.00
H445   H     0.53382   0.34432   0.87246   0.00000  Uiso   1.00
H446   H     0.65151   0.26456   0.96107   0.00000  Uiso   1.00
H447   H     0.45416   0.43953   0.88601   0.00000  Uiso   1.00
H448   H     0.50655   0.33926   0.76799   0.00000  Uiso   1.00
H449   H     0.76498   0.15980   0.06298   0.00000  Uiso   1.00
H450   H     0.34883   0.52874   0.90468   0.00000  Uiso   1.00
H451   H     0.45930   0.31731   0.65581   0.00000  Uiso   1.00
O452   O     0.78392   0.05112   0.13382   0.00000  Uiso   1.00
O453   O     0.23795   0.53516   0.92614   0.00000  Uiso   1.00
O454   O     0.38288   0.25777   0.59962   0.00000  Uiso   1.00
N455   N     0.66302   0.08824   0.06922   0.00000  Uiso   1.00
N456   N     0.27396   0.43317   0.92124   0.00000  Uiso   1.00
N457   N     0.37722   0.23552   0.68855   0.00000  Uiso   1.00
N458   N     0.72340   0.14629   0.05626   0.00000  Uiso   1.00
N459   N     0.33435   0.49123   0.90828   0.00000  Uiso   1.00
N460   N     0.43760   0.29357   0.67559   0.00000  Uiso   1.00
C461   C     0.29667   0.08574   0.13227   0.00000  Uiso   1.00
C462   C     0.24155   0.07351   0.15065   0.00000  Uiso   1.00
C463   C     0.20269   0.11234   0.17112   0.00000  Uiso   1.00
C464   C     0.15490   0.09283   0.18566   0.00000  Uiso   1.00
C465   C     0.07065   0.08239   0.21510   0.00000  Uiso   1.00
C466   C     0.36535   0.02773   0.16945   0.00000  Uiso   1.00
C467   C     0.43057   0.02808   0.20572   0.00000  Uiso   1.00
C468   C     0.48699   0.97004   0.23608   0.00000  Uiso   1.00
C469   C     0.59495   0.88854   0.29466   0.00000  Uiso   1.00
C470   C     0.27231   0.08491   0.06948   0.00000  Uiso   1.00
C471   C     0.25931   0.13332   0.02169   0.00000  Uiso   1.00
C472   C     0.23742   0.12340   0.96788   0.00000  Uiso   1.00
C473   C     0.20091   0.13067   0.87124   0.00000  Uiso   1.00
C474   C     0.28091   0.98204   0.12169   0.00000  Uiso   1.00
C475   C     0.23300   0.01718   0.14490   0.00000  Uiso   1.00
C476   C     0.18525   0.99761   0.15941   0.00000  Uiso   1.00
C477   C     0.14632   0.03641   0.17990   0.00000  Uiso   1.00
C478   C     0.35679   0.97141   0.16370   0.00000  Uiso   1.00
C479   C     0.41313   0.91336   0.19401   0.00000  Uiso   1.00
C480   C     0.47842   0.91361   0.23032   0.00000  Uiso   1.00
C481   C     0.26375   0.02858   0.06373   0.00000  Uiso   1.00
C482   C     0.24187   0.01859   0.00998   0.00000  Uiso   1.00
C483   C     0.22884   0.06698   0.96212   0.00000  Uiso   1.00
H484   H     0.30334   0.12958   0.13675   0.00000  Uiso   1.00
H485   H     0.20933   0.15592   0.17557   0.00000  Uiso   1.00
H486   H     0.43718   0.07168   0.21015   0.00000  Uiso   1.00
H487   H     0.26594   0.17689   0.02615   0.00000  Uiso   1.00
H488   H     0.10135   0.16026   0.21609   0.00000  Uiso   1.00
H489   H     0.58178   0.98264   0.28900   0.00000  Uiso   1.00
H490   H     0.22071   0.20451   0.90100   0.00000  Uiso   1.00
H491   H     0.27425   0.93819   0.11722   0.00000  Uiso   1.00
H492   H     0.17864   0.95402   0.15496   0.00000  Uiso   1.00
H493   H     0.40649   0.86978   0.18955   0.00000  Uiso   1.00
H494   H     0.23526   0.97500   0.00555   0.00000  Uiso   1.00
H495   H     0.07645   0.99640   0.19937   0.00000  Uiso   1.00
H496   H     0.55688   0.81877   0.27227   0.00000  Uiso   1.00
H497   H     0.19580   0.04064   0.88427   0.00000  Uiso   1.00
O498   O     0.02655   0.09219   0.23293   0.00000  Uiso   1.00
O499   O     0.65686   0.85915   0.32857   0.00000  Uiso   1.00
O500   O     0.18313   0.15024   0.81952   0.00000  Uiso   1.00
N501   N     0.10860   0.11953   0.20697   0.00000  Uiso   1.00
N502   N     0.55777   0.95346   0.27514   0.00000  Uiso   1.00
N503   N     0.22021   0.16089   0.91239   0.00000  Uiso   1.00
N504   N     0.09520   0.03136   0.19797   0.00000  Uiso   1.00
N505   N     0.54437   0.86528   0.26614   0.00000  Uiso   1.00
N506   N     0.20681   0.07271   0.90339   0.00000  Uiso   1.00
C507   C     0.12671   0.40823   0.36859   0.00000  Uiso   1.00
C508   C     0.09244   0.47487   0.36835   0.00000  Uiso   1.00
C509   C     0.12026   0.50013   0.41175   0.00000  Uiso   1.00
C510   C     0.08079   0.56199   0.40338   0.00000  Uiso   1.00
C511   C     0.03745   0.66009   0.41064   0.00000  Uiso   1.00
C512   C     0.07152   0.37816   0.36232   0.00000  Uiso   1.00
C513   C     0.08176   0.32210   0.40066   0.00000  Uiso   1.00
C514   C     0.02468   0.30255   0.38721   0.00000  Uiso   1.00
C515   C     0.94887   0.25047   0.38509   0.00000  Uiso   1.00
C516   C     0.13422   0.41617   0.31201   0.00000  Uiso   1.00
C517   C     0.19717   0.39207   0.30804   0.00000  Uiso   1.00
C518   C     0.19287   0.40451   0.25223   0.00000  Uiso   1.00
C519   C     0.21441   0.41147   0.17198   0.00000  Uiso   1.00
C520   C     0.00714   0.47319   0.27654   0.00000  Uiso   1.00
C521   C     0.02750   0.51015   0.31836   0.00000  Uiso   1.00
C522   C     0.98797   0.57199   0.30992   0.00000  Uiso   1.00
C523   C     0.01573   0.59734   0.35330   0.00000  Uiso   1.00
C524   C     0.00658   0.41344   0.31233   0.00000  Uiso   1.00
C525   C     0.94947   0.39396   0.29883   0.00000  Uiso   1.00
C526   C     0.95961   0.33789   0.33713   0.00000  Uiso   1.00
C527   C     0.06927   0.45146   0.26202   0.00000  Uiso   1.00
C528   C     0.06488   0.46394   0.20620   0.00000  Uiso   1.00
C529   C     0.12781   0.43986   0.20214   0.00000  Uiso   1.00
H530   H     0.17727   0.38076   0.40751   0.00000  Uiso   1.00
H531   H     0.17052   0.47280   0.45044   0.00000  Uiso   1.00
H532   H     0.13203   0.29480   0.43934   0.00000  Uiso   1.00
H533   H     0.24741   0.36477   0.34673   0.00000  Uiso   1.00
H534   H     0.13439   0.59041   0.47599   0.00000  Uiso   1.00
H535   H     0.05322   0.21507   0.45259   0.00000  Uiso   1.00
H536   H     0.29655   0.36259   0.25731   0.00000  Uiso   1.00
H537   H     0.95657   0.50065   0.23762   0.00000  Uiso   1.00
H538   H     0.93772   0.59929   0.27123   0.00000  Uiso   1.00
H539   H     0.89922   0.42128   0.26013   0.00000  Uiso   1.00
H540   H     0.01461   0.49124   0.16753   0.00000  Uiso   1.00
H541   H     0.94543   0.69306   0.33054   0.00000  Uiso   1.00
H542   H     0.86427   0.31772   0.30713   0.00000  Uiso   1.00
H543   H     0.10759   0.46525   0.11185   0.00000  Uiso   1.00
O544   O     0.03147   0.70445   0.42845   0.00000  Uiso   1.00
O545   O     0.92500   0.21201   0.39774   0.00000  Uiso   1.00
O546   O     0.24423   0.40556   0.14153   0.00000  Uiso   1.00
N547   N     0.09251   0.60104   0.43714   0.00000  Uiso   1.00
N548   N     0.01663   0.25012   0.41527   0.00000  Uiso   1.00
N549   N     0.24411   0.38803   0.23269   0.00000  Uiso   1.00
N550   N     0.99084   0.65627   0.35888   0.00000  Uiso   1.00
N551   N     0.91495   0.30536   0.33700   0.00000  Uiso   1.00
N552   N     0.14243   0.44327   0.15443   0.00000  Uiso   1.00
