data_job_02651
_audit_creation_date              2018-12-19
_audit_creation_method            'Materials Studio'
_symmetry_space_group_name_H-M    'P1'
_symmetry_Int_Tables_number       1
_symmetry_cell_setting            triclinic
loop_
_symmetry_equiv_pos_as_xyz
  x,y,z
_cell_length_a                    15.5830
_cell_length_b                    26.2197
_cell_length_c                    14.8622
_cell_angle_alpha                 90.0000
_cell_angle_beta                  95.8636
_cell_angle_gamma                 90.0000
loop_
_atom_site_label
_atom_site_type_symbol
_atom_site_fract_x
_atom_site_fract_y
_atom_site_fract_z
_atom_site_U_iso_or_equiv
_atom_site_adp_type
_atom_site_occupancy
C1     C     0.31862   0.78463   0.20957   0.00000  Uiso   1.00
C2     C     0.27394   0.73283   0.20247   0.00000  Uiso   1.00
C3     C     0.30509   0.68934   0.16367   0.00000  Uiso   1.00
C4     C     0.25459   0.64572   0.16383   0.00000  Uiso   1.00
C5     C     0.19718   0.56531   0.14704   0.00000  Uiso   1.00
C6     C     0.25414   0.82267   0.16389   0.00000  Uiso   1.00
C7     C     0.26866   0.85471   0.09267   0.00000  Uiso   1.00
C8     C     0.20149   0.88671   0.06037   0.00000  Uiso   1.00
C9     C     0.11337   0.94579   0.98374   0.00000  Uiso   1.00
C10    C     0.32834   0.79832   0.30981   0.00000  Uiso   1.00
C11    C     0.40524   0.80991   0.36128   0.00000  Uiso   1.00
C12    C     0.40054   0.82143   0.45183   0.00000  Uiso   1.00
C13    C     0.42762   0.84271   0.60175   0.00000  Uiso   1.00
C14    C     0.17353   0.78452   0.27884   0.00000  Uiso   1.00
C15    C     0.19513   0.73277   0.24009   0.00000  Uiso   1.00
C16    C     0.14456   0.68921   0.24032   0.00000  Uiso   1.00
C17    C     0.17564   0.64566   0.20153   0.00000  Uiso   1.00
C18    C     0.17534   0.82261   0.20152   0.00000  Uiso   1.00
C19    C     0.10813   0.85458   0.16932   0.00000  Uiso   1.00
C20    C     0.12254   0.88665   0.09806   0.00000  Uiso   1.00
C21    C     0.24953   0.79826   0.34744   0.00000  Uiso   1.00
C22    C     0.24471   0.80977   0.43792   0.00000  Uiso   1.00
C23    C     0.32159   0.82137   0.48952   0.00000  Uiso   1.00
H24    H     0.37997   0.78468   0.18027   0.00000  Uiso   1.00
H25    H     0.36608   0.68941   0.13455   0.00000  Uiso   1.00
H26    H     0.32965   0.85475   0.06357   0.00000  Uiso   1.00
H27    H     0.46621   0.80995   0.33214   0.00000  Uiso   1.00
H28    H     0.31591   0.58375   0.10042   0.00000  Uiso   1.00
H29    H     0.23911   0.93239   0.95078   0.00000  Uiso   1.00
H30    H     0.52708   0.83793   0.51711   0.00000  Uiso   1.00
H31    H     0.11217   0.78447   0.30814   0.00000  Uiso   1.00
H32    H     0.08358   0.68918   0.26944   0.00000  Uiso   1.00
H33    H     0.04716   0.85452   0.19846   0.00000  Uiso   1.00
H34    H     0.18372   0.80972   0.46702   0.00000  Uiso   1.00
H35    H     0.08662   0.58356   0.20990   0.00000  Uiso   1.00
H36    H     0.00983   0.93221   0.06026   0.00000  Uiso   1.00
H37    H     0.29779   0.83775   0.62658   0.00000  Uiso   1.00
O38    O     0.18728   0.52098   0.12737   0.00000  Uiso   1.00
O39    O     0.08653   0.97839   0.93106   0.00000  Uiso   1.00
O40    O     0.46433   0.85446   0.67406   0.00000  Uiso   1.00
N41    N     0.26588   0.59678   0.13152   0.00000  Uiso   1.00
N42    N     0.19407   0.92274   0.99160   0.00000  Uiso   1.00
N43    N     0.46329   0.83444   0.52106   0.00000  Uiso   1.00
N44    N     0.14250   0.59668   0.19043   0.00000  Uiso   1.00
N45    N     0.07070   0.92264   0.05051   0.00000  Uiso   1.00
N46    N     0.33991   0.83434   0.57997   0.00000  Uiso   1.00
C47    C     0.67406   0.85524   0.28292   0.00000  Uiso   1.00
C48    C     0.71835   0.80331   0.28940   0.00000  Uiso   1.00
C49    C     0.68747   0.75994   0.32884   0.00000  Uiso   1.00
C50    C     0.73753   0.71618   0.32793   0.00000  Uiso   1.00
C51    C     0.79443   0.63561   0.34395   0.00000  Uiso   1.00
C52    C     0.73943   0.89312   0.32754   0.00000  Uiso   1.00
C53    C     0.72626   0.92526   0.39904   0.00000  Uiso   1.00
C54    C     0.79406   0.95709   0.43023   0.00000  Uiso   1.00
C55    C     0.88366   0.01597   0.50541   0.00000  Uiso   1.00
C56    C     0.66297   0.86887   0.18267   0.00000  Uiso   1.00
C57    C     0.58553   0.88064   0.13237   0.00000  Uiso   1.00
C58    C     0.58896   0.89208   0.04159   0.00000  Uiso   1.00
C59    C     0.55985   0.91331   0.89184   0.00000  Uiso   1.00
C60    C     0.81787   0.85463   0.21116   0.00000  Uiso   1.00
C61    C     0.79646   0.80299   0.25042   0.00000  Uiso   1.00
C62    C     0.84657   0.75928   0.24944   0.00000  Uiso   1.00
C63    C     0.81578   0.71585   0.28888   0.00000  Uiso   1.00
C64    C     0.81753   0.89279   0.28856   0.00000  Uiso   1.00
C65    C     0.88536   0.92459   0.31964   0.00000  Uiso   1.00
C66    C     0.87231   0.95677   0.39118   0.00000  Uiso   1.00
C67    C     0.74108   0.86854   0.14368   0.00000  Uiso   1.00
C68    C     0.74463   0.87997   0.05297   0.00000  Uiso   1.00
C69    C     0.66721   0.89175   0.00254   0.00000  Uiso   1.00
H70    H     0.61326   0.85550   0.31327   0.00000  Uiso   1.00
H71    H     0.62703   0.76021   0.35901   0.00000  Uiso   1.00
H72    H     0.66581   0.92551   0.42919   0.00000  Uiso   1.00
H73    H     0.52510   0.88089   0.16256   0.00000  Uiso   1.00
H74    H     0.67676   0.65444   0.39256   0.00000  Uiso   1.00
H75    H     0.75852   0.00298   0.54051   0.00000  Uiso   1.00
H76    H     0.46180   0.90890   0.97826   0.00000  Uiso   1.00
H77    H     0.87868   0.85438   0.18081   0.00000  Uiso   1.00
H78    H     0.90701   0.75903   0.21927   0.00000  Uiso   1.00
H79    H     0.94579   0.92433   0.28945   0.00000  Uiso   1.00
H80    H     0.80508   0.87971   0.02282   0.00000  Uiso   1.00
H81    H     0.90400   0.65348   0.27914   0.00000  Uiso   1.00
H82    H     0.98577   0.00202   0.42710   0.00000  Uiso   1.00
H83    H     0.68905   0.90794   0.86485   0.00000  Uiso   1.00
O84    O     0.80425   0.59126   0.36357   0.00000  Uiso   1.00
O85    O     0.91151   0.04854   0.55767   0.00000  Uiso   1.00
O86    O     0.52222   0.92511   0.82002   0.00000  Uiso   1.00
N87    N     0.72634   0.66729   0.36057   0.00000  Uiso   1.00
N88    N     0.80279   0.99315   0.49891   0.00000  Uiso   1.00
N89    N     0.52539   0.90521   0.97326   0.00000  Uiso   1.00
N90    N     0.84862   0.66678   0.29954   0.00000  Uiso   1.00
N91    N     0.92507   0.99264   0.43788   0.00000  Uiso   1.00
N92    N     0.64767   0.90469   0.91223   0.00000  Uiso   1.00
C93    C     0.81862   0.28463   0.20957   0.00000  Uiso   1.00
C94    C     0.77394   0.23283   0.20247   0.00000  Uiso   1.00
C95    C     0.80509   0.18934   0.16367   0.00000  Uiso   1.00
C96    C     0.75459   0.14572   0.16383   0.00000  Uiso   1.00
C97    C     0.69718   0.06531   0.14704   0.00000  Uiso   1.00
C98    C     0.75414   0.32267   0.16389   0.00000  Uiso   1.00
C99    C     0.76866   0.35471   0.09267   0.00000  Uiso   1.00
C100   C     0.70149   0.38671   0.06037   0.00000  Uiso   1.00
C101   C     0.61337   0.44579   0.98374   0.00000  Uiso   1.00
C102   C     0.82834   0.29832   0.30981   0.00000  Uiso   1.00
C103   C     0.90524   0.30991   0.36128   0.00000  Uiso   1.00
C104   C     0.90054   0.32143   0.45183   0.00000  Uiso   1.00
C105   C     0.92762   0.34271   0.60175   0.00000  Uiso   1.00
C106   C     0.67353   0.28452   0.27884   0.00000  Uiso   1.00
C107   C     0.69513   0.23277   0.24009   0.00000  Uiso   1.00
C108   C     0.64456   0.18921   0.24032   0.00000  Uiso   1.00
C109   C     0.67564   0.14566   0.20153   0.00000  Uiso   1.00
C110   C     0.67534   0.32261   0.20152   0.00000  Uiso   1.00
C111   C     0.60813   0.35458   0.16932   0.00000  Uiso   1.00
C112   C     0.62254   0.38665   0.09806   0.00000  Uiso   1.00
C113   C     0.74953   0.29826   0.34744   0.00000  Uiso   1.00
C114   C     0.74471   0.30977   0.43792   0.00000  Uiso   1.00
C115   C     0.82159   0.32137   0.48952   0.00000  Uiso   1.00
H116   H     0.87997   0.28468   0.18027   0.00000  Uiso   1.00
H117   H     0.86608   0.18941   0.13455   0.00000  Uiso   1.00
H118   H     0.82965   0.35475   0.06357   0.00000  Uiso   1.00
H119   H     0.96621   0.30995   0.33214   0.00000  Uiso   1.00
H120   H     0.81591   0.08375   0.10042   0.00000  Uiso   1.00
H121   H     0.73911   0.43239   0.95078   0.00000  Uiso   1.00
H122   H     0.02708   0.33793   0.51711   0.00000  Uiso   1.00
H123   H     0.61217   0.28447   0.30814   0.00000  Uiso   1.00
H124   H     0.58358   0.18918   0.26944   0.00000  Uiso   1.00
H125   H     0.54716   0.35452   0.19846   0.00000  Uiso   1.00
H126   H     0.68372   0.30972   0.46702   0.00000  Uiso   1.00
H127   H     0.58662   0.08356   0.20990   0.00000  Uiso   1.00
H128   H     0.50983   0.43221   0.06026   0.00000  Uiso   1.00
H129   H     0.79779   0.33775   0.62658   0.00000  Uiso   1.00
O130   O     0.68728   0.02098   0.12737   0.00000  Uiso   1.00
O131   O     0.58653   0.47839   0.93106   0.00000  Uiso   1.00
O132   O     0.96433   0.35446   0.67406   0.00000  Uiso   1.00
N133   N     0.76588   0.09678   0.13152   0.00000  Uiso   1.00
N134   N     0.69407   0.42274   0.99160   0.00000  Uiso   1.00
N135   N     0.96329   0.33444   0.52106   0.00000  Uiso   1.00
N136   N     0.64250   0.09668   0.19043   0.00000  Uiso   1.00
N137   N     0.57070   0.42264   0.05051   0.00000  Uiso   1.00
N138   N     0.83991   0.33434   0.57997   0.00000  Uiso   1.00
C139   C     0.17406   0.35524   0.28292   0.00000  Uiso   1.00
C140   C     0.21835   0.30331   0.28940   0.00000  Uiso   1.00
C141   C     0.18747   0.25994   0.32884   0.00000  Uiso   1.00
C142   C     0.23753   0.21618   0.32793   0.00000  Uiso   1.00
C143   C     0.29443   0.13561   0.34395   0.00000  Uiso   1.00
C144   C     0.23943   0.39312   0.32754   0.00000  Uiso   1.00
C145   C     0.22626   0.42526   0.39904   0.00000  Uiso   1.00
C146   C     0.29406   0.45709   0.43023   0.00000  Uiso   1.00
C147   C     0.38366   0.51597   0.50541   0.00000  Uiso   1.00
C148   C     0.16297   0.36887   0.18267   0.00000  Uiso   1.00
C149   C     0.08553   0.38064   0.13237   0.00000  Uiso   1.00
C150   C     0.08896   0.39208   0.04159   0.00000  Uiso   1.00
C151   C     0.05985   0.41331   0.89184   0.00000  Uiso   1.00
C152   C     0.31787   0.35463   0.21116   0.00000  Uiso   1.00
C153   C     0.29646   0.30299   0.25042   0.00000  Uiso   1.00
C154   C     0.34657   0.25928   0.24944   0.00000  Uiso   1.00
C155   C     0.31578   0.21585   0.28888   0.00000  Uiso   1.00
C156   C     0.31753   0.39279   0.28856   0.00000  Uiso   1.00
C157   C     0.38536   0.42459   0.31964   0.00000  Uiso   1.00
C158   C     0.37231   0.45677   0.39118   0.00000  Uiso   1.00
C159   C     0.24108   0.36854   0.14368   0.00000  Uiso   1.00
C160   C     0.24463   0.37997   0.05297   0.00000  Uiso   1.00
C161   C     0.16721   0.39175   0.00254   0.00000  Uiso   1.00
H162   H     0.11326   0.35550   0.31327   0.00000  Uiso   1.00
H163   H     0.12703   0.26021   0.35901   0.00000  Uiso   1.00
H164   H     0.16581   0.42551   0.42919   0.00000  Uiso   1.00
H165   H     0.02510   0.38089   0.16256   0.00000  Uiso   1.00
H166   H     0.17676   0.15444   0.39256   0.00000  Uiso   1.00
H167   H     0.25852   0.50298   0.54051   0.00000  Uiso   1.00
H168   H     0.96180   0.40890   0.97826   0.00000  Uiso   1.00
H169   H     0.37868   0.35438   0.18081   0.00000  Uiso   1.00
H170   H     0.40701   0.25903   0.21927   0.00000  Uiso   1.00
H171   H     0.44579   0.42433   0.28945   0.00000  Uiso   1.00
H172   H     0.30508   0.37971   0.02282   0.00000  Uiso   1.00
H173   H     0.40400   0.15348   0.27914   0.00000  Uiso   1.00
H174   H     0.48577   0.50202   0.42710   0.00000  Uiso   1.00
H175   H     0.18905   0.40794   0.86485   0.00000  Uiso   1.00
O176   O     0.30425   0.09126   0.36357   0.00000  Uiso   1.00
O177   O     0.41151   0.54854   0.55767   0.00000  Uiso   1.00
O178   O     0.02222   0.42511   0.82002   0.00000  Uiso   1.00
N179   N     0.22634   0.16729   0.36057   0.00000  Uiso   1.00
N180   N     0.30279   0.49315   0.49891   0.00000  Uiso   1.00
N181   N     0.02539   0.40521   0.97326   0.00000  Uiso   1.00
N182   N     0.34862   0.16678   0.29954   0.00000  Uiso   1.00
N183   N     0.42507   0.49264   0.43788   0.00000  Uiso   1.00
N184   N     0.14767   0.40469   0.91223   0.00000  Uiso   1.00
C185   C     0.31862   0.21537   0.70957   0.00000  Uiso   1.00
C186   C     0.27394   0.26717   0.70247   0.00000  Uiso   1.00
C187   C     0.30509   0.31066   0.66367   0.00000  Uiso   1.00
C188   C     0.25459   0.35428   0.66383   0.00000  Uiso   1.00
C189   C     0.19718   0.43469   0.64704   0.00000  Uiso   1.00
C190   C     0.25414   0.17733   0.66389   0.00000  Uiso   1.00
C191   C     0.26866   0.14529   0.59267   0.00000  Uiso   1.00
C192   C     0.20149   0.11329   0.56037   0.00000  Uiso   1.00
C193   C     0.11337   0.05421   0.48374   0.00000  Uiso   1.00
C194   C     0.32834   0.20168   0.80981   0.00000  Uiso   1.00
C195   C     0.40524   0.19009   0.86128   0.00000  Uiso   1.00
C196   C     0.40054   0.17857   0.95183   0.00000  Uiso   1.00
C197   C     0.42762   0.15729   0.10175   0.00000  Uiso   1.00
C198   C     0.17353   0.21548   0.77884   0.00000  Uiso   1.00
C199   C     0.19513   0.26723   0.74009   0.00000  Uiso   1.00
C200   C     0.14456   0.31079   0.74032   0.00000  Uiso   1.00
C201   C     0.17564   0.35434   0.70153   0.00000  Uiso   1.00
C202   C     0.17534   0.17739   0.70152   0.00000  Uiso   1.00
C203   C     0.10813   0.14542   0.66932   0.00000  Uiso   1.00
C204   C     0.12254   0.11335   0.59806   0.00000  Uiso   1.00
C205   C     0.24953   0.20174   0.84744   0.00000  Uiso   1.00
C206   C     0.24471   0.19023   0.93792   0.00000  Uiso   1.00
C207   C     0.32159   0.17863   0.98952   0.00000  Uiso   1.00
H208   H     0.37997   0.21532   0.68027   0.00000  Uiso   1.00
H209   H     0.36608   0.31059   0.63455   0.00000  Uiso   1.00
H210   H     0.32965   0.14525   0.56357   0.00000  Uiso   1.00
H211   H     0.46621   0.19005   0.83214   0.00000  Uiso   1.00
H212   H     0.31591   0.41625   0.60042   0.00000  Uiso   1.00
H213   H     0.23911   0.06761   0.45078   0.00000  Uiso   1.00
H214   H     0.52708   0.16207   0.01711   0.00000  Uiso   1.00
H215   H     0.11217   0.21553   0.80814   0.00000  Uiso   1.00
H216   H     0.08358   0.31082   0.76944   0.00000  Uiso   1.00
H217   H     0.04716   0.14548   0.69846   0.00000  Uiso   1.00
H218   H     0.18372   0.19028   0.96702   0.00000  Uiso   1.00
H219   H     0.08662   0.41644   0.70990   0.00000  Uiso   1.00
H220   H     0.00983   0.06779   0.56026   0.00000  Uiso   1.00
H221   H     0.29779   0.16225   0.12658   0.00000  Uiso   1.00
O222   O     0.18728   0.47902   0.62737   0.00000  Uiso   1.00
O223   O     0.08653   0.02161   0.43106   0.00000  Uiso   1.00
O224   O     0.46433   0.14554   0.17406   0.00000  Uiso   1.00
N225   N     0.26588   0.40322   0.63152   0.00000  Uiso   1.00
N226   N     0.19407   0.07726   0.49160   0.00000  Uiso   1.00
N227   N     0.46329   0.16556   0.02106   0.00000  Uiso   1.00
N228   N     0.14250   0.40332   0.69043   0.00000  Uiso   1.00
N229   N     0.07070   0.07736   0.55051   0.00000  Uiso   1.00
N230   N     0.33991   0.16566   0.07997   0.00000  Uiso   1.00
C231   C     0.67406   0.14476   0.78292   0.00000  Uiso   1.00
C232   C     0.71835   0.19669   0.78940   0.00000  Uiso   1.00
C233   C     0.68747   0.24006   0.82884   0.00000  Uiso   1.00
C234   C     0.73753   0.28382   0.82793   0.00000  Uiso   1.00
C235   C     0.79443   0.36439   0.84395   0.00000  Uiso   1.00
C236   C     0.73943   0.10688   0.82754   0.00000  Uiso   1.00
C237   C     0.72626   0.07474   0.89904   0.00000  Uiso   1.00
C238   C     0.79406   0.04291   0.93023   0.00000  Uiso   1.00
C239   C     0.88366   0.98403   0.00541   0.00000  Uiso   1.00
C240   C     0.66297   0.13113   0.68267   0.00000  Uiso   1.00
C241   C     0.58553   0.11936   0.63237   0.00000  Uiso   1.00
C242   C     0.58896   0.10792   0.54159   0.00000  Uiso   1.00
C243   C     0.55985   0.08669   0.39184   0.00000  Uiso   1.00
C244   C     0.81787   0.14537   0.71116   0.00000  Uiso   1.00
C245   C     0.79646   0.19701   0.75042   0.00000  Uiso   1.00
C246   C     0.84657   0.24072   0.74944   0.00000  Uiso   1.00
C247   C     0.81578   0.28415   0.78888   0.00000  Uiso   1.00
C248   C     0.81753   0.10721   0.78856   0.00000  Uiso   1.00
C249   C     0.88536   0.07541   0.81964   0.00000  Uiso   1.00
C250   C     0.87231   0.04323   0.89118   0.00000  Uiso   1.00
C251   C     0.74108   0.13146   0.64368   0.00000  Uiso   1.00
C252   C     0.74463   0.12003   0.55297   0.00000  Uiso   1.00
C253   C     0.66721   0.10825   0.50254   0.00000  Uiso   1.00
H254   H     0.61326   0.14450   0.81327   0.00000  Uiso   1.00
H255   H     0.62703   0.23979   0.85901   0.00000  Uiso   1.00
H256   H     0.66581   0.07449   0.92919   0.00000  Uiso   1.00
H257   H     0.52510   0.11911   0.66256   0.00000  Uiso   1.00
H258   H     0.67676   0.34556   0.89256   0.00000  Uiso   1.00
H259   H     0.75852   0.99703   0.04051   0.00000  Uiso   1.00
H260   H     0.46180   0.09110   0.47826   0.00000  Uiso   1.00
H261   H     0.87868   0.14562   0.68081   0.00000  Uiso   1.00
H262   H     0.90701   0.24097   0.71927   0.00000  Uiso   1.00
H263   H     0.94579   0.07567   0.78945   0.00000  Uiso   1.00
H264   H     0.80508   0.12029   0.52282   0.00000  Uiso   1.00
H265   H     0.90400   0.34652   0.77914   0.00000  Uiso   1.00
H266   H     0.98577   0.99798   0.92710   0.00000  Uiso   1.00
H267   H     0.68905   0.09206   0.36485   0.00000  Uiso   1.00
O268   O     0.80425   0.40874   0.86357   0.00000  Uiso   1.00
O269   O     0.91151   0.95146   0.05767   0.00000  Uiso   1.00
O270   O     0.52222   0.07489   0.32002   0.00000  Uiso   1.00
N271   N     0.72634   0.33271   0.86057   0.00000  Uiso   1.00
N272   N     0.80279   0.00685   0.99891   0.00000  Uiso   1.00
N273   N     0.52539   0.09479   0.47326   0.00000  Uiso   1.00
N274   N     0.84862   0.33322   0.79954   0.00000  Uiso   1.00
N275   N     0.92507   0.00736   0.93788   0.00000  Uiso   1.00
N276   N     0.64767   0.09531   0.41223   0.00000  Uiso   1.00
C277   C     0.81862   0.71537   0.70957   0.00000  Uiso   1.00
C278   C     0.77394   0.76717   0.70247   0.00000  Uiso   1.00
C279   C     0.80509   0.81066   0.66367   0.00000  Uiso   1.00
C280   C     0.75459   0.85428   0.66383   0.00000  Uiso   1.00
C281   C     0.69718   0.93469   0.64704   0.00000  Uiso   1.00
C282   C     0.75414   0.67733   0.66389   0.00000  Uiso   1.00
C283   C     0.76866   0.64529   0.59267   0.00000  Uiso   1.00
C284   C     0.70149   0.61329   0.56037   0.00000  Uiso   1.00
C285   C     0.61337   0.55421   0.48374   0.00000  Uiso   1.00
C286   C     0.82834   0.70168   0.80981   0.00000  Uiso   1.00
C287   C     0.90524   0.69009   0.86128   0.00000  Uiso   1.00
C288   C     0.90054   0.67857   0.95183   0.00000  Uiso   1.00
C289   C     0.92762   0.65729   0.10175   0.00000  Uiso   1.00
C290   C     0.67353   0.71548   0.77884   0.00000  Uiso   1.00
C291   C     0.69513   0.76723   0.74009   0.00000  Uiso   1.00
C292   C     0.64456   0.81079   0.74032   0.00000  Uiso   1.00
C293   C     0.67564   0.85434   0.70153   0.00000  Uiso   1.00
C294   C     0.67534   0.67739   0.70152   0.00000  Uiso   1.00
C295   C     0.60813   0.64542   0.66932   0.00000  Uiso   1.00
C296   C     0.62254   0.61335   0.59806   0.00000  Uiso   1.00
C297   C     0.74953   0.70174   0.84744   0.00000  Uiso   1.00
C298   C     0.74471   0.69023   0.93792   0.00000  Uiso   1.00
C299   C     0.82159   0.67863   0.98952   0.00000  Uiso   1.00
H300   H     0.87997   0.71532   0.68027   0.00000  Uiso   1.00
H301   H     0.86608   0.81059   0.63455   0.00000  Uiso   1.00
H302   H     0.82965   0.64525   0.56357   0.00000  Uiso   1.00
H303   H     0.96621   0.69005   0.83214   0.00000  Uiso   1.00
H304   H     0.81591   0.91625   0.60042   0.00000  Uiso   1.00
H305   H     0.73911   0.56761   0.45078   0.00000  Uiso   1.00
H306   H     0.02708   0.66207   0.01711   0.00000  Uiso   1.00
H307   H     0.61217   0.71553   0.80814   0.00000  Uiso   1.00
H308   H     0.58358   0.81082   0.76944   0.00000  Uiso   1.00
H309   H     0.54716   0.64548   0.69846   0.00000  Uiso   1.00
H310   H     0.68372   0.69028   0.96702   0.00000  Uiso   1.00
H311   H     0.58662   0.91644   0.70990   0.00000  Uiso   1.00
H312   H     0.50983   0.56779   0.56026   0.00000  Uiso   1.00
H313   H     0.79779   0.66225   0.12658   0.00000  Uiso   1.00
O314   O     0.68728   0.97902   0.62737   0.00000  Uiso   1.00
O315   O     0.58653   0.52161   0.43106   0.00000  Uiso   1.00
O316   O     0.96433   0.64554   0.17406   0.00000  Uiso   1.00
N317   N     0.76588   0.90322   0.63152   0.00000  Uiso   1.00
N318   N     0.69407   0.57726   0.49160   0.00000  Uiso   1.00
N319   N     0.96329   0.66556   0.02106   0.00000  Uiso   1.00
N320   N     0.64250   0.90332   0.69043   0.00000  Uiso   1.00
N321   N     0.57070   0.57736   0.55051   0.00000  Uiso   1.00
N322   N     0.83991   0.66566   0.07997   0.00000  Uiso   1.00
C323   C     0.17406   0.64476   0.78292   0.00000  Uiso   1.00
C324   C     0.21835   0.69669   0.78940   0.00000  Uiso   1.00
C325   C     0.18747   0.74006   0.82884   0.00000  Uiso   1.00
C326   C     0.23753   0.78382   0.82793   0.00000  Uiso   1.00
C327   C     0.29443   0.86439   0.84395   0.00000  Uiso   1.00
C328   C     0.23943   0.60688   0.82754   0.00000  Uiso   1.00
C329   C     0.22626   0.57474   0.89904   0.00000  Uiso   1.00
C330   C     0.29406   0.54291   0.93023   0.00000  Uiso   1.00
C331   C     0.38366   0.48403   0.00541   0.00000  Uiso   1.00
C332   C     0.16297   0.63113   0.68267   0.00000  Uiso   1.00
C333   C     0.08553   0.61936   0.63237   0.00000  Uiso   1.00
C334   C     0.08896   0.60792   0.54159   0.00000  Uiso   1.00
C335   C     0.05985   0.58669   0.39184   0.00000  Uiso   1.00
C336   C     0.31787   0.64537   0.71116   0.00000  Uiso   1.00
C337   C     0.29646   0.69701   0.75042   0.00000  Uiso   1.00
C338   C     0.34657   0.74072   0.74944   0.00000  Uiso   1.00
C339   C     0.31578   0.78415   0.78888   0.00000  Uiso   1.00
C340   C     0.31753   0.60721   0.78856   0.00000  Uiso   1.00
C341   C     0.38536   0.57541   0.81964   0.00000  Uiso   1.00
C342   C     0.37231   0.54323   0.89118   0.00000  Uiso   1.00
C343   C     0.24108   0.63146   0.64368   0.00000  Uiso   1.00
C344   C     0.24463   0.62003   0.55297   0.00000  Uiso   1.00
C345   C     0.16721   0.60825   0.50254   0.00000  Uiso   1.00
H346   H     0.11326   0.64450   0.81327   0.00000  Uiso   1.00
H347   H     0.12703   0.73979   0.85901   0.00000  Uiso   1.00
H348   H     0.16581   0.57449   0.92919   0.00000  Uiso   1.00
H349   H     0.02510   0.61911   0.66256   0.00000  Uiso   1.00
H350   H     0.17676   0.84556   0.89256   0.00000  Uiso   1.00
H351   H     0.25852   0.49702   0.04051   0.00000  Uiso   1.00
H352   H     0.96180   0.59110   0.47826   0.00000  Uiso   1.00
H353   H     0.37868   0.64562   0.68081   0.00000  Uiso   1.00
H354   H     0.40701   0.74097   0.71927   0.00000  Uiso   1.00
H355   H     0.44579   0.57567   0.78945   0.00000  Uiso   1.00
H356   H     0.30508   0.62029   0.52282   0.00000  Uiso   1.00
H357   H     0.40400   0.84652   0.77914   0.00000  Uiso   1.00
H358   H     0.48577   0.49798   0.92710   0.00000  Uiso   1.00
H359   H     0.18905   0.59206   0.36485   0.00000  Uiso   1.00
O360   O     0.30425   0.90874   0.86357   0.00000  Uiso   1.00
O361   O     0.41151   0.45146   0.05767   0.00000  Uiso   1.00
O362   O     0.02222   0.57489   0.32002   0.00000  Uiso   1.00
N363   N     0.22634   0.83271   0.86057   0.00000  Uiso   1.00
N364   N     0.30279   0.50685   0.99891   0.00000  Uiso   1.00
N365   N     0.02539   0.59479   0.47326   0.00000  Uiso   1.00
N366   N     0.34862   0.83322   0.79954   0.00000  Uiso   1.00
N367   N     0.42507   0.50736   0.93788   0.00000  Uiso   1.00
N368   N     0.14767   0.59531   0.41223   0.00000  Uiso   1.00
