data_job_01999
_audit_creation_date              2018-12-19
_audit_creation_method            'Materials Studio'
_symmetry_space_group_name_H-M    'P1'
_symmetry_Int_Tables_number       1
_symmetry_cell_setting            triclinic
loop_
_symmetry_equiv_pos_as_xyz
  x,y,z
_cell_length_a                    7.8542
_cell_length_b                    10.1161
_cell_length_c                    18.4790
_cell_angle_alpha                 100.7287
_cell_angle_beta                  96.8820
_cell_angle_gamma                 83.8204
loop_
_atom_site_label
_atom_site_type_symbol
_atom_site_fract_x
_atom_site_fract_y
_atom_site_fract_z
_atom_site_U_iso_or_equiv
_atom_site_adp_type
_atom_site_occupancy
C1     C     0.84135   0.89910   0.80519   0.00000  Uiso   1.00
C2     C     0.01249   0.85169   0.84467   0.00000  Uiso   1.00
C3     C     0.03257   0.79167   0.90720   0.00000  Uiso   1.00
C4     C     0.19986   0.75555   0.93494   0.00000  Uiso   1.00
C5     C     0.44401   0.67847   0.00137   0.00000  Uiso   1.00
C6     C     0.85079   0.04823   0.80343   0.00000  Uiso   1.00
C7     C     0.73491   0.15346   0.83128   0.00000  Uiso   1.00
C8     C     0.76608   0.28279   0.82429   0.00000  Uiso   1.00
C9     C     0.75912   0.51083   0.82664   0.00000  Uiso   1.00
C10    C     0.83989   0.82659   0.72504   0.00000  Uiso   1.00
C11    C     0.71481   0.74548   0.68698   0.00000  Uiso   1.00
C12    C     0.73677   0.68823   0.61399   0.00000  Uiso   1.00
C13    C     0.71287   0.57213   0.49465   0.00000  Uiso   1.00
C14    C     0.10273   0.94168   0.74325   0.00000  Uiso   1.00
C15    C     0.15446   0.87482   0.81102   0.00000  Uiso   1.00
C16    C     0.32177   0.83877   0.83867   0.00000  Uiso   1.00
C17    C     0.34210   0.77871   0.90123   0.00000  Uiso   1.00
C18    C     0.99276   0.07136   0.76978   0.00000  Uiso   1.00
C19    C     0.02410   0.20056   0.76274   0.00000  Uiso   1.00
C20    C     0.90831   0.30596   0.79058   0.00000  Uiso   1.00
C21    C     0.98186   0.84971   0.69139   0.00000  Uiso   1.00
C22    C     0.00401   0.79258   0.61845   0.00000  Uiso   1.00
C23    C     0.87900   0.71140   0.58028   0.00000  Uiso   1.00
H24    H     0.73081   0.88111   0.83139   0.00000  Uiso   1.00
H25    H     0.92267   0.77380   0.93323   0.00000  Uiso   1.00
H26    H     0.62505   0.13553   0.85731   0.00000  Uiso   1.00
H27    H     0.60496   0.72761   0.71304   0.00000  Uiso   1.00
H28    H     0.19799   0.66508   0.03131   0.00000  Uiso   1.00
H29    H     0.57040   0.42779   0.87121   0.00000  Uiso   1.00
H30    H     0.52804   0.56762   0.56698   0.00000  Uiso   1.00
H31    H     0.21327   0.95969   0.71705   0.00000  Uiso   1.00
H32    H     0.43161   0.85668   0.81262   0.00000  Uiso   1.00
H33    H     0.13398   0.21842   0.73670   0.00000  Uiso   1.00
H34    H     0.11389   0.81050   0.59243   0.00000  Uiso   1.00
H35    H     0.61107   0.73235   0.93342   0.00000  Uiso   1.00
H36    H     0.98347   0.49507   0.77332   0.00000  Uiso   1.00
H37    H     0.94111   0.63489   0.46909   0.00000  Uiso   1.00
O38    O     0.53945   0.62958   0.04731   0.00000  Uiso   1.00
O39    O     0.71606   0.63023   0.83725   0.00000  Uiso   1.00
O40    O     0.66049   0.50169   0.43811   0.00000  Uiso   1.00
N41    N     0.26524   0.69502   0.99515   0.00000  Uiso   1.00
N42    N     0.67850   0.40812   0.84547   0.00000  Uiso   1.00
N43    N     0.63887   0.60395   0.56104   0.00000  Uiso   1.00
N44    N     0.48751   0.73122   0.94248   0.00000  Uiso   1.00
N45    N     0.90077   0.44432   0.79280   0.00000  Uiso   1.00
N46    N     0.86114   0.64015   0.50837   0.00000  Uiso   1.00
C47    C     0.15865   0.10090   0.19481   0.00000  Uiso   1.00
C48    C     0.98751   0.14831   0.15533   0.00000  Uiso   1.00
C49    C     0.96743   0.20833   0.09280   0.00000  Uiso   1.00
C50    C     0.80014   0.24445   0.06506   0.00000  Uiso   1.00
C51    C     0.55599   0.32153   0.99863   0.00000  Uiso   1.00
C52    C     0.14921   0.95177   0.19657   0.00000  Uiso   1.00
C53    C     0.26509   0.84654   0.16872   0.00000  Uiso   1.00
C54    C     0.23392   0.71721   0.17571   0.00000  Uiso   1.00
C55    C     0.24088   0.48917   0.17336   0.00000  Uiso   1.00
C56    C     0.16011   0.17341   0.27496   0.00000  Uiso   1.00
C57    C     0.28519   0.25452   0.31302   0.00000  Uiso   1.00
C58    C     0.26323   0.31177   0.38601   0.00000  Uiso   1.00
C59    C     0.28713   0.42787   0.50535   0.00000  Uiso   1.00
C60    C     0.89727   0.05832   0.25675   0.00000  Uiso   1.00
C61    C     0.84554   0.12518   0.18898   0.00000  Uiso   1.00
C62    C     0.67823   0.16123   0.16133   0.00000  Uiso   1.00
C63    C     0.65790   0.22129   0.09877   0.00000  Uiso   1.00
C64    C     0.00724   0.92864   0.23022   0.00000  Uiso   1.00
C65    C     0.97590   0.79944   0.23726   0.00000  Uiso   1.00
C66    C     0.09169   0.69404   0.20942   0.00000  Uiso   1.00
C67    C     0.01814   0.15029   0.30861   0.00000  Uiso   1.00
C68    C     0.99599   0.20742   0.38155   0.00000  Uiso   1.00
C69    C     0.12100   0.28860   0.41972   0.00000  Uiso   1.00
H70    H     0.26919   0.11889   0.16861   0.00000  Uiso   1.00
H71    H     0.07733   0.22620   0.06677   0.00000  Uiso   1.00
H72    H     0.37495   0.86447   0.14269   0.00000  Uiso   1.00
H73    H     0.39504   0.27239   0.28696   0.00000  Uiso   1.00
H74    H     0.80201   0.33492   0.96869   0.00000  Uiso   1.00
H75    H     0.42960   0.57221   0.12879   0.00000  Uiso   1.00
H76    H     0.47196   0.43238   0.43302   0.00000  Uiso   1.00
H77    H     0.78673   0.04031   0.28295   0.00000  Uiso   1.00
H78    H     0.56839   0.14332   0.18738   0.00000  Uiso   1.00
H79    H     0.86602   0.78158   0.26330   0.00000  Uiso   1.00
H80    H     0.88611   0.18950   0.40757   0.00000  Uiso   1.00
H81    H     0.38893   0.26765   0.06658   0.00000  Uiso   1.00
H82    H     0.01653   0.50493   0.22668   0.00000  Uiso   1.00
H83    H     0.05889   0.36511   0.53091   0.00000  Uiso   1.00
O84    O     0.46055   0.37042   0.95269   0.00000  Uiso   1.00
O85    O     0.28394   0.36977   0.16275   0.00000  Uiso   1.00
O86    O     0.33951   0.49831   0.56189   0.00000  Uiso   1.00
N87    N     0.73476   0.30498   0.00485   0.00000  Uiso   1.00
N88    N     0.32150   0.59188   0.15453   0.00000  Uiso   1.00
N89    N     0.36113   0.39605   0.43896   0.00000  Uiso   1.00
N90    N     0.51249   0.26878   0.05752   0.00000  Uiso   1.00
N91    N     0.09923   0.55568   0.20720   0.00000  Uiso   1.00
N92    N     0.13886   0.35985   0.49163   0.00000  Uiso   1.00
