data_job_06848
_audit_creation_date              2018-12-19
_audit_creation_method            'Materials Studio'
_symmetry_space_group_name_H-M    'P1'
_symmetry_Int_Tables_number       1
_symmetry_cell_setting            triclinic
loop_
_symmetry_equiv_pos_as_xyz
  x,y,z
_cell_length_a                    16.2022
_cell_length_b                    25.1184
_cell_length_c                    26.3745
_cell_angle_alpha                 117.6558
_cell_angle_beta                  104.9622
_cell_angle_gamma                 90.7528
loop_
_atom_site_label
_atom_site_type_symbol
_atom_site_fract_x
_atom_site_fract_y
_atom_site_fract_z
_atom_site_U_iso_or_equiv
_atom_site_adp_type
_atom_site_occupancy
C1     C     0.40360   0.19502   0.42949   0.00000  Uiso   1.00
C2     C     0.39043   0.12789   0.41231   0.00000  Uiso   1.00
C3     C     0.45542   0.09454   0.42021   0.00000  Uiso   1.00
C4     C     0.43007   0.03370   0.40155   0.00000  Uiso   1.00
C5     C     0.42289   0.93348   0.37874   0.00000  Uiso   1.00
C6     C     0.36111   0.19810   0.37234   0.00000  Uiso   1.00
C7     C     0.40144   0.22378   0.34665   0.00000  Uiso   1.00
C8     C     0.35140   0.22204   0.29434   0.00000  Uiso   1.00
C9     C     0.29868   0.23085   0.20951   0.00000  Uiso   1.00
C10    C     0.34922   0.22567   0.47148   0.00000  Uiso   1.00
C11    C     0.37956   0.27455   0.52913   0.00000  Uiso   1.00
C12    C     0.31951   0.29603   0.56028   0.00000  Uiso   1.00
C13    C     0.24833   0.34765   0.62937   0.00000  Uiso   1.00
C14    C     0.24301   0.14627   0.38230   0.00000  Uiso   1.00
C15    C     0.30320   0.10141   0.38668   0.00000  Uiso   1.00
C16    C     0.27775   0.04060   0.36800   0.00000  Uiso   1.00
C17    C     0.34269   0.00717   0.37587   0.00000  Uiso   1.00
C18    C     0.27388   0.17162   0.34671   0.00000  Uiso   1.00
C19    C     0.22377   0.16984   0.29444   0.00000  Uiso   1.00
C20    C     0.26402   0.19551   0.26866   0.00000  Uiso   1.00
C21    C     0.26200   0.19919   0.44585   0.00000  Uiso   1.00
C22    C     0.20188   0.22060   0.47692   0.00000  Uiso   1.00
C23    C     0.23212   0.26950   0.53460   0.00000  Uiso   1.00
H24    H     0.47151   0.21564   0.44945   0.00000  Uiso   1.00
H25    H     0.52292   0.11505   0.44004   0.00000  Uiso   1.00
H26    H     0.46894   0.24427   0.36650   0.00000  Uiso   1.00
H27    H     0.44707   0.29503   0.54895   0.00000  Uiso   1.00
H28    H     0.54145   0.99185   0.41830   0.00000  Uiso   1.00
H29    H     0.42763   0.26434   0.26323   0.00000  Uiso   1.00
H30    H     0.38150   0.37136   0.64796   0.00000  Uiso   1.00
H31    H     0.17510   0.12565   0.36235   0.00000  Uiso   1.00
H32    H     0.21024   0.02012   0.34817   0.00000  Uiso   1.00
H33    H     0.15627   0.14935   0.27462   0.00000  Uiso   1.00
H34    H     0.13439   0.20010   0.45707   0.00000  Uiso   1.00
H35    H     0.28767   0.91480   0.34372   0.00000  Uiso   1.00
H36    H     0.17385   0.18729   0.18865   0.00000  Uiso   1.00
H37    H     0.12771   0.29431   0.57339   0.00000  Uiso   1.00
O38    O     0.44303   0.88552   0.37323   0.00000  Uiso   1.00
O39    O     0.29370   0.24303   0.16980   0.00000  Uiso   1.00
O40    O     0.23317   0.38344   0.67456   0.00000  Uiso   1.00
N41    N     0.47690   0.98820   0.40270   0.00000  Uiso   1.00
N42    N     0.37049   0.24295   0.25772   0.00000  Uiso   1.00
N43    N     0.32735   0.34302   0.61740   0.00000  Uiso   1.00
N44    N     0.34034   0.94674   0.36258   0.00000  Uiso   1.00
N45    N     0.23393   0.20149   0.21759   0.00000  Uiso   1.00
N46    N     0.19079   0.30156   0.57728   0.00000  Uiso   1.00
C47    C     0.06499   0.40712   0.47559   0.00000  Uiso   1.00
C48    C     0.01525   0.44088   0.44523   0.00000  Uiso   1.00
C49    C     0.04074   0.45706   0.40725   0.00000  Uiso   1.00
C50    C     0.98625   0.48779   0.38403   0.00000  Uiso   1.00
C51    C     0.92077   0.53811   0.33474   0.00000  Uiso   1.00
C52    C     0.07958   0.44746   0.54266   0.00000  Uiso   1.00
C53    C     0.15916   0.46915   0.58660   0.00000  Uiso   1.00
C54    C     0.15883   0.50541   0.64540   0.00000  Uiso   1.00
C55    C     0.19322   0.56590   0.74737   0.00000  Uiso   1.00
C56    C     0.00277   0.35069   0.45691   0.00000  Uiso   1.00
C57    C     0.01778   0.29103   0.42877   0.00000  Uiso   1.00
C58    C     0.95278   0.24582   0.41539   0.00000  Uiso   1.00
C59    C     0.86792   0.15608   0.38423   0.00000  Uiso   1.00
C60    C     0.92289   0.43291   0.50189   0.00000  Uiso   1.00
C61    C     0.93807   0.45490   0.45952   0.00000  Uiso   1.00
C62    C     0.88352   0.48560   0.43635   0.00000  Uiso   1.00
C63    C     0.90893   0.50182   0.39834   0.00000  Uiso   1.00
C64    C     0.00240   0.46147   0.55694   0.00000  Uiso   1.00
C65    C     0.00195   0.49770   0.61569   0.00000  Uiso   1.00
C66    C     0.08151   0.51945   0.65971   0.00000  Uiso   1.00
C67    C     0.92559   0.36471   0.47119   0.00000  Uiso   1.00
C68    C     0.86056   0.31958   0.45786   0.00000  Uiso   1.00
C69    C     0.87546   0.25986   0.42970   0.00000  Uiso   1.00
H70    H     0.12508   0.39621   0.46448   0.00000  Uiso   1.00
H71    H     0.10048   0.44621   0.39622   0.00000  Uiso   1.00
H72    H     0.21888   0.45830   0.57553   0.00000  Uiso   1.00
H73    H     0.07751   0.28021   0.41772   0.00000  Uiso   1.00
H74    H     0.03917   0.50785   0.32685   0.00000  Uiso   1.00
H75    H     0.28883   0.53331   0.70495   0.00000  Uiso   1.00
H76    H     0.99073   0.15777   0.37219   0.00000  Uiso   1.00
H77    H     0.86280   0.44382   0.51301   0.00000  Uiso   1.00
H78    H     0.82380   0.49644   0.44741   0.00000  Uiso   1.00
H79    H     0.94221   0.50853   0.62673   0.00000  Uiso   1.00
H80    H     0.80084   0.33044   0.46892   0.00000  Uiso   1.00
H81    H     0.81461   0.54862   0.36840   0.00000  Uiso   1.00
H82    H     0.06427   0.57408   0.74651   0.00000  Uiso   1.00
H83    H     0.76617   0.19854   0.41374   0.00000  Uiso   1.00
O84    O     0.90598   0.56201   0.30361   0.00000  Uiso   1.00
O85    O     0.23352   0.59540   0.79967   0.00000  Uiso   1.00
O86    O     0.84242   0.10271   0.36308   0.00000  Uiso   1.00
N87    N     0.99167   0.51022   0.34562   0.00000  Uiso   1.00
N88    N     0.22508   0.53403   0.69913   0.00000  Uiso   1.00
N89    N     0.94640   0.18293   0.38803   0.00000  Uiso   1.00
N90    N     0.87083   0.53215   0.36798   0.00000  Uiso   1.00
N91    N     0.10425   0.55597   0.72148   0.00000  Uiso   1.00
N92    N     0.82556   0.20487   0.41039   0.00000  Uiso   1.00
C93    C     0.98937   0.21836   0.71067   0.00000  Uiso   1.00
C94    C     0.99919   0.27296   0.77201   0.00000  Uiso   1.00
C95    C     0.02435   0.33324   0.78864   0.00000  Uiso   1.00
C96    C     0.02946   0.37652   0.84683   0.00000  Uiso   1.00
C97    C     0.04769   0.46381   0.93599   0.00000  Uiso   1.00
C98    C     0.04761   0.17547   0.72218   0.00000  Uiso   1.00
C99    C     0.11348   0.15376   0.69689   0.00000  Uiso   1.00
C100   C     0.15935   0.11496   0.71313   0.00000  Uiso   1.00
C101   C     0.25271   0.05085   0.72489   0.00000  Uiso   1.00
C102   C     0.89688   0.18586   0.68840   0.00000  Uiso   1.00
C103   C     0.83601   0.17288   0.63471   0.00000  Uiso   1.00
C104   C     0.75497   0.14281   0.62250   0.00000  Uiso   1.00
C105   C     0.61430   0.09484   0.58181   0.00000  Uiso   1.00
C106   C     0.95370   0.18803   0.78447   0.00000  Uiso   1.00
C107   C     0.97981   0.25649   0.81209   0.00000  Uiso   1.00
C108   C     0.98488   0.29969   0.87028   0.00000  Uiso   1.00
C109   C     0.01004   0.36002   0.88699   0.00000  Uiso   1.00
C110   C     0.02824   0.15900   0.76226   0.00000  Uiso   1.00
C111   C     0.07401   0.12021   0.77854   0.00000  Uiso   1.00
C112   C     0.13993   0.09846   0.75329   0.00000  Uiso   1.00
C113   C     0.87750   0.16939   0.72848   0.00000  Uiso   1.00
C114   C     0.79654   0.13933   0.71636   0.00000  Uiso   1.00
C115   C     0.73556   0.12631   0.66266   0.00000  Uiso   1.00
H116   H     0.00447   0.23118   0.67947   0.00000  Uiso   1.00
H117   H     0.03935   0.34596   0.75760   0.00000  Uiso   1.00
H118   H     0.12846   0.16651   0.66587   0.00000  Uiso   1.00
H119   H     0.85103   0.18563   0.60370   0.00000  Uiso   1.00
H120   H     0.06952   0.46596   0.86192   0.00000  Uiso   1.00
H121   H     0.25739   0.08756   0.66848   0.00000  Uiso   1.00
H122   H     0.67238   0.12787   0.53737   0.00000  Uiso   1.00
H123   H     0.93861   0.17521   0.81567   0.00000  Uiso   1.00
H124   H     0.96988   0.28693   0.90129   0.00000  Uiso   1.00
H125   H     0.05899   0.10748   0.80955   0.00000  Uiso   1.00
H126   H     0.78157   0.12659   0.74738   0.00000  Uiso   1.00
H127   H     0.01313   0.41805   0.97854   0.00000  Uiso   1.00
H128   H     0.20100   0.03964   0.78509   0.00000  Uiso   1.00
H129   H     0.61600   0.07995   0.65399   0.00000  Uiso   1.00
O130   O     0.06311   0.51651   0.97410   0.00000  Uiso   1.00
O131   O     0.30958   0.02005   0.72030   0.00000  Uiso   1.00
O132   O     0.54206   0.07294   0.54830   0.00000  Uiso   1.00
N133   N     0.05194   0.43936   0.87761   0.00000  Uiso   1.00
N134   N     0.22759   0.08558   0.69676   0.00000  Uiso   1.00
N135   N     0.68067   0.12325   0.57419   0.00000  Uiso   1.00
N136   N     0.02160   0.41357   0.94036   0.00000  Uiso   1.00
N137   N     0.19725   0.05980   0.75952   0.00000  Uiso   1.00
N138   N     0.65033   0.09747   0.63694   0.00000  Uiso   1.00
C139   C     0.47076   0.74571   0.40937   0.00000  Uiso   1.00
C140   C     0.47294   0.69200   0.42162   0.00000  Uiso   1.00
C141   C     0.53233   0.65177   0.41153   0.00000  Uiso   1.00
C142   C     0.52338   0.60564   0.42567   0.00000  Uiso   1.00
C143   C     0.53682   0.52312   0.44116   0.00000  Uiso   1.00
C144   C     0.47537   0.80173   0.46866   0.00000  Uiso   1.00
C145   C     0.53679   0.85377   0.49812   0.00000  Uiso   1.00
C146   C     0.52988   0.90001   0.55186   0.00000  Uiso   1.00
C147   C     0.54706   0.98787   0.64037   0.00000  Uiso   1.00
C148   C     0.38072   0.73627   0.36734   0.00000  Uiso   1.00
C149   C     0.36256   0.73329   0.31161   0.00000  Uiso   1.00
C150   C     0.27596   0.72443   0.28005   0.00000  Uiso   1.00
C151   C     0.14619   0.71066   0.21123   0.00000  Uiso   1.00
C152   C     0.34926   0.73532   0.45242   0.00000  Uiso   1.00
C153   C     0.40694   0.68636   0.44500   0.00000  Uiso   1.00
C154   C     0.39790   0.64027   0.45916   0.00000  Uiso   1.00
C155   C     0.45726   0.59998   0.44910   0.00000  Uiso   1.00
C156   C     0.40938   0.79609   0.49204   0.00000  Uiso   1.00
C157   C     0.40237   0.84227   0.54575   0.00000  Uiso   1.00
C158   C     0.46377   0.89436   0.57529   0.00000  Uiso   1.00
C159   C     0.31472   0.73063   0.39072   0.00000  Uiso   1.00
C160   C     0.22814   0.72179   0.35924   0.00000  Uiso   1.00
C161   C     0.20985   0.71878   0.30348   0.00000  Uiso   1.00
H162   H     0.52214   0.75010   0.39117   0.00000  Uiso   1.00
H163   H     0.58339   0.65616   0.39344   0.00000  Uiso   1.00
H164   H     0.58785   0.85812   0.48002   0.00000  Uiso   1.00
H165   H     0.41365   0.73766   0.29353   0.00000  Uiso   1.00
H166   H     0.62222   0.54952   0.40629   0.00000  Uiso   1.00
H167   H     0.63160   0.97538   0.58883   0.00000  Uiso   1.00
H168   H     0.26426   0.72136   0.19559   0.00000  Uiso   1.00
H169   H     0.29788   0.73092   0.47062   0.00000  Uiso   1.00
H170   H     0.34682   0.63592   0.47725   0.00000  Uiso   1.00
H171   H     0.35129   0.83789   0.56383   0.00000  Uiso   1.00
H172   H     0.17708   0.71742   0.37735   0.00000  Uiso   1.00
H173   H     0.43022   0.53310   0.47432   0.00000  Uiso   1.00
H174   H     0.43960   0.95896   0.65686   0.00000  Uiso   1.00
H175   H     0.07225   0.70494   0.26362   0.00000  Uiso   1.00
O176   O     0.56248   0.47917   0.44326   0.00000  Uiso   1.00
O177   O     0.57478   0.03789   0.68273   0.00000  Uiso   1.00
O178   O     0.09284   0.70462   0.16681   0.00000  Uiso   1.00
N179   N     0.57030   0.55868   0.42138   0.00000  Uiso   1.00
N180   N     0.57908   0.95684   0.59205   0.00000  Uiso   1.00
N181   N     0.23565   0.71937   0.22441   0.00000  Uiso   1.00
N182   N     0.46699   0.54985   0.45799   0.00000  Uiso   1.00
N183   N     0.47577   0.94800   0.62865   0.00000  Uiso   1.00
N184   N     0.13233   0.71053   0.26102   0.00000  Uiso   1.00
C185   C     0.91657   0.77129   0.22081   0.00000  Uiso   1.00
C186   C     0.92844   0.83937   0.26380   0.00000  Uiso   1.00
C187   C     0.00642   0.87614   0.30297   0.00000  Uiso   1.00
C188   C     0.00367   0.93729   0.33859   0.00000  Uiso   1.00
C189   C     0.03397   0.03943   0.40586   0.00000  Uiso   1.00
C190   C     0.87203   0.76276   0.15848   0.00000  Uiso   1.00
C191   C     0.90256   0.73512   0.10908   0.00000  Uiso   1.00
C192   C     0.85232   0.73177   0.05604   0.00000  Uiso   1.00
C193   C     0.79500   0.71494   0.95978   0.00000  Uiso   1.00
C194   C     0.85088   0.74135   0.23577   0.00000  Uiso   1.00
C195   C     0.86362   0.69570   0.25134   0.00000  Uiso   1.00
C196   C     0.79555   0.67432   0.26336   0.00000  Uiso   1.00
C197   C     0.70540   0.62426   0.28711   0.00000  Uiso   1.00
C198   C     0.77303   0.81449   0.21444   0.00000  Uiso   1.00
C199   C     0.85048   0.86283   0.26034   0.00000  Uiso   1.00
C200   C     0.84761   0.92393   0.29592   0.00000  Uiso   1.00
C201   C     0.92557   0.96079   0.33513   0.00000  Uiso   1.00
C202   C     0.79407   0.78622   0.15502   0.00000  Uiso   1.00
C203   C     0.74376   0.78291   0.10204   0.00000  Uiso   1.00
C204   C     0.77421   0.75528   0.05258   0.00000  Uiso   1.00
C205   C     0.77291   0.76482   0.23231   0.00000  Uiso   1.00
C206   C     0.70481   0.74350   0.24430   0.00000  Uiso   1.00
C207   C     0.71745   0.69783   0.25990   0.00000  Uiso   1.00
H208   H     0.97727   0.75302   0.22350   0.00000  Uiso   1.00
H209   H     0.06674   0.85797   0.30563   0.00000  Uiso   1.00
H210   H     0.96290   0.71696   0.11177   0.00000  Uiso   1.00
H211   H     0.92396   0.67756   0.25402   0.00000  Uiso   1.00
H212   H     0.13156   0.98467   0.39514   0.00000  Uiso   1.00
H213   H     0.91259   0.68733   0.98639   0.00000  Uiso   1.00
H214   H     0.83048   0.60424   0.28633   0.00000  Uiso   1.00
H215   H     0.71233   0.83276   0.21174   0.00000  Uiso   1.00
H216   H     0.78727   0.94208   0.29323   0.00000  Uiso   1.00
H217   H     0.68343   0.80107   0.09938   0.00000  Uiso   1.00
H218   H     0.64449   0.76167   0.24162   0.00000  Uiso   1.00
H219   H     0.90473   0.05294   0.38508   0.00000  Uiso   1.00
H220   H     0.68575   0.75559   0.97632   0.00000  Uiso   1.00
H221   H     0.60365   0.67250   0.27627   0.00000  Uiso   1.00
O222   O     0.07222   0.08928   0.44391   0.00000  Uiso   1.00
O223   O     0.78493   0.69917   0.90764   0.00000  Uiso   1.00
O224   O     0.67721   0.59016   0.30117   0.00000  Uiso   1.00
N225   N     0.06789   0.98573   0.38160   0.00000  Uiso   1.00
N226   N     0.86317   0.70774   0.99944   0.00000  Uiso   1.00
N227   N     0.78640   0.63005   0.27985   0.00000  Uiso   1.00
N228   N     0.94583   0.02247   0.37618   0.00000  Uiso   1.00
N229   N     0.74111   0.74448   0.99402   0.00000  Uiso   1.00
N230   N     0.66434   0.66678   0.27443   0.00000  Uiso   1.00
C231   C     0.62933   0.44632   0.13537   0.00000  Uiso   1.00
C232   C     0.58020   0.43249   0.07184   0.00000  Uiso   1.00
C233   C     0.56526   0.47505   0.05220   0.00000  Uiso   1.00
C234   C     0.51897   0.45324   0.99238   0.00000  Uiso   1.00
C235   C     0.44731   0.44121   0.89962   0.00000  Uiso   1.00
C236   C     0.70207   0.40799   0.12943   0.00000  Uiso   1.00
C237   C     0.78959   0.42995   0.15822   0.00000  Uiso   1.00
C238   C     0.84588   0.38752   0.14689   0.00000  Uiso   1.00
C239   C     0.96342   0.33745   0.14357   0.00000  Uiso   1.00
C240   C     0.56761   0.42008   0.15597   0.00000  Uiso   1.00
C241   C     0.54209   0.45220   0.20708   0.00000  Uiso   1.00
C242   C     0.48519   0.41995   0.21809   0.00000  Uiso   1.00
C243   C     0.39396   0.38865   0.25598   0.00000  Uiso   1.00
C244   C     0.57369   0.33191   0.06406   0.00000  Uiso   1.00
C245   C     0.54998   0.37034   0.03311   0.00000  Uiso   1.00
C246   C     0.50369   0.34847   0.97330   0.00000  Uiso   1.00
C247   C     0.48869   0.39099   0.95358   0.00000  Uiso   1.00
C248   C     0.67185   0.34585   0.09070   0.00000  Uiso   1.00
C249   C     0.72802   0.30337   0.07932   0.00000  Uiso   1.00
C250   C     0.81560   0.32526   0.10808   0.00000  Uiso   1.00
C251   C     0.53738   0.35794   0.11723   0.00000  Uiso   1.00
C252   C     0.48052   0.32562   0.12818   0.00000  Uiso   1.00
C253   C     0.45491   0.35769   0.17929   0.00000  Uiso   1.00
H254   H     0.65287   0.49470   0.16553   0.00000  Uiso   1.00
H255   H     0.58867   0.52314   0.08219   0.00000  Uiso   1.00
H256   H     0.81295   0.47804   0.18820   0.00000  Uiso   1.00
H257   H     0.56549   0.50029   0.23704   0.00000  Uiso   1.00
H258   H     0.50419   0.52726   0.97271   0.00000  Uiso   1.00
H259   H     0.97711   0.43217   0.19625   0.00000  Uiso   1.00
H260   H     0.45528   0.47909   0.29925   0.00000  Uiso   1.00
H261   H     0.55016   0.28353   0.03390   0.00000  Uiso   1.00
H262   H     0.48031   0.30037   0.94334   0.00000  Uiso   1.00
H263   H     0.70461   0.25528   0.04935   0.00000  Uiso   1.00
H264   H     0.45714   0.27753   0.09819   0.00000  Uiso   1.00
H265   H     0.41625   0.34645   0.86001   0.00000  Uiso   1.00
H266   H     0.88917   0.25137   0.08355   0.00000  Uiso   1.00
H267   H     0.36734   0.29829   0.18655   0.00000  Uiso   1.00
O268   O     0.41615   0.45175   0.85916   0.00000  Uiso   1.00
O269   O     0.03660   0.32700   0.15244   0.00000  Uiso   1.00
O270   O     0.35197   0.38856   0.28757   0.00000  Uiso   1.00
N271   N     0.49306   0.48239   0.95862   0.00000  Uiso   1.00
N272   N     0.93522   0.39350   0.16760   0.00000  Uiso   1.00
N273   N     0.44737   0.43736   0.26391   0.00000  Uiso   1.00
N274   N     0.44574   0.38510   0.89798   0.00000  Uiso   1.00
N275   N     0.88790   0.29621   0.10696   0.00000  Uiso   1.00
N276   N     0.40005   0.34007   0.20327   0.00000  Uiso   1.00
C277   C     0.79953   0.81126   0.47581   0.00000  Uiso   1.00
C278   C     0.81800   0.87597   0.48664   0.00000  Uiso   1.00
C279   C     0.78077   0.89711   0.44719   0.00000  Uiso   1.00
C280   C     0.80619   0.95783   0.46541   0.00000  Uiso   1.00
C281   C     0.82563   0.05252   0.47377   0.00000  Uiso   1.00
C282   C     0.77014   0.81691   0.52833   0.00000  Uiso   1.00
C283   C     0.69267   0.78839   0.52394   0.00000  Uiso   1.00
C284   C     0.67781   0.79939   0.57726   0.00000  Uiso   1.00
C285   C     0.62298   0.80235   0.65034   0.00000  Uiso   1.00
C286   C     0.88678   0.78902   0.48272   0.00000  Uiso   1.00
C287   C     0.90737   0.73704   0.43998   0.00000  Uiso   1.00
C288   C     0.99071   0.72455   0.45490   0.00000  Uiso   1.00
C289   C     0.11697   0.68422   0.45716   0.00000  Uiso   1.00
C290   C     0.91091   0.88149   0.57833   0.00000  Uiso   1.00
C291   C     0.87849   0.91411   0.54232   0.00000  Uiso   1.00
C292   C     0.90399   0.97482   0.56061   0.00000  Uiso   1.00
C293   C     0.86680   0.99605   0.52119   0.00000  Uiso   1.00
C294   C     0.83063   0.85505   0.58401   0.00000  Uiso   1.00
C295   C     0.81589   0.86609   0.63735   0.00000  Uiso   1.00
C296   C     0.73842   0.83760   0.63304   0.00000  Uiso   1.00
C297   C     0.94727   0.82717   0.53840   0.00000  Uiso   1.00
C298   C     0.03059   0.81475   0.55340   0.00000  Uiso   1.00
C299   C     0.05131   0.76277   0.51068   0.00000  Uiso   1.00
H300   H     0.75243   0.78155   0.43247   0.00000  Uiso   1.00
H301   H     0.73394   0.86758   0.40411   0.00000  Uiso   1.00
H302   H     0.64587   0.75887   0.48084   0.00000  Uiso   1.00
H303   H     0.86054   0.70753   0.39690   0.00000  Uiso   1.00
H304   H     0.74010   0.97978   0.39723   0.00000  Uiso   1.00
H305   H     0.55440   0.75054   0.55903   0.00000  Uiso   1.00
H306   H     0.00707   0.64229   0.38201   0.00000  Uiso   1.00
H307   H     0.95801   0.91119   0.62168   0.00000  Uiso   1.00
H308   H     0.95080   0.00433   0.60370   0.00000  Uiso   1.00
H309   H     0.86272   0.89562   0.68043   0.00000  Uiso   1.00
H310   H     0.07739   0.84428   0.59649   0.00000  Uiso   1.00
H311   H     0.91611   0.09077   0.55923   0.00000  Uiso   1.00
H312   H     0.73041   0.86153   0.72102   0.00000  Uiso   1.00
H313   H     0.18308   0.75329   0.54401   0.00000  Uiso   1.00
O314   O     0.81963   0.09421   0.46300   0.00000  Uiso   1.00
O315   O     0.57601   0.79344   0.67526   0.00000  Uiso   1.00
O316   O     0.16990   0.65143   0.44302   0.00000  Uiso   1.00
N317   N     0.78253   0.99311   0.43782   0.00000  Uiso   1.00
N318   N     0.60890   0.77880   0.58909   0.00000  Uiso   1.00
N319   N     0.03210   0.67759   0.42360   0.00000  Uiso   1.00
N320   N     0.87724   0.05284   0.52499   0.00000  Uiso   1.00
N321   N     0.70361   0.83852   0.67626   0.00000  Uiso   1.00
N322   N     0.12681   0.73731   0.51077   0.00000  Uiso   1.00
C323   C     0.08303   0.52192   0.14142   0.00000  Uiso   1.00
C324   C     0.12529   0.50881   0.19238   0.00000  Uiso   1.00
C325   C     0.13215   0.54581   0.25246   0.00000  Uiso   1.00
C326   C     0.17309   0.52577   0.29214   0.00000  Uiso   1.00
C327   C     0.23366   0.51378   0.37428   0.00000  Uiso   1.00
C328   C     0.01347   0.46723   0.09609   0.00000  Uiso   1.00
C329   C     0.92632   0.46927   0.07519   0.00000  Uiso   1.00
C330   C     0.87313   0.41422   0.03380   0.00000  Uiso   1.00
C331   C     0.76012   0.33769   0.96640   0.00000  Uiso   1.00
C332   C     0.15178   0.52023   0.11086   0.00000  Uiso   1.00
C333   C     0.18092   0.56683   0.10237   0.00000  Uiso   1.00
C334   C     0.24417   0.55640   0.07340   0.00000  Uiso   1.00
C335   C     0.34591   0.56216   0.02894   0.00000  Uiso   1.00
C336   C     0.14352   0.42055   0.10505   0.00000  Uiso   1.00
C337   C     0.15814   0.45375   0.17263   0.00000  Uiso   1.00
C338   C     0.19908   0.43365   0.21223   0.00000  Uiso   1.00
C339   C     0.20600   0.47061   0.27235   0.00000  Uiso   1.00
C340   C     0.04632   0.41217   0.07633   0.00000  Uiso   1.00
C341   C     0.99325   0.35711   0.03496   0.00000  Uiso   1.00
C342   C     0.90604   0.35906   0.01401   0.00000  Uiso   1.00
C343   C     0.18464   0.46517   0.09111   0.00000  Uiso   1.00
C344   C     0.24785   0.45467   0.06214   0.00000  Uiso   1.00
C345   C     0.27708   0.50125   0.05361   0.00000  Uiso   1.00
H346   H     0.05745   0.56478   0.15679   0.00000  Uiso   1.00
H347   H     0.10671   0.58841   0.26773   0.00000  Uiso   1.00
H348   H     0.90092   0.51188   0.09048   0.00000  Uiso   1.00
H349   H     0.15548   0.60943   0.11766   0.00000  Uiso   1.00
H350   H     0.17579   0.59032   0.38201   0.00000  Uiso   1.00
H351   H     0.74187   0.42896   0.00826   0.00000  Uiso   1.00
H352   H     0.27866   0.63465   0.06557   0.00000  Uiso   1.00
H353   H     0.16910   0.37768   0.08967   0.00000  Uiso   1.00
H354   H     0.22450   0.39104   0.19693   0.00000  Uiso   1.00
H355   H     0.01870   0.31451   0.01968   0.00000  Uiso   1.00
H356   H     0.27326   0.41206   0.04686   0.00000  Uiso   1.00
H357   H     0.27138   0.43013   0.32454   0.00000  Uiso   1.00
H358   H     0.83746   0.26876   0.95079   0.00000  Uiso   1.00
H359   H     0.37425   0.47446   0.00810   0.00000  Uiso   1.00
O360   O     0.25798   0.52238   0.42504   0.00000  Uiso   1.00
O361   O     0.68870   0.31068   0.93469   0.00000  Uiso   1.00
O362   O     0.39296   0.58055   0.00988   0.00000  Uiso   1.00
N363   N     0.19070   0.55079   0.35376   0.00000  Uiso   1.00
N364   N     0.78501   0.39992   0.00434   0.00000  Uiso   1.00
N365   N     0.28684   0.59223   0.05790   0.00000  Uiso   1.00
N366   N     0.24214   0.46459   0.32284   0.00000  Uiso   1.00
N367   N     0.83645   0.31372   0.97342   0.00000  Uiso   1.00
N368   N     0.33828   0.50603   0.02698   0.00000  Uiso   1.00
C369   C     0.21676   0.81276   0.12454   0.00000  Uiso   1.00
C370   C     0.20800   0.75808   0.06344   0.00000  Uiso   1.00
C371   C     0.16587   0.70000   0.04218   0.00000  Uiso   1.00
C372   C     0.16501   0.65624   0.98509   0.00000  Uiso   1.00
C373   C     0.14532   0.56923   0.89547   0.00000  Uiso   1.00
C374   C     0.17907   0.86224   0.11196   0.00000  Uiso   1.00
C375   C     0.11263   0.89172   0.13150   0.00000  Uiso   1.00
C376   C     0.08742   0.93564   0.11525   0.00000  Uiso   1.00
C377   C     0.02286   0.01037   0.10098   0.00000  Uiso   1.00
C378   C     0.31348   0.83550   0.15465   0.00000  Uiso   1.00
C379   C     0.36004   0.84252   0.21010   0.00000  Uiso   1.00
C380   C     0.44799   0.86395   0.22981   0.00000  Uiso   1.00
C381   C     0.59210   0.89716   0.28183   0.00000  Uiso   1.00
C382   C     0.29014   0.83835   0.06096   0.00000  Uiso   1.00
C383   C     0.24786   0.77198   0.02891   0.00000  Uiso   1.00
C384   C     0.24707   0.72830   0.97184   0.00000  Uiso   1.00
C385   C     0.20494   0.67016   0.95050   0.00000  Uiso   1.00
C386   C     0.21893   0.87613   0.07743   0.00000  Uiso   1.00
C387   C     0.19382   0.92003   0.06116   0.00000  Uiso   1.00
C388   C     0.12735   0.94957   0.08066   0.00000  Uiso   1.00
C389   C     0.35334   0.84939   0.12012   0.00000  Uiso   1.00
C390   C     0.44123   0.87082   0.13975   0.00000  Uiso   1.00
C391   C     0.48792   0.87787   0.19521   0.00000  Uiso   1.00
H392   H     0.18572   0.80195   0.15142   0.00000  Uiso   1.00
H393   H     0.13503   0.68926   0.06892   0.00000  Uiso   1.00
H394   H     0.08180   0.88096   0.15822   0.00000  Uiso   1.00
H395   H     0.32917   0.83176   0.23680   0.00000  Uiso   1.00
H396   H     0.09637   0.57047   0.96220   0.00000  Uiso   1.00
H397   H     0.98416   0.97469   0.15053   0.00000  Uiso   1.00
H398   H     0.50579   0.87095   0.31624   0.00000  Uiso   1.00
H399   H     0.32118   0.84917   0.03408   0.00000  Uiso   1.00
H400   H     0.27792   0.73907   0.94513   0.00000  Uiso   1.00
H401   H     0.22468   0.93077   0.03444   0.00000  Uiso   1.00
H402   H     0.47205   0.88157   0.11302   0.00000  Uiso   1.00
H403   H     0.21234   0.61089   0.86173   0.00000  Uiso   1.00
H404   H     0.10013   0.01512   0.05006   0.00000  Uiso   1.00
H405   H     0.62176   0.91137   0.21577   0.00000  Uiso   1.00
O406   O     0.12343   0.51741   0.85556   0.00000  Uiso   1.00
O407   O     0.97622   0.04774   0.10265   0.00000  Uiso   1.00
O408   O     0.66058   0.91163   0.32005   0.00000  Uiso   1.00
N409   N     0.12962   0.59509   0.95077   0.00000  Uiso   1.00
N410   N     0.02469   0.97300   0.12683   0.00000  Uiso   1.00
N411   N     0.51237   0.87603   0.28177   0.00000  Uiso   1.00
N412   N     0.19202   0.61684   0.89671   0.00000  Uiso   1.00
N413   N     0.08710   0.99476   0.07277   0.00000  Uiso   1.00
N414   N     0.57477   0.89778   0.22770   0.00000  Uiso   1.00
C415   C     0.58781   0.17723   0.24076   0.00000  Uiso   1.00
C416   C     0.61277   0.24234   0.25451   0.00000  Uiso   1.00
C417   C     0.61863   0.29448   0.30797   0.00000  Uiso   1.00
C418   C     0.64246   0.34978   0.31169   0.00000  Uiso   1.00
C419   C     0.67854   0.45041   0.34034   0.00000  Uiso   1.00
C420   C     0.51047   0.14929   0.18426   0.00000  Uiso   1.00
C421   C     0.43031   0.12319   0.17865   0.00000  Uiso   1.00
C422   C     0.36803   0.10015   0.12322   0.00000  Uiso   1.00
C423   C     0.24530   0.05628   0.04279   0.00000  Uiso   1.00
C424   C     0.66205   0.14383   0.22289   0.00000  Uiso   1.00
C425   C     0.70934   0.11312   0.24975   0.00000  Uiso   1.00
C426   C     0.77467   0.08547   0.22684   0.00000  Uiso   1.00
C427   C     0.88730   0.03313   0.20639   0.00000  Uiso   1.00
C428   C     0.61972   0.18270   0.15230   0.00000  Uiso   1.00
C429   C     0.63010   0.24530   0.20646   0.00000  Uiso   1.00
C430   C     0.65393   0.30053   0.21010   0.00000  Uiso   1.00
C431   C     0.65983   0.35275   0.26356   0.00000  Uiso   1.00
C432   C     0.52779   0.15225   0.13621   0.00000  Uiso   1.00
C433   C     0.46562   0.12924   0.08078   0.00000  Uiso   1.00
C434   C     0.38539   0.10312   0.07509   0.00000  Uiso   1.00
C435   C     0.67938   0.14680   0.17484   0.00000  Uiso   1.00
C436   C     0.74465   0.11918   0.15188   0.00000  Uiso   1.00
C437   C     0.79203   0.08845   0.17870   0.00000  Uiso   1.00
H438   H     0.57431   0.17492   0.27817   0.00000  Uiso   1.00
H439   H     0.60521   0.29217   0.34515   0.00000  Uiso   1.00
H440   H     0.41693   0.12090   0.21584   0.00000  Uiso   1.00
H441   H     0.69591   0.11084   0.28693   0.00000  Uiso   1.00
H442   H     0.64707   0.42347   0.39821   0.00000  Uiso   1.00
H443   H     0.25008   0.06232   0.12555   0.00000  Uiso   1.00
H444   H     0.83838   0.04110   0.27546   0.00000  Uiso   1.00
H445   H     0.63321   0.18501   0.11489   0.00000  Uiso   1.00
H446   H     0.66734   0.30282   0.17291   0.00000  Uiso   1.00
H447   H     0.47905   0.13154   0.04361   0.00000  Uiso   1.00
H448   H     0.75804   0.12149   0.11470   0.00000  Uiso   1.00
H449   H     0.69749   0.43211   0.25841   0.00000  Uiso   1.00
H450   H     0.30050   0.07096   0.98576   0.00000  Uiso   1.00
H451   H     0.88880   0.04974   0.13567   0.00000  Uiso   1.00
O452   O     0.69364   0.50510   0.36942   0.00000  Uiso   1.00
O453   O     0.17281   0.03128   0.01170   0.00000  Uiso   1.00
O454   O     0.94464   0.00345   0.20838   0.00000  Uiso   1.00
N455   N     0.65427   0.40933   0.35735   0.00000  Uiso   1.00
N456   N     0.28310   0.07169   0.10243   0.00000  Uiso   1.00
N457   N     0.83310   0.05184   0.24258   0.00000  Uiso   1.00
N458   N     0.68140   0.41398   0.28213   0.00000  Uiso   1.00
N459   N     0.31023   0.07634   0.02721   0.00000  Uiso   1.00
N460   N     0.86023   0.05649   0.16736   0.00000  Uiso   1.00
C461   C     0.33655   0.26511   0.72481   0.00000  Uiso   1.00
C462   C     0.32826   0.20145   0.67261   0.00000  Uiso   1.00
C463   C     0.27228   0.17882   0.61503   0.00000  Uiso   1.00
C464   C     0.27448   0.11943   0.57366   0.00000  Uiso   1.00
C465   C     0.25304   0.02597   0.49024   0.00000  Uiso   1.00
C466   C     0.32088   0.25617   0.77513   0.00000  Uiso   1.00
C467   C     0.25870   0.27956   0.80375   0.00000  Uiso   1.00
C468   C     0.25470   0.26624   0.84868   0.00000  Uiso   1.00
C469   C     0.22184   0.25776   0.92444   0.00000  Uiso   1.00
C470   C     0.43139   0.29301   0.74650   0.00000  Uiso   1.00
C471   C     0.46214   0.34738   0.75107   0.00000  Uiso   1.00
C472   C     0.55118   0.36509   0.77191   0.00000  Uiso   1.00
C473   C     0.68991   0.41381   0.80322   0.00000  Uiso   1.00
C474   C     0.44001   0.19989   0.75373   0.00000  Uiso   1.00
C475   C     0.38446   0.16603   0.68832   0.00000  Uiso   1.00
C476   C     0.38675   0.10666   0.64703   0.00000  Uiso   1.00
C477   C     0.33078   0.08394   0.58940   0.00000  Uiso   1.00
C478   C     0.37707   0.22075   0.79084   0.00000  Uiso   1.00
C479   C     0.37317   0.20740   0.83574   0.00000  Uiso   1.00
C480   C     0.31100   0.23075   0.86442   0.00000  Uiso   1.00
C481   C     0.48759   0.25759   0.76221   0.00000  Uiso   1.00
C482   C     0.57660   0.27522   0.78306   0.00000  Uiso   1.00
C483   C     0.60748   0.32960   0.78765   0.00000  Uiso   1.00
H484   H     0.29280   0.29270   0.71258   0.00000  Uiso   1.00
H485   H     0.22880   0.20625   0.60290   0.00000  Uiso   1.00
H486   H     0.21523   0.30697   0.79159   0.00000  Uiso   1.00
H487   H     0.41863   0.37478   0.73891   0.00000  Uiso   1.00
H488   H     0.18261   0.09478   0.48822   0.00000  Uiso   1.00
H489   H     0.15401   0.30718   0.88610   0.00000  Uiso   1.00
H490   H     0.58293   0.45017   0.77502   0.00000  Uiso   1.00
H491   H     0.48376   0.17231   0.76596   0.00000  Uiso   1.00
H492   H     0.43024   0.07926   0.65920   0.00000  Uiso   1.00
H493   H     0.41667   0.17998   0.84789   0.00000  Uiso   1.00
H494   H     0.62007   0.24779   0.79521   0.00000  Uiso   1.00
H495   H     0.34610   0.99171   0.53392   0.00000  Uiso   1.00
H496   H     0.31751   0.20411   0.93180   0.00000  Uiso   1.00
H497   H     0.74642   0.34710   0.82071   0.00000  Uiso   1.00
O498   O     0.22568   0.98420   0.43988   0.00000  Uiso   1.00
O499   O     0.18818   0.26287   0.96189   0.00000  Uiso   1.00
O500   O     0.75090   0.45046   0.81615   0.00000  Uiso   1.00
N501   N     0.22844   0.08330   0.51362   0.00000  Uiso   1.00
N502   N     0.20170   0.28187   0.88561   0.00000  Uiso   1.00
N503   N     0.60270   0.41556   0.78177   0.00000  Uiso   1.00
N504   N     0.31642   0.02783   0.53821   0.00000  Uiso   1.00
N505   N     0.28967   0.22641   0.91020   0.00000  Uiso   1.00
N506   N     0.69067   0.36010   0.80636   0.00000  Uiso   1.00
C507   C     0.42749   0.51493   0.64587   0.00000  Uiso   1.00
C508   C     0.47632   0.53654   0.71149   0.00000  Uiso   1.00
C509   C     0.44775   0.52322   0.75021   0.00000  Uiso   1.00
C510   C     0.50189   0.54733   0.80854   0.00000  Uiso   1.00
C511   C     0.56554   0.57542   0.90757   0.00000  Uiso   1.00
C512   C     0.41865   0.57223   0.63980   0.00000  Uiso   1.00
C513   C     0.34159   0.58891   0.61822   0.00000  Uiso   1.00
C514   C     0.34720   0.64306   0.61620   0.00000  Uiso   1.00
C515   C     0.32133   0.72653   0.60388   0.00000  Uiso   1.00
C516   C     0.48823   0.48160   0.61014   0.00000  Uiso   1.00
C517   C     0.46966   0.42207   0.56362   0.00000  Uiso   1.00
C518   C     0.53384   0.39991   0.53662   0.00000  Uiso   1.00
C519   C     0.61599   0.34266   0.47825   0.00000  Uiso   1.00
C520   C     0.57447   0.58143   0.68063   0.00000  Uiso   1.00
C521   C     0.55615   0.57267   0.73037   0.00000  Uiso   1.00
C522   C     0.61035   0.59680   0.78866   0.00000  Uiso   1.00
C523   C     0.58187   0.58351   0.82745   0.00000  Uiso   1.00
C524   C     0.49848   0.60835   0.65867   0.00000  Uiso   1.00
C525   C     0.50420   0.66249   0.65668   0.00000  Uiso   1.00
C526   C     0.42718   0.67925   0.63511   0.00000  Uiso   1.00
C527   C     0.56806   0.51772   0.62902   0.00000  Uiso   1.00
C528   C     0.63228   0.49565   0.60208   0.00000  Uiso   1.00
C529   C     0.61382   0.43610   0.55553   0.00000  Uiso   1.00
H530   H     0.36534   0.48681   0.63117   0.00000  Uiso   1.00
H531   H     0.38596   0.49527   0.73558   0.00000  Uiso   1.00
H532   H     0.27983   0.56094   0.60361   0.00000  Uiso   1.00
H533   H     0.40788   0.39413   0.54902   0.00000  Uiso   1.00
H534   H     0.44401   0.52060   0.85967   0.00000  Uiso   1.00
H535   H     0.22023   0.65906   0.58139   0.00000  Uiso   1.00
H536   H     0.49025   0.30731   0.46627   0.00000  Uiso   1.00
H537   H     0.63662   0.60956   0.69532   0.00000  Uiso   1.00
H538   H     0.67213   0.62475   0.80325   0.00000  Uiso   1.00
H539   H     0.56599   0.69043   0.67129   0.00000  Uiso   1.00
H540   H     0.69404   0.52362   0.61670   0.00000  Uiso   1.00
H541   H     0.67627   0.62569   0.91459   0.00000  Uiso   1.00
H542   H     0.45249   0.76416   0.63631   0.00000  Uiso   1.00
H543   H     0.72251   0.41240   0.52120   0.00000  Uiso   1.00
O544   O     0.57859   0.58094   0.95698   0.00000  Uiso   1.00
O545   O     0.28500   0.76260   0.59187   0.00000  Uiso   1.00
O546   O     0.63926   0.30110   0.44085   0.00000  Uiso   1.00
N547   N     0.49381   0.54323   0.85778   0.00000  Uiso   1.00
N548   N     0.28458   0.67270   0.59761   0.00000  Uiso   1.00
N549   N     0.53702   0.34384   0.48998   0.00000  Uiso   1.00
N550   N     0.61879   0.59978   0.88733   0.00000  Uiso   1.00
N551   N     0.40956   0.72925   0.62717   0.00000  Uiso   1.00
N552   N     0.66200   0.40039   0.51953   0.00000  Uiso   1.00
