data_job_02461
_audit_creation_date              2018-12-19
_audit_creation_method            'Materials Studio'
_symmetry_space_group_name_H-M    'P1'
_symmetry_Int_Tables_number       1
_symmetry_cell_setting            triclinic
loop_
_symmetry_equiv_pos_as_xyz
  x,y,z
_cell_length_a                    20.0857
_cell_length_b                    14.3161
_cell_length_c                    21.8531
_cell_angle_alpha                 90.0000
_cell_angle_beta                  90.0000
_cell_angle_gamma                 90.0000
loop_
_atom_site_label
_atom_site_type_symbol
_atom_site_fract_x
_atom_site_fract_y
_atom_site_fract_z
_atom_site_U_iso_or_equiv
_atom_site_adp_type
_atom_site_occupancy
C1     C     0.00073   0.51695   0.17328   0.00000  Uiso   1.00
C2     C     0.99466   0.48605   0.23982   0.00000  Uiso   1.00
C3     C     0.96060   0.53343   0.28553   0.00000  Uiso   1.00
C4     C     0.96093   0.49367   0.34348   0.00000  Uiso   1.00
C5     C     0.94648   0.45850   0.44503   0.00000  Uiso   1.00
C6     C     0.07514   0.52262   0.15993   0.00000  Uiso   1.00
C7     C     0.10873   0.60073   0.13845   0.00000  Uiso   1.00
C8     C     0.17681   0.59174   0.12913   0.00000  Uiso   1.00
C9     C     0.28730   0.61333   0.10660   0.00000  Uiso   1.00
C10    C     0.97431   0.43608   0.13491   0.00000  Uiso   1.00
C11    C     0.92314   0.44144   0.09238   0.00000  Uiso   1.00
C12    C     0.90634   0.35959   0.06198   0.00000  Uiso   1.00
C13    C     0.86028   0.24682   0.00060   0.00000  Uiso   1.00
C14    C     0.06190   0.36210   0.19491   0.00000  Uiso   1.00
C15    C     0.02789   0.40194   0.25157   0.00000  Uiso   1.00
C16    C     0.02827   0.36210   0.30946   0.00000  Uiso   1.00
C17    C     0.99421   0.40940   0.35525   0.00000  Uiso   1.00
C18    C     0.10836   0.43851   0.17168   0.00000  Uiso   1.00
C19    C     0.17641   0.42940   0.16238   0.00000  Uiso   1.00
C20    C     0.21010   0.50748   0.14090   0.00000  Uiso   1.00
C21    C     0.00754   0.35197   0.14665   0.00000  Uiso   1.00
C22    C     0.99082   0.27010   0.11631   0.00000  Uiso   1.00
C23    C     0.93963   0.27533   0.07375   0.00000  Uiso   1.00
H24    H     0.97487   0.58244   0.16413   0.00000  Uiso   1.00
H25    H     0.93490   0.59852   0.27642   0.00000  Uiso   1.00
H26    H     0.08301   0.66581   0.12936   0.00000  Uiso   1.00
H27    H     0.89744   0.50654   0.08330   0.00000  Uiso   1.00
H28    H     0.90525   0.57928   0.40611   0.00000  Uiso   1.00
H29    H     0.21755   0.72115   0.09599   0.00000  Uiso   1.00
H30    H     0.82625   0.38529   0.99886   0.00000  Uiso   1.00
H31    H     0.08777   0.29661   0.20405   0.00000  Uiso   1.00
H32    H     0.05399   0.29701   0.31854   0.00000  Uiso   1.00
H33    H     0.20210   0.36430   0.17148   0.00000  Uiso   1.00
H34    H     0.01654   0.20503   0.12542   0.00000  Uiso   1.00
H35    H     0.00191   0.33456   0.44029   0.00000  Uiso   1.00
H36    H     0.31421   0.47643   0.13018   0.00000  Uiso   1.00
H37    H     0.92291   0.14057   0.03305   0.00000  Uiso   1.00
O38    O     0.92934   0.46235   0.49780   0.00000  Uiso   1.00
O39    O     0.33906   0.64847   0.09093   0.00000  Uiso   1.00
O40    O     0.82569   0.20784   0.96350   0.00000  Uiso   1.00
N41    N     0.93262   0.52162   0.39844   0.00000  Uiso   1.00
N42    N     0.22461   0.65426   0.10851   0.00000  Uiso   1.00
N43    N     0.85879   0.34027   0.01769   0.00000  Uiso   1.00
N44    N     0.98464   0.38994   0.41683   0.00000  Uiso   1.00
N45    N     0.27662   0.52258   0.12691   0.00000  Uiso   1.00
N46    N     0.91080   0.20859   0.03608   0.00000  Uiso   1.00
C47    C     0.49927   0.48305   0.67328   0.00000  Uiso   1.00
C48    C     0.50534   0.51395   0.73982   0.00000  Uiso   1.00
C49    C     0.53940   0.46657   0.78553   0.00000  Uiso   1.00
C50    C     0.53907   0.50633   0.84348   0.00000  Uiso   1.00
C51    C     0.55352   0.54150   0.94503   0.00000  Uiso   1.00
C52    C     0.42486   0.47738   0.65993   0.00000  Uiso   1.00
C53    C     0.39127   0.39927   0.63845   0.00000  Uiso   1.00
C54    C     0.32319   0.40826   0.62913   0.00000  Uiso   1.00
C55    C     0.21270   0.38667   0.60660   0.00000  Uiso   1.00
C56    C     0.52569   0.56392   0.63491   0.00000  Uiso   1.00
C57    C     0.57686   0.55856   0.59238   0.00000  Uiso   1.00
C58    C     0.59366   0.64041   0.56198   0.00000  Uiso   1.00
C59    C     0.63972   0.75318   0.50060   0.00000  Uiso   1.00
C60    C     0.43810   0.63790   0.69491   0.00000  Uiso   1.00
C61    C     0.47211   0.59806   0.75157   0.00000  Uiso   1.00
C62    C     0.47173   0.63790   0.80946   0.00000  Uiso   1.00
C63    C     0.50579   0.59060   0.85525   0.00000  Uiso   1.00
C64    C     0.39164   0.56149   0.67168   0.00000  Uiso   1.00
C65    C     0.32359   0.57060   0.66238   0.00000  Uiso   1.00
C66    C     0.28990   0.49252   0.64090   0.00000  Uiso   1.00
C67    C     0.49246   0.64803   0.64665   0.00000  Uiso   1.00
C68    C     0.50918   0.72990   0.61631   0.00000  Uiso   1.00
C69    C     0.56037   0.72467   0.57375   0.00000  Uiso   1.00
H70    H     0.52513   0.41756   0.66413   0.00000  Uiso   1.00
H71    H     0.56510   0.40148   0.77642   0.00000  Uiso   1.00
H72    H     0.41699   0.33419   0.62936   0.00000  Uiso   1.00
H73    H     0.60256   0.49346   0.58330   0.00000  Uiso   1.00
H74    H     0.59475   0.42072   0.90611   0.00000  Uiso   1.00
H75    H     0.28245   0.27885   0.59599   0.00000  Uiso   1.00
H76    H     0.67375   0.61471   0.49886   0.00000  Uiso   1.00
H77    H     0.41223   0.70339   0.70405   0.00000  Uiso   1.00
H78    H     0.44601   0.70299   0.81854   0.00000  Uiso   1.00
H79    H     0.29790   0.63570   0.67148   0.00000  Uiso   1.00
H80    H     0.48346   0.79497   0.62542   0.00000  Uiso   1.00
H81    H     0.49809   0.66544   0.94029   0.00000  Uiso   1.00
H82    H     0.18579   0.52357   0.63018   0.00000  Uiso   1.00
H83    H     0.57709   0.85943   0.53305   0.00000  Uiso   1.00
O84    O     0.57066   0.53765   0.99780   0.00000  Uiso   1.00
O85    O     0.16094   0.35153   0.59093   0.00000  Uiso   1.00
O86    O     0.67431   0.79216   0.46350   0.00000  Uiso   1.00
N87    N     0.56738   0.47838   0.89844   0.00000  Uiso   1.00
N88    N     0.27539   0.34574   0.60851   0.00000  Uiso   1.00
N89    N     0.64121   0.65973   0.51769   0.00000  Uiso   1.00
N90    N     0.51536   0.61006   0.91683   0.00000  Uiso   1.00
N91    N     0.22338   0.47742   0.62691   0.00000  Uiso   1.00
N92    N     0.58920   0.79141   0.53608   0.00000  Uiso   1.00
C93    C     0.99927   0.01695   0.32672   0.00000  Uiso   1.00
C94    C     0.00534   0.98605   0.26018   0.00000  Uiso   1.00
C95    C     0.03940   0.03343   0.21447   0.00000  Uiso   1.00
C96    C     0.03907   0.99367   0.15652   0.00000  Uiso   1.00
C97    C     0.05352   0.95850   0.05497   0.00000  Uiso   1.00
C98    C     0.92486   0.02262   0.34007   0.00000  Uiso   1.00
C99    C     0.89127   0.10073   0.36155   0.00000  Uiso   1.00
C100   C     0.82319   0.09174   0.37087   0.00000  Uiso   1.00
C101   C     0.71270   0.11333   0.39340   0.00000  Uiso   1.00
C102   C     0.02569   0.93608   0.36509   0.00000  Uiso   1.00
C103   C     0.07686   0.94144   0.40762   0.00000  Uiso   1.00
C104   C     0.09366   0.85959   0.43802   0.00000  Uiso   1.00
C105   C     0.13972   0.74682   0.49940   0.00000  Uiso   1.00
C106   C     0.93810   0.86210   0.30509   0.00000  Uiso   1.00
C107   C     0.97211   0.90194   0.24843   0.00000  Uiso   1.00
C108   C     0.97173   0.86210   0.19054   0.00000  Uiso   1.00
C109   C     0.00579   0.90940   0.14475   0.00000  Uiso   1.00
C110   C     0.89164   0.93851   0.32832   0.00000  Uiso   1.00
C111   C     0.82359   0.92940   0.33762   0.00000  Uiso   1.00
C112   C     0.78990   0.00748   0.35910   0.00000  Uiso   1.00
C113   C     0.99246   0.85197   0.35335   0.00000  Uiso   1.00
C114   C     0.00918   0.77010   0.38369   0.00000  Uiso   1.00
C115   C     0.06037   0.77533   0.42625   0.00000  Uiso   1.00
H116   H     0.02513   0.08244   0.33587   0.00000  Uiso   1.00
H117   H     0.06510   0.09852   0.22358   0.00000  Uiso   1.00
H118   H     0.91699   0.16581   0.37064   0.00000  Uiso   1.00
H119   H     0.10256   0.00654   0.41670   0.00000  Uiso   1.00
H120   H     0.09475   0.07928   0.09389   0.00000  Uiso   1.00
H121   H     0.78245   0.22115   0.40401   0.00000  Uiso   1.00
H122   H     0.17375   0.88529   0.50114   0.00000  Uiso   1.00
H123   H     0.91223   0.79661   0.29595   0.00000  Uiso   1.00
H124   H     0.94601   0.79701   0.18146   0.00000  Uiso   1.00
H125   H     0.79790   0.86430   0.32852   0.00000  Uiso   1.00
H126   H     0.98346   0.70503   0.37458   0.00000  Uiso   1.00
H127   H     0.99809   0.83456   0.05971   0.00000  Uiso   1.00
H128   H     0.68579   0.97643   0.36982   0.00000  Uiso   1.00
H129   H     0.07709   0.64057   0.46695   0.00000  Uiso   1.00
O130   O     0.07066   0.96235   0.00220   0.00000  Uiso   1.00
O131   O     0.66094   0.14847   0.40907   0.00000  Uiso   1.00
O132   O     0.17431   0.70784   0.53650   0.00000  Uiso   1.00
N133   N     0.06738   0.02162   0.10156   0.00000  Uiso   1.00
N134   N     0.77539   0.15426   0.39149   0.00000  Uiso   1.00
N135   N     0.14121   0.84027   0.48231   0.00000  Uiso   1.00
N136   N     0.01536   0.88994   0.08317   0.00000  Uiso   1.00
N137   N     0.72338   0.02258   0.37309   0.00000  Uiso   1.00
N138   N     0.08920   0.70859   0.46392   0.00000  Uiso   1.00
C139   C     0.50073   0.98305   0.82672   0.00000  Uiso   1.00
C140   C     0.49466   0.01395   0.76018   0.00000  Uiso   1.00
C141   C     0.46060   0.96657   0.71447   0.00000  Uiso   1.00
C142   C     0.46093   0.00633   0.65652   0.00000  Uiso   1.00
C143   C     0.44648   0.04150   0.55497   0.00000  Uiso   1.00
C144   C     0.57514   0.97738   0.84007   0.00000  Uiso   1.00
C145   C     0.60873   0.89927   0.86155   0.00000  Uiso   1.00
C146   C     0.67681   0.90826   0.87087   0.00000  Uiso   1.00
C147   C     0.78730   0.88667   0.89340   0.00000  Uiso   1.00
C148   C     0.47431   0.06392   0.86509   0.00000  Uiso   1.00
C149   C     0.42314   0.05856   0.90762   0.00000  Uiso   1.00
C150   C     0.40634   0.14041   0.93802   0.00000  Uiso   1.00
C151   C     0.36028   0.25318   0.99940   0.00000  Uiso   1.00
C152   C     0.56190   0.13790   0.80509   0.00000  Uiso   1.00
C153   C     0.52789   0.09806   0.74843   0.00000  Uiso   1.00
C154   C     0.52827   0.13790   0.69054   0.00000  Uiso   1.00
C155   C     0.49421   0.09060   0.64475   0.00000  Uiso   1.00
C156   C     0.60836   0.06149   0.82832   0.00000  Uiso   1.00
C157   C     0.67641   0.07060   0.83762   0.00000  Uiso   1.00
C158   C     0.71010   0.99252   0.85910   0.00000  Uiso   1.00
C159   C     0.50754   0.14803   0.85335   0.00000  Uiso   1.00
C160   C     0.49082   0.22990   0.88369   0.00000  Uiso   1.00
C161   C     0.43963   0.22467   0.92625   0.00000  Uiso   1.00
H162   H     0.47487   0.91756   0.83587   0.00000  Uiso   1.00
H163   H     0.43490   0.90148   0.72358   0.00000  Uiso   1.00
H164   H     0.58301   0.83419   0.87064   0.00000  Uiso   1.00
H165   H     0.39744   0.99346   0.91670   0.00000  Uiso   1.00
H166   H     0.40525   0.92072   0.59389   0.00000  Uiso   1.00
H167   H     0.71755   0.77885   0.90401   0.00000  Uiso   1.00
H168   H     0.32625   0.11471   0.00114   0.00000  Uiso   1.00
H169   H     0.58777   0.20339   0.79595   0.00000  Uiso   1.00
H170   H     0.55399   0.20299   0.68146   0.00000  Uiso   1.00
H171   H     0.70210   0.13570   0.82852   0.00000  Uiso   1.00
H172   H     0.51654   0.29497   0.87458   0.00000  Uiso   1.00
H173   H     0.50191   0.16544   0.55971   0.00000  Uiso   1.00
H174   H     0.81421   0.02357   0.86982   0.00000  Uiso   1.00
H175   H     0.42291   0.35943   0.96695   0.00000  Uiso   1.00
O176   O     0.42934   0.03765   0.50220   0.00000  Uiso   1.00
O177   O     0.83906   0.85153   0.90907   0.00000  Uiso   1.00
O178   O     0.32569   0.29216   0.03650   0.00000  Uiso   1.00
N179   N     0.43262   0.97838   0.60156   0.00000  Uiso   1.00
N180   N     0.72461   0.84574   0.89149   0.00000  Uiso   1.00
N181   N     0.35879   0.15973   0.98231   0.00000  Uiso   1.00
N182   N     0.48464   0.11006   0.58317   0.00000  Uiso   1.00
N183   N     0.77662   0.97742   0.87309   0.00000  Uiso   1.00
N184   N     0.41080   0.29141   0.96392   0.00000  Uiso   1.00
C185   C     0.99927   0.48305   0.82672   0.00000  Uiso   1.00
C186   C     0.00534   0.51395   0.76018   0.00000  Uiso   1.00
C187   C     0.03940   0.46657   0.71447   0.00000  Uiso   1.00
C188   C     0.03907   0.50633   0.65652   0.00000  Uiso   1.00
C189   C     0.05352   0.54150   0.55497   0.00000  Uiso   1.00
C190   C     0.92486   0.47738   0.84007   0.00000  Uiso   1.00
C191   C     0.89127   0.39927   0.86155   0.00000  Uiso   1.00
C192   C     0.82319   0.40826   0.87087   0.00000  Uiso   1.00
C193   C     0.71270   0.38667   0.89340   0.00000  Uiso   1.00
C194   C     0.02569   0.56392   0.86509   0.00000  Uiso   1.00
C195   C     0.07686   0.55856   0.90762   0.00000  Uiso   1.00
C196   C     0.09366   0.64041   0.93802   0.00000  Uiso   1.00
C197   C     0.13972   0.75318   0.99940   0.00000  Uiso   1.00
C198   C     0.93810   0.63790   0.80509   0.00000  Uiso   1.00
C199   C     0.97211   0.59806   0.74843   0.00000  Uiso   1.00
C200   C     0.97173   0.63790   0.69054   0.00000  Uiso   1.00
C201   C     0.00579   0.59060   0.64475   0.00000  Uiso   1.00
C202   C     0.89164   0.56149   0.82832   0.00000  Uiso   1.00
C203   C     0.82359   0.57060   0.83762   0.00000  Uiso   1.00
C204   C     0.78990   0.49252   0.85910   0.00000  Uiso   1.00
C205   C     0.99246   0.64803   0.85335   0.00000  Uiso   1.00
C206   C     0.00918   0.72990   0.88369   0.00000  Uiso   1.00
C207   C     0.06037   0.72467   0.92625   0.00000  Uiso   1.00
H208   H     0.02513   0.41756   0.83587   0.00000  Uiso   1.00
H209   H     0.06510   0.40148   0.72358   0.00000  Uiso   1.00
H210   H     0.91699   0.33419   0.87064   0.00000  Uiso   1.00
H211   H     0.10256   0.49346   0.91670   0.00000  Uiso   1.00
H212   H     0.09475   0.42072   0.59389   0.00000  Uiso   1.00
H213   H     0.78245   0.27885   0.90401   0.00000  Uiso   1.00
H214   H     0.17375   0.61471   0.00114   0.00000  Uiso   1.00
H215   H     0.91223   0.70339   0.79595   0.00000  Uiso   1.00
H216   H     0.94601   0.70299   0.68146   0.00000  Uiso   1.00
H217   H     0.79790   0.63570   0.82852   0.00000  Uiso   1.00
H218   H     0.98346   0.79497   0.87458   0.00000  Uiso   1.00
H219   H     0.99809   0.66544   0.55971   0.00000  Uiso   1.00
H220   H     0.68579   0.52357   0.86982   0.00000  Uiso   1.00
H221   H     0.07709   0.85943   0.96695   0.00000  Uiso   1.00
O222   O     0.07066   0.53765   0.50220   0.00000  Uiso   1.00
O223   O     0.66094   0.35153   0.90907   0.00000  Uiso   1.00
O224   O     0.17431   0.79216   0.03650   0.00000  Uiso   1.00
N225   N     0.06738   0.47838   0.60156   0.00000  Uiso   1.00
N226   N     0.77539   0.34574   0.89149   0.00000  Uiso   1.00
N227   N     0.14121   0.65973   0.98231   0.00000  Uiso   1.00
N228   N     0.01536   0.61006   0.58317   0.00000  Uiso   1.00
N229   N     0.72338   0.47742   0.87309   0.00000  Uiso   1.00
N230   N     0.08920   0.79141   0.96392   0.00000  Uiso   1.00
C231   C     0.50073   0.51695   0.32672   0.00000  Uiso   1.00
C232   C     0.49466   0.48605   0.26018   0.00000  Uiso   1.00
C233   C     0.46060   0.53343   0.21447   0.00000  Uiso   1.00
C234   C     0.46093   0.49367   0.15652   0.00000  Uiso   1.00
C235   C     0.44648   0.45850   0.05497   0.00000  Uiso   1.00
C236   C     0.57514   0.52262   0.34007   0.00000  Uiso   1.00
C237   C     0.60873   0.60073   0.36155   0.00000  Uiso   1.00
C238   C     0.67681   0.59174   0.37087   0.00000  Uiso   1.00
C239   C     0.78730   0.61333   0.39340   0.00000  Uiso   1.00
C240   C     0.47431   0.43608   0.36509   0.00000  Uiso   1.00
C241   C     0.42314   0.44144   0.40762   0.00000  Uiso   1.00
C242   C     0.40634   0.35959   0.43802   0.00000  Uiso   1.00
C243   C     0.36028   0.24682   0.49940   0.00000  Uiso   1.00
C244   C     0.56190   0.36210   0.30509   0.00000  Uiso   1.00
C245   C     0.52789   0.40194   0.24843   0.00000  Uiso   1.00
C246   C     0.52827   0.36210   0.19054   0.00000  Uiso   1.00
C247   C     0.49421   0.40940   0.14475   0.00000  Uiso   1.00
C248   C     0.60836   0.43851   0.32832   0.00000  Uiso   1.00
C249   C     0.67641   0.42940   0.33762   0.00000  Uiso   1.00
C250   C     0.71010   0.50748   0.35910   0.00000  Uiso   1.00
C251   C     0.50754   0.35197   0.35335   0.00000  Uiso   1.00
C252   C     0.49082   0.27010   0.38369   0.00000  Uiso   1.00
C253   C     0.43963   0.27533   0.42625   0.00000  Uiso   1.00
H254   H     0.47487   0.58244   0.33587   0.00000  Uiso   1.00
H255   H     0.43490   0.59852   0.22358   0.00000  Uiso   1.00
H256   H     0.58301   0.66581   0.37064   0.00000  Uiso   1.00
H257   H     0.39744   0.50654   0.41670   0.00000  Uiso   1.00
H258   H     0.40525   0.57928   0.09389   0.00000  Uiso   1.00
H259   H     0.71755   0.72115   0.40401   0.00000  Uiso   1.00
H260   H     0.32625   0.38529   0.50114   0.00000  Uiso   1.00
H261   H     0.58777   0.29661   0.29595   0.00000  Uiso   1.00
H262   H     0.55399   0.29701   0.18146   0.00000  Uiso   1.00
H263   H     0.70210   0.36430   0.32852   0.00000  Uiso   1.00
H264   H     0.51654   0.20503   0.37458   0.00000  Uiso   1.00
H265   H     0.50191   0.33456   0.05971   0.00000  Uiso   1.00
H266   H     0.81421   0.47643   0.36982   0.00000  Uiso   1.00
H267   H     0.42291   0.14057   0.46695   0.00000  Uiso   1.00
O268   O     0.42934   0.46235   0.00220   0.00000  Uiso   1.00
O269   O     0.83906   0.64847   0.40907   0.00000  Uiso   1.00
O270   O     0.32569   0.20784   0.53650   0.00000  Uiso   1.00
N271   N     0.43262   0.52162   0.10156   0.00000  Uiso   1.00
N272   N     0.72461   0.65426   0.39149   0.00000  Uiso   1.00
N273   N     0.35879   0.34027   0.48231   0.00000  Uiso   1.00
N274   N     0.48464   0.38994   0.08317   0.00000  Uiso   1.00
N275   N     0.77662   0.52258   0.37309   0.00000  Uiso   1.00
N276   N     0.41080   0.20859   0.46392   0.00000  Uiso   1.00
C277   C     0.00073   0.98305   0.67328   0.00000  Uiso   1.00
C278   C     0.99466   0.01395   0.73982   0.00000  Uiso   1.00
C279   C     0.96060   0.96657   0.78553   0.00000  Uiso   1.00
C280   C     0.96093   0.00633   0.84348   0.00000  Uiso   1.00
C281   C     0.94648   0.04150   0.94503   0.00000  Uiso   1.00
C282   C     0.07514   0.97738   0.65993   0.00000  Uiso   1.00
C283   C     0.10873   0.89927   0.63845   0.00000  Uiso   1.00
C284   C     0.17681   0.90826   0.62913   0.00000  Uiso   1.00
C285   C     0.28730   0.88667   0.60660   0.00000  Uiso   1.00
C286   C     0.97431   0.06392   0.63491   0.00000  Uiso   1.00
C287   C     0.92314   0.05856   0.59238   0.00000  Uiso   1.00
C288   C     0.90634   0.14041   0.56198   0.00000  Uiso   1.00
C289   C     0.86028   0.25318   0.50060   0.00000  Uiso   1.00
C290   C     0.06190   0.13790   0.69491   0.00000  Uiso   1.00
C291   C     0.02789   0.09806   0.75157   0.00000  Uiso   1.00
C292   C     0.02827   0.13790   0.80946   0.00000  Uiso   1.00
C293   C     0.99421   0.09060   0.85525   0.00000  Uiso   1.00
C294   C     0.10836   0.06149   0.67168   0.00000  Uiso   1.00
C295   C     0.17641   0.07060   0.66238   0.00000  Uiso   1.00
C296   C     0.21010   0.99252   0.64090   0.00000  Uiso   1.00
C297   C     0.00754   0.14803   0.64665   0.00000  Uiso   1.00
C298   C     0.99082   0.22990   0.61631   0.00000  Uiso   1.00
C299   C     0.93963   0.22467   0.57375   0.00000  Uiso   1.00
H300   H     0.97487   0.91756   0.66413   0.00000  Uiso   1.00
H301   H     0.93490   0.90148   0.77642   0.00000  Uiso   1.00
H302   H     0.08301   0.83419   0.62936   0.00000  Uiso   1.00
H303   H     0.89744   0.99346   0.58330   0.00000  Uiso   1.00
H304   H     0.90525   0.92072   0.90611   0.00000  Uiso   1.00
H305   H     0.21755   0.77885   0.59599   0.00000  Uiso   1.00
H306   H     0.82625   0.11471   0.49886   0.00000  Uiso   1.00
H307   H     0.08777   0.20339   0.70405   0.00000  Uiso   1.00
H308   H     0.05399   0.20299   0.81854   0.00000  Uiso   1.00
H309   H     0.20210   0.13570   0.67148   0.00000  Uiso   1.00
H310   H     0.01654   0.29497   0.62542   0.00000  Uiso   1.00
H311   H     0.00191   0.16544   0.94029   0.00000  Uiso   1.00
H312   H     0.31421   0.02357   0.63018   0.00000  Uiso   1.00
H313   H     0.92291   0.35943   0.53305   0.00000  Uiso   1.00
O314   O     0.92934   0.03765   0.99780   0.00000  Uiso   1.00
O315   O     0.33906   0.85153   0.59093   0.00000  Uiso   1.00
O316   O     0.82569   0.29216   0.46350   0.00000  Uiso   1.00
N317   N     0.93262   0.97838   0.89844   0.00000  Uiso   1.00
N318   N     0.22461   0.84574   0.60851   0.00000  Uiso   1.00
N319   N     0.85879   0.15973   0.51769   0.00000  Uiso   1.00
N320   N     0.98464   0.11006   0.91683   0.00000  Uiso   1.00
N321   N     0.27662   0.97742   0.62691   0.00000  Uiso   1.00
N322   N     0.91080   0.29141   0.53608   0.00000  Uiso   1.00
C323   C     0.49927   0.01695   0.17328   0.00000  Uiso   1.00
C324   C     0.50534   0.98605   0.23982   0.00000  Uiso   1.00
C325   C     0.53940   0.03343   0.28553   0.00000  Uiso   1.00
C326   C     0.53907   0.99367   0.34348   0.00000  Uiso   1.00
C327   C     0.55352   0.95850   0.44503   0.00000  Uiso   1.00
C328   C     0.42486   0.02262   0.15993   0.00000  Uiso   1.00
C329   C     0.39127   0.10073   0.13845   0.00000  Uiso   1.00
C330   C     0.32319   0.09174   0.12913   0.00000  Uiso   1.00
C331   C     0.21270   0.11333   0.10660   0.00000  Uiso   1.00
C332   C     0.52569   0.93608   0.13491   0.00000  Uiso   1.00
C333   C     0.57686   0.94144   0.09238   0.00000  Uiso   1.00
C334   C     0.59366   0.85959   0.06198   0.00000  Uiso   1.00
C335   C     0.63972   0.74682   0.00060   0.00000  Uiso   1.00
C336   C     0.43810   0.86210   0.19491   0.00000  Uiso   1.00
C337   C     0.47211   0.90194   0.25157   0.00000  Uiso   1.00
C338   C     0.47173   0.86210   0.30946   0.00000  Uiso   1.00
C339   C     0.50579   0.90940   0.35525   0.00000  Uiso   1.00
C340   C     0.39164   0.93851   0.17168   0.00000  Uiso   1.00
C341   C     0.32359   0.92940   0.16238   0.00000  Uiso   1.00
C342   C     0.28990   0.00748   0.14090   0.00000  Uiso   1.00
C343   C     0.49246   0.85197   0.14665   0.00000  Uiso   1.00
C344   C     0.50918   0.77010   0.11631   0.00000  Uiso   1.00
C345   C     0.56037   0.77533   0.07375   0.00000  Uiso   1.00
H346   H     0.52513   0.08244   0.16413   0.00000  Uiso   1.00
H347   H     0.56510   0.09852   0.27642   0.00000  Uiso   1.00
H348   H     0.41699   0.16581   0.12936   0.00000  Uiso   1.00
H349   H     0.60256   0.00654   0.08330   0.00000  Uiso   1.00
H350   H     0.59475   0.07928   0.40611   0.00000  Uiso   1.00
H351   H     0.28245   0.22115   0.09599   0.00000  Uiso   1.00
H352   H     0.67375   0.88529   0.99886   0.00000  Uiso   1.00
H353   H     0.41223   0.79661   0.20405   0.00000  Uiso   1.00
H354   H     0.44601   0.79701   0.31854   0.00000  Uiso   1.00
H355   H     0.29790   0.86430   0.17148   0.00000  Uiso   1.00
H356   H     0.48346   0.70503   0.12542   0.00000  Uiso   1.00
H357   H     0.49809   0.83456   0.44029   0.00000  Uiso   1.00
H358   H     0.18579   0.97643   0.13018   0.00000  Uiso   1.00
H359   H     0.57709   0.64057   0.03305   0.00000  Uiso   1.00
O360   O     0.57066   0.96235   0.49780   0.00000  Uiso   1.00
O361   O     0.16094   0.14847   0.09093   0.00000  Uiso   1.00
O362   O     0.67431   0.70784   0.96350   0.00000  Uiso   1.00
N363   N     0.56738   0.02162   0.39844   0.00000  Uiso   1.00
N364   N     0.27539   0.15426   0.10851   0.00000  Uiso   1.00
N365   N     0.64121   0.84027   0.01769   0.00000  Uiso   1.00
N366   N     0.51536   0.88994   0.41683   0.00000  Uiso   1.00
N367   N     0.22338   0.02258   0.12691   0.00000  Uiso   1.00
N368   N     0.58920   0.70859   0.03608   0.00000  Uiso   1.00
