data_job_02205
_audit_creation_date              2018-12-19
_audit_creation_method            'Materials Studio'
_symmetry_space_group_name_H-M    'P1'
_symmetry_Int_Tables_number       1
_symmetry_cell_setting            triclinic
loop_
_symmetry_equiv_pos_as_xyz
  x,y,z
_cell_length_a                    15.5207
_cell_length_b                    30.2396
_cell_length_c                    11.3304
_cell_angle_alpha                 90.0000
_cell_angle_beta                  150.5300
_cell_angle_gamma                 90.0000
loop_
_atom_site_label
_atom_site_type_symbol
_atom_site_fract_x
_atom_site_fract_y
_atom_site_fract_z
_atom_site_U_iso_or_equiv
_atom_site_adp_type
_atom_site_occupancy
C1     C     0.59445   0.15608   0.69137   0.00000  Uiso   1.00
C2     C     0.60238   0.11165   0.76430   0.00000  Uiso   1.00
C3     C     0.74402   0.09562   0.99693   0.00000  Uiso   1.00
C4     C     0.72541   0.05422   0.02620   0.00000  Uiso   1.00
C5     C     0.76129   0.98895   0.16930   0.00000  Uiso   1.00
C6     C     0.55056   0.14565   0.51071   0.00000  Uiso   1.00
C7     C     0.64862   0.15821   0.53012   0.00000  Uiso   1.00
C8     C     0.58636   0.14543   0.34590   0.00000  Uiso   1.00
C9     C     0.54172   0.13298   0.09522   0.00000  Uiso   1.00
C10    C     0.43516   0.18008   0.55124   0.00000  Uiso   1.00
C11    C     0.43617   0.22159   0.60469   0.00000  Uiso   1.00
C12    C     0.27674   0.23781   0.45456   0.00000  Uiso   1.00
C13    C     0.05293   0.27880   0.26681   0.00000  Uiso   1.00
C14    C     0.30951   0.11107   0.32967   0.00000  Uiso   1.00
C15    C     0.44761   0.08721   0.56783   0.00000  Uiso   1.00
C16    C     0.42877   0.04582   0.59675   0.00000  Uiso   1.00
C17    C     0.57036   0.02973   0.82939   0.00000  Uiso   1.00
C18    C     0.39579   0.12121   0.31425   0.00000  Uiso   1.00
C19    C     0.33336   0.10841   0.12995   0.00000  Uiso   1.00
C20    C     0.43131   0.12094   0.14908   0.00000  Uiso   1.00
C21    C     0.28038   0.15563   0.35478   0.00000  Uiso   1.00
C22    C     0.12092   0.17179   0.20452   0.00000  Uiso   1.00
C23    C     0.12169   0.21332   0.25774   0.00000  Uiso   1.00
H24    H     0.71495   0.17511   0.84431   0.00000  Uiso   1.00
H25    H     0.86378   0.11455   0.14892   0.00000  Uiso   1.00
H26    H     0.76838   0.17713   0.68216   0.00000  Uiso   1.00
H27    H     0.55597   0.24050   0.75673   0.00000  Uiso   1.00
H28    H     0.96056   0.03661   0.39998   0.00000  Uiso   1.00
H29    H     0.75937   0.16859   0.41577   0.00000  Uiso   1.00
H30    H     0.31146   0.30222   0.57300   0.00000  Uiso   1.00
H31    H     0.18901   0.09204   0.17671   0.00000  Uiso   1.00
H32    H     0.30898   0.02691   0.44469   0.00000  Uiso   1.00
H33    H     0.21358   0.08950   0.97794   0.00000  Uiso   1.00
H34    H     0.00117   0.15286   0.05251   0.00000  Uiso   1.00
H35    H     0.51027   0.96548   0.82840   0.00000  Uiso   1.00
H36    H     0.30907   0.09746   0.84419   0.00000  Uiso   1.00
H37    H     0.86117   0.23109   0.00143   0.00000  Uiso   1.00
O38    O     0.82385   0.95970   0.30251   0.00000  Uiso   1.00
O39    O     0.55988   0.13286   0.01125   0.00000  Uiso   1.00
O40    O     0.97223   0.30817   0.21755   0.00000  Uiso   1.00
N41    N     0.83811   0.02881   0.22868   0.00000  Uiso   1.00
N42    N     0.65002   0.15220   0.30853   0.00000  Uiso   1.00
N43    N     0.23125   0.27713   0.45549   0.00000  Uiso   1.00
N44    N     0.59581   0.99054   0.92112   0.00000  Uiso   1.00
N45    N     0.40772   0.11392   0.00097   0.00000  Uiso   1.00
N46    N     0.98895   0.23886   0.14793   0.00000  Uiso   1.00
C47    C     0.40555   0.65608   0.80863   0.00000  Uiso   1.00
C48    C     0.39762   0.61165   0.73570   0.00000  Uiso   1.00
C49    C     0.25598   0.59562   0.50307   0.00000  Uiso   1.00
C50    C     0.27459   0.55422   0.47380   0.00000  Uiso   1.00
C51    C     0.23871   0.48895   0.33070   0.00000  Uiso   1.00
C52    C     0.44944   0.64565   0.98929   0.00000  Uiso   1.00
C53    C     0.35138   0.65821   0.96988   0.00000  Uiso   1.00
C54    C     0.41364   0.64543   0.15410   0.00000  Uiso   1.00
C55    C     0.45828   0.63298   0.40478   0.00000  Uiso   1.00
C56    C     0.56484   0.68008   0.94876   0.00000  Uiso   1.00
C57    C     0.56383   0.72159   0.89531   0.00000  Uiso   1.00
C58    C     0.72326   0.73781   0.04544   0.00000  Uiso   1.00
C59    C     0.94707   0.77880   0.23319   0.00000  Uiso   1.00
C60    C     0.69049   0.61107   0.17033   0.00000  Uiso   1.00
C61    C     0.55239   0.58721   0.93217   0.00000  Uiso   1.00
C62    C     0.57123   0.54582   0.90325   0.00000  Uiso   1.00
C63    C     0.42964   0.52973   0.67061   0.00000  Uiso   1.00
C64    C     0.60421   0.62121   0.18575   0.00000  Uiso   1.00
C65    C     0.66664   0.60841   0.37005   0.00000  Uiso   1.00
C66    C     0.56869   0.62094   0.35092   0.00000  Uiso   1.00
C67    C     0.71962   0.65563   0.14522   0.00000  Uiso   1.00
C68    C     0.87908   0.67179   0.29548   0.00000  Uiso   1.00
C69    C     0.87831   0.71332   0.24226   0.00000  Uiso   1.00
H70    H     0.28505   0.67511   0.65569   0.00000  Uiso   1.00
H71    H     0.13622   0.61455   0.35108   0.00000  Uiso   1.00
H72    H     0.23162   0.67713   0.81784   0.00000  Uiso   1.00
H73    H     0.44403   0.74050   0.74327   0.00000  Uiso   1.00
H74    H     0.03944   0.53661   0.10002   0.00000  Uiso   1.00
H75    H     0.24063   0.66859   0.08423   0.00000  Uiso   1.00
H76    H     0.68854   0.80222   0.92700   0.00000  Uiso   1.00
H77    H     0.81099   0.59204   0.32329   0.00000  Uiso   1.00
H78    H     0.69102   0.52691   0.05531   0.00000  Uiso   1.00
H79    H     0.78642   0.58950   0.52206   0.00000  Uiso   1.00
H80    H     0.99883   0.65286   0.44749   0.00000  Uiso   1.00
H81    H     0.48973   0.46548   0.67160   0.00000  Uiso   1.00
H82    H     0.69093   0.59746   0.65581   0.00000  Uiso   1.00
H83    H     0.13883   0.73109   0.49857   0.00000  Uiso   1.00
O84    O     0.17615   0.45970   0.19749   0.00000  Uiso   1.00
O85    O     0.44012   0.63286   0.48875   0.00000  Uiso   1.00
O86    O     0.02777   0.80817   0.28245   0.00000  Uiso   1.00
N87    N     0.16189   0.52881   0.27132   0.00000  Uiso   1.00
N88    N     0.34998   0.65220   0.19147   0.00000  Uiso   1.00
N89    N     0.76875   0.77713   0.04451   0.00000  Uiso   1.00
N90    N     0.40419   0.49054   0.57888   0.00000  Uiso   1.00
N91    N     0.59228   0.61392   0.49903   0.00000  Uiso   1.00
N92    N     0.01105   0.73886   0.35207   0.00000  Uiso   1.00
C93    C     0.40555   0.84392   0.30863   0.00000  Uiso   1.00
C94    C     0.39762   0.88835   0.23570   0.00000  Uiso   1.00
C95    C     0.25598   0.90438   0.00307   0.00000  Uiso   1.00
C96    C     0.27459   0.94578   0.97380   0.00000  Uiso   1.00
C97    C     0.23871   0.01105   0.83070   0.00000  Uiso   1.00
C98    C     0.44944   0.85435   0.48929   0.00000  Uiso   1.00
C99    C     0.35138   0.84179   0.46988   0.00000  Uiso   1.00
C100   C     0.41364   0.85457   0.65410   0.00000  Uiso   1.00
C101   C     0.45828   0.86702   0.90478   0.00000  Uiso   1.00
C102   C     0.56484   0.81992   0.44876   0.00000  Uiso   1.00
C103   C     0.56383   0.77841   0.39531   0.00000  Uiso   1.00
C104   C     0.72326   0.76219   0.54544   0.00000  Uiso   1.00
C105   C     0.94707   0.72120   0.73319   0.00000  Uiso   1.00
C106   C     0.69049   0.88893   0.67033   0.00000  Uiso   1.00
C107   C     0.55239   0.91279   0.43217   0.00000  Uiso   1.00
C108   C     0.57123   0.95418   0.40325   0.00000  Uiso   1.00
C109   C     0.42964   0.97027   0.17061   0.00000  Uiso   1.00
C110   C     0.60421   0.87879   0.68575   0.00000  Uiso   1.00
C111   C     0.66664   0.89159   0.87005   0.00000  Uiso   1.00
C112   C     0.56869   0.87906   0.85092   0.00000  Uiso   1.00
C113   C     0.71962   0.84437   0.64522   0.00000  Uiso   1.00
C114   C     0.87908   0.82821   0.79548   0.00000  Uiso   1.00
C115   C     0.87831   0.78668   0.74226   0.00000  Uiso   1.00
H116   H     0.28505   0.82489   0.15569   0.00000  Uiso   1.00
H117   H     0.13622   0.88545   0.85108   0.00000  Uiso   1.00
H118   H     0.23162   0.82287   0.31784   0.00000  Uiso   1.00
H119   H     0.44403   0.75950   0.24327   0.00000  Uiso   1.00
H120   H     0.03944   0.96339   0.60002   0.00000  Uiso   1.00
H121   H     0.24063   0.83141   0.58423   0.00000  Uiso   1.00
H122   H     0.68854   0.69778   0.42700   0.00000  Uiso   1.00
H123   H     0.81099   0.90796   0.82329   0.00000  Uiso   1.00
H124   H     0.69102   0.97309   0.55531   0.00000  Uiso   1.00
H125   H     0.78642   0.91050   0.02206   0.00000  Uiso   1.00
H126   H     0.99883   0.84714   0.94749   0.00000  Uiso   1.00
H127   H     0.48973   0.03452   0.17160   0.00000  Uiso   1.00
H128   H     0.69093   0.90254   0.15581   0.00000  Uiso   1.00
H129   H     0.13883   0.76891   0.99857   0.00000  Uiso   1.00
O130   O     0.17615   0.04030   0.69749   0.00000  Uiso   1.00
O131   O     0.44012   0.86714   0.98875   0.00000  Uiso   1.00
O132   O     0.02777   0.69183   0.78245   0.00000  Uiso   1.00
N133   N     0.16189   0.97119   0.77132   0.00000  Uiso   1.00
N134   N     0.34998   0.84780   0.69147   0.00000  Uiso   1.00
N135   N     0.76875   0.72287   0.54451   0.00000  Uiso   1.00
N136   N     0.40419   0.00946   0.07888   0.00000  Uiso   1.00
N137   N     0.59228   0.88608   0.99903   0.00000  Uiso   1.00
N138   N     0.01105   0.76114   0.85207   0.00000  Uiso   1.00
C139   C     0.59445   0.34392   0.19137   0.00000  Uiso   1.00
C140   C     0.60238   0.38835   0.26430   0.00000  Uiso   1.00
C141   C     0.74402   0.40438   0.49693   0.00000  Uiso   1.00
C142   C     0.72541   0.44578   0.52620   0.00000  Uiso   1.00
C143   C     0.76129   0.51105   0.66930   0.00000  Uiso   1.00
C144   C     0.55056   0.35435   0.01071   0.00000  Uiso   1.00
C145   C     0.64862   0.34179   0.03012   0.00000  Uiso   1.00
C146   C     0.58636   0.35457   0.84590   0.00000  Uiso   1.00
C147   C     0.54172   0.36702   0.59522   0.00000  Uiso   1.00
C148   C     0.43516   0.31992   0.05124   0.00000  Uiso   1.00
C149   C     0.43617   0.27841   0.10469   0.00000  Uiso   1.00
C150   C     0.27674   0.26219   0.95456   0.00000  Uiso   1.00
C151   C     0.05293   0.22120   0.76681   0.00000  Uiso   1.00
C152   C     0.30951   0.38893   0.82967   0.00000  Uiso   1.00
C153   C     0.44761   0.41279   0.06783   0.00000  Uiso   1.00
C154   C     0.42877   0.45418   0.09675   0.00000  Uiso   1.00
C155   C     0.57036   0.47027   0.32939   0.00000  Uiso   1.00
C156   C     0.39579   0.37879   0.81425   0.00000  Uiso   1.00
C157   C     0.33336   0.39159   0.62995   0.00000  Uiso   1.00
C158   C     0.43131   0.37906   0.64908   0.00000  Uiso   1.00
C159   C     0.28038   0.34437   0.85478   0.00000  Uiso   1.00
C160   C     0.12092   0.32821   0.70452   0.00000  Uiso   1.00
C161   C     0.12169   0.28668   0.75774   0.00000  Uiso   1.00
H162   H     0.71495   0.32489   0.34431   0.00000  Uiso   1.00
H163   H     0.86378   0.38545   0.64892   0.00000  Uiso   1.00
H164   H     0.76838   0.32287   0.18216   0.00000  Uiso   1.00
H165   H     0.55597   0.25950   0.25673   0.00000  Uiso   1.00
H166   H     0.96056   0.46339   0.89998   0.00000  Uiso   1.00
H167   H     0.75937   0.33141   0.91577   0.00000  Uiso   1.00
H168   H     0.31146   0.19778   0.07300   0.00000  Uiso   1.00
H169   H     0.18901   0.40796   0.67671   0.00000  Uiso   1.00
H170   H     0.30898   0.47309   0.94469   0.00000  Uiso   1.00
H171   H     0.21358   0.41050   0.47794   0.00000  Uiso   1.00
H172   H     0.00117   0.34714   0.55251   0.00000  Uiso   1.00
H173   H     0.51027   0.53452   0.32840   0.00000  Uiso   1.00
H174   H     0.30907   0.40254   0.34419   0.00000  Uiso   1.00
H175   H     0.86117   0.26891   0.50143   0.00000  Uiso   1.00
O176   O     0.82385   0.54030   0.80251   0.00000  Uiso   1.00
O177   O     0.55988   0.36714   0.51125   0.00000  Uiso   1.00
O178   O     0.97223   0.19183   0.71755   0.00000  Uiso   1.00
N179   N     0.83811   0.47119   0.72868   0.00000  Uiso   1.00
N180   N     0.65002   0.34780   0.80853   0.00000  Uiso   1.00
N181   N     0.23125   0.22287   0.95549   0.00000  Uiso   1.00
N182   N     0.59581   0.50946   0.42112   0.00000  Uiso   1.00
N183   N     0.40772   0.38608   0.50097   0.00000  Uiso   1.00
N184   N     0.98895   0.26114   0.64793   0.00000  Uiso   1.00
