data_job_03417
_audit_creation_date              2018-12-19
_audit_creation_method            'Materials Studio'
_symmetry_space_group_name_H-M    'P1'
_symmetry_Int_Tables_number       1
_symmetry_cell_setting            triclinic
loop_
_symmetry_equiv_pos_as_xyz
  x,y,z
_cell_length_a                    30.8223
_cell_length_b                    30.8223
_cell_length_c                    7.0290
_cell_angle_alpha                 90.0000
_cell_angle_beta                  90.0000
_cell_angle_gamma                 90.0000
loop_
_atom_site_label
_atom_site_type_symbol
_atom_site_fract_x
_atom_site_fract_y
_atom_site_fract_z
_atom_site_U_iso_or_equiv
_atom_site_adp_type
_atom_site_occupancy
C1     C     0.59490   0.79094   0.69144   0.00000  Uiso   1.00
C2     C     0.61981   0.76035   0.56053   0.00000  Uiso   1.00
C3     C     0.65208   0.73165   0.61646   0.00000  Uiso   1.00
C4     C     0.67093   0.70646   0.47513   0.00000  Uiso   1.00
C5     C     0.71161   0.65845   0.30080   0.00000  Uiso   1.00
C6     C     0.60152   0.83638   0.61075   0.00000  Uiso   1.00
C7     C     0.61840   0.87162   0.70892   0.00000  Uiso   1.00
C8     C     0.62185   0.91044   0.60987   0.00000  Uiso   1.00
C9     C     0.63409   0.98049   0.51355   0.00000  Uiso   1.00
C10    C     0.54700   0.78040   0.66287   0.00000  Uiso   1.00
C11    C     0.51804   0.76858   0.80487   0.00000  Uiso   1.00
C12    C     0.47559   0.76027   0.74969   0.00000  Uiso   1.00
C13    C     0.40318   0.74340   0.73430   0.00000  Uiso   1.00
C14    C     0.57102   0.79723   0.34099   0.00000  Uiso   1.00
C15    C     0.60684   0.76377   0.37018   0.00000  Uiso   1.00
C16    C     0.62565   0.73861   0.22872   0.00000  Uiso   1.00
C17    C     0.65794   0.70988   0.28443   0.00000  Uiso   1.00
C18    C     0.58855   0.83980   0.42041   0.00000  Uiso   1.00
C19    C     0.59197   0.87858   0.32118   0.00000  Uiso   1.00
C20    C     0.60885   0.91386   0.41917   0.00000  Uiso   1.00
C21    C     0.53403   0.78382   0.47252   0.00000  Uiso   1.00
C22    C     0.49161   0.77554   0.41712   0.00000  Uiso   1.00
C23    C     0.46259   0.76370   0.55900   0.00000  Uiso   1.00
H24    H     0.60500   0.78828   0.83964   0.00000  Uiso   1.00
H25    H     0.66211   0.72901   0.76379   0.00000  Uiso   1.00
H26    H     0.62843   0.86896   0.85623   0.00000  Uiso   1.00
H27    H     0.52809   0.76593   0.95215   0.00000  Uiso   1.00
H28    H     0.71972   0.66483   0.59573   0.00000  Uiso   1.00
H29    H     0.64869   0.95992   0.79069   0.00000  Uiso   1.00
H30    H     0.43710   0.74267   0.99296   0.00000  Uiso   1.00
H31    H     0.56092   0.79990   0.19278   0.00000  Uiso   1.00
H32    H     0.61561   0.74126   0.08143   0.00000  Uiso   1.00
H33    H     0.58193   0.88122   0.17388   0.00000  Uiso   1.00
H34    H     0.48159   0.77819   0.26980   0.00000  Uiso   1.00
H35    H     0.68197   0.67477   0.04190   0.00000  Uiso   1.00
H36    H     0.61094   0.96987   0.23686   0.00000  Uiso   1.00
H37    H     0.39935   0.75261   0.43913   0.00000  Uiso   1.00
O38    O     0.73763   0.63103   0.25723   0.00000  Uiso   1.00
O39    O     0.64443   0.01819   0.51302   0.00000  Uiso   1.00
O40    O     0.36683   0.73315   0.77839   0.00000  Uiso   1.00
N41    N     0.70332   0.67521   0.48067   0.00000  Uiso   1.00
N42    N     0.63692   0.95110   0.66294   0.00000  Uiso   1.00
N43    N     0.43910   0.74800   0.85205   0.00000  Uiso   1.00
N44    N     0.68301   0.68056   0.18266   0.00000  Uiso   1.00
N45    N     0.61661   0.95645   0.36493   0.00000  Uiso   1.00
N46    N     0.41879   0.75335   0.55404   0.00000  Uiso   1.00
C47    C     0.09490   0.29094   0.19144   0.00000  Uiso   1.00
C48    C     0.11981   0.26035   0.06053   0.00000  Uiso   1.00
C49    C     0.15208   0.23165   0.11646   0.00000  Uiso   1.00
C50    C     0.17093   0.20646   0.97513   0.00000  Uiso   1.00
C51    C     0.21161   0.15845   0.80080   0.00000  Uiso   1.00
C52    C     0.10152   0.33638   0.11075   0.00000  Uiso   1.00
C53    C     0.11840   0.37162   0.20892   0.00000  Uiso   1.00
C54    C     0.12185   0.41044   0.10987   0.00000  Uiso   1.00
C55    C     0.13409   0.48049   0.01355   0.00000  Uiso   1.00
C56    C     0.04700   0.28040   0.16287   0.00000  Uiso   1.00
C57    C     0.01804   0.26858   0.30487   0.00000  Uiso   1.00
C58    C     0.97559   0.26027   0.24969   0.00000  Uiso   1.00
C59    C     0.90318   0.24340   0.23430   0.00000  Uiso   1.00
C60    C     0.07102   0.29723   0.84099   0.00000  Uiso   1.00
C61    C     0.10684   0.26377   0.87018   0.00000  Uiso   1.00
C62    C     0.12565   0.23861   0.72872   0.00000  Uiso   1.00
C63    C     0.15794   0.20988   0.78443   0.00000  Uiso   1.00
C64    C     0.08855   0.33980   0.92041   0.00000  Uiso   1.00
C65    C     0.09197   0.37858   0.82118   0.00000  Uiso   1.00
C66    C     0.10885   0.41386   0.91917   0.00000  Uiso   1.00
C67    C     0.03403   0.28382   0.97252   0.00000  Uiso   1.00
C68    C     0.99161   0.27554   0.91712   0.00000  Uiso   1.00
C69    C     0.96259   0.26370   0.05900   0.00000  Uiso   1.00
H70    H     0.10500   0.28828   0.33964   0.00000  Uiso   1.00
H71    H     0.16211   0.22901   0.26379   0.00000  Uiso   1.00
H72    H     0.12843   0.36896   0.35623   0.00000  Uiso   1.00
H73    H     0.02809   0.26593   0.45215   0.00000  Uiso   1.00
H74    H     0.21972   0.16483   0.09573   0.00000  Uiso   1.00
H75    H     0.14869   0.45992   0.29069   0.00000  Uiso   1.00
H76    H     0.93710   0.24267   0.49296   0.00000  Uiso   1.00
H77    H     0.06092   0.29990   0.69278   0.00000  Uiso   1.00
H78    H     0.11561   0.24126   0.58143   0.00000  Uiso   1.00
H79    H     0.08193   0.38122   0.67388   0.00000  Uiso   1.00
H80    H     0.98159   0.27819   0.76980   0.00000  Uiso   1.00
H81    H     0.18197   0.17477   0.54190   0.00000  Uiso   1.00
H82    H     0.11094   0.46987   0.73686   0.00000  Uiso   1.00
H83    H     0.89935   0.25261   0.93913   0.00000  Uiso   1.00
O84    O     0.23763   0.13103   0.75723   0.00000  Uiso   1.00
O85    O     0.14443   0.51819   0.01302   0.00000  Uiso   1.00
O86    O     0.86683   0.23315   0.27839   0.00000  Uiso   1.00
N87    N     0.20332   0.17521   0.98067   0.00000  Uiso   1.00
N88    N     0.13692   0.45110   0.16294   0.00000  Uiso   1.00
N89    N     0.93910   0.24800   0.35205   0.00000  Uiso   1.00
N90    N     0.18301   0.18056   0.68266   0.00000  Uiso   1.00
N91    N     0.11661   0.45645   0.86493   0.00000  Uiso   1.00
N92    N     0.91879   0.25335   0.05404   0.00000  Uiso   1.00
C93    C     0.40510   0.20906   0.69144   0.00000  Uiso   1.00
C94    C     0.38019   0.23965   0.56053   0.00000  Uiso   1.00
C95    C     0.34792   0.26835   0.61646   0.00000  Uiso   1.00
C96    C     0.32907   0.29354   0.47513   0.00000  Uiso   1.00
C97    C     0.28839   0.34155   0.30080   0.00000  Uiso   1.00
C98    C     0.39848   0.16362   0.61075   0.00000  Uiso   1.00
C99    C     0.38160   0.12838   0.70892   0.00000  Uiso   1.00
C100   C     0.37815   0.08956   0.60987   0.00000  Uiso   1.00
C101   C     0.36591   0.01951   0.51355   0.00000  Uiso   1.00
C102   C     0.45300   0.21960   0.66287   0.00000  Uiso   1.00
C103   C     0.48196   0.23142   0.80487   0.00000  Uiso   1.00
C104   C     0.52441   0.23973   0.74969   0.00000  Uiso   1.00
C105   C     0.59682   0.25660   0.73430   0.00000  Uiso   1.00
C106   C     0.42898   0.20277   0.34099   0.00000  Uiso   1.00
C107   C     0.39316   0.23623   0.37018   0.00000  Uiso   1.00
C108   C     0.37435   0.26139   0.22872   0.00000  Uiso   1.00
C109   C     0.34206   0.29012   0.28443   0.00000  Uiso   1.00
C110   C     0.41145   0.16020   0.42041   0.00000  Uiso   1.00
C111   C     0.40803   0.12142   0.32118   0.00000  Uiso   1.00
C112   C     0.39115   0.08614   0.41917   0.00000  Uiso   1.00
C113   C     0.46597   0.21618   0.47252   0.00000  Uiso   1.00
C114   C     0.50839   0.22446   0.41712   0.00000  Uiso   1.00
C115   C     0.53741   0.23630   0.55900   0.00000  Uiso   1.00
H116   H     0.39500   0.21172   0.83964   0.00000  Uiso   1.00
H117   H     0.33789   0.27099   0.76379   0.00000  Uiso   1.00
H118   H     0.37157   0.13104   0.85623   0.00000  Uiso   1.00
H119   H     0.47191   0.23407   0.95215   0.00000  Uiso   1.00
H120   H     0.28028   0.33517   0.59573   0.00000  Uiso   1.00
H121   H     0.35131   0.04008   0.79069   0.00000  Uiso   1.00
H122   H     0.56290   0.25733   0.99296   0.00000  Uiso   1.00
H123   H     0.43908   0.20010   0.19278   0.00000  Uiso   1.00
H124   H     0.38439   0.25874   0.08143   0.00000  Uiso   1.00
H125   H     0.41807   0.11878   0.17388   0.00000  Uiso   1.00
H126   H     0.51841   0.22181   0.26980   0.00000  Uiso   1.00
H127   H     0.31803   0.32523   0.04190   0.00000  Uiso   1.00
H128   H     0.38906   0.03013   0.23686   0.00000  Uiso   1.00
H129   H     0.60065   0.24739   0.43913   0.00000  Uiso   1.00
O130   O     0.26237   0.36897   0.25723   0.00000  Uiso   1.00
O131   O     0.35557   0.98181   0.51302   0.00000  Uiso   1.00
O132   O     0.63317   0.26685   0.77839   0.00000  Uiso   1.00
N133   N     0.29668   0.32479   0.48067   0.00000  Uiso   1.00
N134   N     0.36308   0.04890   0.66294   0.00000  Uiso   1.00
N135   N     0.56090   0.25200   0.85205   0.00000  Uiso   1.00
N136   N     0.31699   0.31944   0.18266   0.00000  Uiso   1.00
N137   N     0.38339   0.04355   0.36493   0.00000  Uiso   1.00
N138   N     0.58121   0.24665   0.55404   0.00000  Uiso   1.00
C139   C     0.90510   0.70906   0.19144   0.00000  Uiso   1.00
C140   C     0.88019   0.73965   0.06053   0.00000  Uiso   1.00
C141   C     0.84792   0.76835   0.11646   0.00000  Uiso   1.00
C142   C     0.82907   0.79354   0.97513   0.00000  Uiso   1.00
C143   C     0.78839   0.84155   0.80080   0.00000  Uiso   1.00
C144   C     0.89848   0.66362   0.11075   0.00000  Uiso   1.00
C145   C     0.88160   0.62838   0.20892   0.00000  Uiso   1.00
C146   C     0.87815   0.58956   0.10987   0.00000  Uiso   1.00
C147   C     0.86591   0.51951   0.01355   0.00000  Uiso   1.00
C148   C     0.95300   0.71960   0.16287   0.00000  Uiso   1.00
C149   C     0.98196   0.73142   0.30487   0.00000  Uiso   1.00
C150   C     0.02441   0.73973   0.24969   0.00000  Uiso   1.00
C151   C     0.09682   0.75660   0.23430   0.00000  Uiso   1.00
C152   C     0.92898   0.70277   0.84099   0.00000  Uiso   1.00
C153   C     0.89316   0.73623   0.87018   0.00000  Uiso   1.00
C154   C     0.87435   0.76139   0.72872   0.00000  Uiso   1.00
C155   C     0.84206   0.79012   0.78443   0.00000  Uiso   1.00
C156   C     0.91145   0.66020   0.92041   0.00000  Uiso   1.00
C157   C     0.90803   0.62142   0.82118   0.00000  Uiso   1.00
C158   C     0.89115   0.58614   0.91917   0.00000  Uiso   1.00
C159   C     0.96597   0.71618   0.97252   0.00000  Uiso   1.00
C160   C     0.00839   0.72446   0.91712   0.00000  Uiso   1.00
C161   C     0.03741   0.73630   0.05900   0.00000  Uiso   1.00
H162   H     0.89500   0.71172   0.33964   0.00000  Uiso   1.00
H163   H     0.83789   0.77099   0.26379   0.00000  Uiso   1.00
H164   H     0.87157   0.63104   0.35623   0.00000  Uiso   1.00
H165   H     0.97191   0.73407   0.45215   0.00000  Uiso   1.00
H166   H     0.78028   0.83517   0.09573   0.00000  Uiso   1.00
H167   H     0.85131   0.54008   0.29069   0.00000  Uiso   1.00
H168   H     0.06290   0.75733   0.49296   0.00000  Uiso   1.00
H169   H     0.93908   0.70010   0.69278   0.00000  Uiso   1.00
H170   H     0.88439   0.75874   0.58143   0.00000  Uiso   1.00
H171   H     0.91807   0.61878   0.67388   0.00000  Uiso   1.00
H172   H     0.01841   0.72181   0.76980   0.00000  Uiso   1.00
H173   H     0.81803   0.82523   0.54190   0.00000  Uiso   1.00
H174   H     0.88906   0.53013   0.73686   0.00000  Uiso   1.00
H175   H     0.10065   0.74739   0.93913   0.00000  Uiso   1.00
O176   O     0.76237   0.86897   0.75723   0.00000  Uiso   1.00
O177   O     0.85557   0.48181   0.01302   0.00000  Uiso   1.00
O178   O     0.13317   0.76685   0.27839   0.00000  Uiso   1.00
N179   N     0.79668   0.82479   0.98067   0.00000  Uiso   1.00
N180   N     0.86308   0.54890   0.16294   0.00000  Uiso   1.00
N181   N     0.06090   0.75200   0.35205   0.00000  Uiso   1.00
N182   N     0.81699   0.81944   0.68266   0.00000  Uiso   1.00
N183   N     0.88339   0.54355   0.86493   0.00000  Uiso   1.00
N184   N     0.08121   0.74665   0.05404   0.00000  Uiso   1.00
C185   C     0.20906   0.59490   0.69144   0.00000  Uiso   1.00
C186   C     0.23965   0.61981   0.56053   0.00000  Uiso   1.00
C187   C     0.26835   0.65208   0.61646   0.00000  Uiso   1.00
C188   C     0.29354   0.67093   0.47513   0.00000  Uiso   1.00
C189   C     0.34155   0.71161   0.30080   0.00000  Uiso   1.00
C190   C     0.16362   0.60152   0.61075   0.00000  Uiso   1.00
C191   C     0.12838   0.61840   0.70892   0.00000  Uiso   1.00
C192   C     0.08956   0.62185   0.60987   0.00000  Uiso   1.00
C193   C     0.01951   0.63409   0.51355   0.00000  Uiso   1.00
C194   C     0.21960   0.54700   0.66287   0.00000  Uiso   1.00
C195   C     0.23142   0.51804   0.80487   0.00000  Uiso   1.00
C196   C     0.23973   0.47559   0.74969   0.00000  Uiso   1.00
C197   C     0.25660   0.40318   0.73430   0.00000  Uiso   1.00
C198   C     0.20277   0.57102   0.34099   0.00000  Uiso   1.00
C199   C     0.23623   0.60684   0.37018   0.00000  Uiso   1.00
C200   C     0.26139   0.62565   0.22872   0.00000  Uiso   1.00
C201   C     0.29012   0.65794   0.28443   0.00000  Uiso   1.00
C202   C     0.16020   0.58855   0.42041   0.00000  Uiso   1.00
C203   C     0.12142   0.59197   0.32118   0.00000  Uiso   1.00
C204   C     0.08614   0.60885   0.41917   0.00000  Uiso   1.00
C205   C     0.21618   0.53403   0.47252   0.00000  Uiso   1.00
C206   C     0.22446   0.49161   0.41712   0.00000  Uiso   1.00
C207   C     0.23630   0.46259   0.55900   0.00000  Uiso   1.00
H208   H     0.21172   0.60500   0.83964   0.00000  Uiso   1.00
H209   H     0.27099   0.66211   0.76379   0.00000  Uiso   1.00
H210   H     0.13104   0.62843   0.85623   0.00000  Uiso   1.00
H211   H     0.23407   0.52809   0.95215   0.00000  Uiso   1.00
H212   H     0.33517   0.71972   0.59573   0.00000  Uiso   1.00
H213   H     0.04008   0.64869   0.79069   0.00000  Uiso   1.00
H214   H     0.25733   0.43710   0.99296   0.00000  Uiso   1.00
H215   H     0.20010   0.56092   0.19278   0.00000  Uiso   1.00
H216   H     0.25874   0.61561   0.08143   0.00000  Uiso   1.00
H217   H     0.11878   0.58193   0.17388   0.00000  Uiso   1.00
H218   H     0.22181   0.48159   0.26980   0.00000  Uiso   1.00
H219   H     0.32523   0.68197   0.04190   0.00000  Uiso   1.00
H220   H     0.03013   0.61094   0.23686   0.00000  Uiso   1.00
H221   H     0.24739   0.39935   0.43913   0.00000  Uiso   1.00
O222   O     0.36897   0.73763   0.25723   0.00000  Uiso   1.00
O223   O     0.98181   0.64443   0.51302   0.00000  Uiso   1.00
O224   O     0.26685   0.36683   0.77839   0.00000  Uiso   1.00
N225   N     0.32479   0.70332   0.48067   0.00000  Uiso   1.00
N226   N     0.04890   0.63692   0.66294   0.00000  Uiso   1.00
N227   N     0.25200   0.43910   0.85205   0.00000  Uiso   1.00
N228   N     0.31944   0.68301   0.18266   0.00000  Uiso   1.00
N229   N     0.04355   0.61661   0.36493   0.00000  Uiso   1.00
N230   N     0.24665   0.41879   0.55404   0.00000  Uiso   1.00
C231   C     0.70906   0.09490   0.19144   0.00000  Uiso   1.00
C232   C     0.73965   0.11981   0.06053   0.00000  Uiso   1.00
C233   C     0.76835   0.15208   0.11646   0.00000  Uiso   1.00
C234   C     0.79354   0.17093   0.97513   0.00000  Uiso   1.00
C235   C     0.84155   0.21161   0.80080   0.00000  Uiso   1.00
C236   C     0.66362   0.10152   0.11075   0.00000  Uiso   1.00
C237   C     0.62838   0.11840   0.20892   0.00000  Uiso   1.00
C238   C     0.58956   0.12185   0.10987   0.00000  Uiso   1.00
C239   C     0.51951   0.13409   0.01355   0.00000  Uiso   1.00
C240   C     0.71960   0.04700   0.16287   0.00000  Uiso   1.00
C241   C     0.73142   0.01804   0.30487   0.00000  Uiso   1.00
C242   C     0.73973   0.97559   0.24969   0.00000  Uiso   1.00
C243   C     0.75660   0.90318   0.23430   0.00000  Uiso   1.00
C244   C     0.70277   0.07102   0.84099   0.00000  Uiso   1.00
C245   C     0.73623   0.10684   0.87018   0.00000  Uiso   1.00
C246   C     0.76139   0.12565   0.72872   0.00000  Uiso   1.00
C247   C     0.79012   0.15794   0.78443   0.00000  Uiso   1.00
C248   C     0.66020   0.08855   0.92041   0.00000  Uiso   1.00
C249   C     0.62142   0.09197   0.82118   0.00000  Uiso   1.00
C250   C     0.58614   0.10885   0.91917   0.00000  Uiso   1.00
C251   C     0.71618   0.03403   0.97252   0.00000  Uiso   1.00
C252   C     0.72446   0.99161   0.91712   0.00000  Uiso   1.00
C253   C     0.73630   0.96259   0.05900   0.00000  Uiso   1.00
H254   H     0.71172   0.10500   0.33964   0.00000  Uiso   1.00
H255   H     0.77099   0.16211   0.26379   0.00000  Uiso   1.00
H256   H     0.63104   0.12843   0.35623   0.00000  Uiso   1.00
H257   H     0.73407   0.02809   0.45215   0.00000  Uiso   1.00
H258   H     0.83517   0.21972   0.09573   0.00000  Uiso   1.00
H259   H     0.54008   0.14869   0.29069   0.00000  Uiso   1.00
H260   H     0.75733   0.93710   0.49296   0.00000  Uiso   1.00
H261   H     0.70010   0.06092   0.69278   0.00000  Uiso   1.00
H262   H     0.75874   0.11561   0.58143   0.00000  Uiso   1.00
H263   H     0.61878   0.08193   0.67388   0.00000  Uiso   1.00
H264   H     0.72181   0.98159   0.76980   0.00000  Uiso   1.00
H265   H     0.82523   0.18197   0.54190   0.00000  Uiso   1.00
H266   H     0.53013   0.11094   0.73686   0.00000  Uiso   1.00
H267   H     0.74739   0.89935   0.93913   0.00000  Uiso   1.00
O268   O     0.86897   0.23763   0.75723   0.00000  Uiso   1.00
O269   O     0.48181   0.14443   0.01302   0.00000  Uiso   1.00
O270   O     0.76685   0.86683   0.27839   0.00000  Uiso   1.00
N271   N     0.82479   0.20332   0.98067   0.00000  Uiso   1.00
N272   N     0.54890   0.13692   0.16294   0.00000  Uiso   1.00
N273   N     0.75200   0.93910   0.35205   0.00000  Uiso   1.00
N274   N     0.81944   0.18301   0.68266   0.00000  Uiso   1.00
N275   N     0.54355   0.11661   0.86493   0.00000  Uiso   1.00
N276   N     0.74665   0.91879   0.05404   0.00000  Uiso   1.00
C277   C     0.79094   0.40510   0.69144   0.00000  Uiso   1.00
C278   C     0.76035   0.38019   0.56053   0.00000  Uiso   1.00
C279   C     0.73165   0.34792   0.61646   0.00000  Uiso   1.00
C280   C     0.70646   0.32907   0.47513   0.00000  Uiso   1.00
C281   C     0.65845   0.28839   0.30080   0.00000  Uiso   1.00
C282   C     0.83638   0.39848   0.61075   0.00000  Uiso   1.00
C283   C     0.87162   0.38160   0.70892   0.00000  Uiso   1.00
C284   C     0.91044   0.37815   0.60987   0.00000  Uiso   1.00
C285   C     0.98049   0.36591   0.51355   0.00000  Uiso   1.00
C286   C     0.78040   0.45300   0.66287   0.00000  Uiso   1.00
C287   C     0.76858   0.48196   0.80487   0.00000  Uiso   1.00
C288   C     0.76027   0.52441   0.74969   0.00000  Uiso   1.00
C289   C     0.74340   0.59682   0.73430   0.00000  Uiso   1.00
C290   C     0.79723   0.42898   0.34099   0.00000  Uiso   1.00
C291   C     0.76377   0.39316   0.37018   0.00000  Uiso   1.00
C292   C     0.73861   0.37435   0.22872   0.00000  Uiso   1.00
C293   C     0.70988   0.34206   0.28443   0.00000  Uiso   1.00
C294   C     0.83980   0.41145   0.42041   0.00000  Uiso   1.00
C295   C     0.87858   0.40803   0.32118   0.00000  Uiso   1.00
C296   C     0.91386   0.39115   0.41917   0.00000  Uiso   1.00
C297   C     0.78382   0.46597   0.47252   0.00000  Uiso   1.00
C298   C     0.77554   0.50839   0.41712   0.00000  Uiso   1.00
C299   C     0.76370   0.53741   0.55900   0.00000  Uiso   1.00
H300   H     0.78828   0.39500   0.83964   0.00000  Uiso   1.00
H301   H     0.72901   0.33789   0.76379   0.00000  Uiso   1.00
H302   H     0.86896   0.37157   0.85623   0.00000  Uiso   1.00
H303   H     0.76593   0.47191   0.95215   0.00000  Uiso   1.00
H304   H     0.66483   0.28028   0.59573   0.00000  Uiso   1.00
H305   H     0.95992   0.35131   0.79069   0.00000  Uiso   1.00
H306   H     0.74267   0.56290   0.99296   0.00000  Uiso   1.00
H307   H     0.79990   0.43908   0.19278   0.00000  Uiso   1.00
H308   H     0.74126   0.38439   0.08143   0.00000  Uiso   1.00
H309   H     0.88122   0.41807   0.17388   0.00000  Uiso   1.00
H310   H     0.77819   0.51841   0.26980   0.00000  Uiso   1.00
H311   H     0.67477   0.31803   0.04190   0.00000  Uiso   1.00
H312   H     0.96987   0.38906   0.23686   0.00000  Uiso   1.00
H313   H     0.75261   0.60065   0.43913   0.00000  Uiso   1.00
O314   O     0.63103   0.26237   0.25723   0.00000  Uiso   1.00
O315   O     0.01819   0.35557   0.51302   0.00000  Uiso   1.00
O316   O     0.73315   0.63317   0.77839   0.00000  Uiso   1.00
N317   N     0.67521   0.29668   0.48067   0.00000  Uiso   1.00
N318   N     0.95110   0.36308   0.66294   0.00000  Uiso   1.00
N319   N     0.74800   0.56090   0.85205   0.00000  Uiso   1.00
N320   N     0.68056   0.31699   0.18266   0.00000  Uiso   1.00
N321   N     0.95645   0.38339   0.36493   0.00000  Uiso   1.00
N322   N     0.75335   0.58121   0.55404   0.00000  Uiso   1.00
C323   C     0.29094   0.90510   0.19144   0.00000  Uiso   1.00
C324   C     0.26035   0.88019   0.06053   0.00000  Uiso   1.00
C325   C     0.23165   0.84792   0.11646   0.00000  Uiso   1.00
C326   C     0.20646   0.82907   0.97513   0.00000  Uiso   1.00
C327   C     0.15845   0.78839   0.80080   0.00000  Uiso   1.00
C328   C     0.33638   0.89848   0.11075   0.00000  Uiso   1.00
C329   C     0.37162   0.88160   0.20892   0.00000  Uiso   1.00
C330   C     0.41044   0.87815   0.10987   0.00000  Uiso   1.00
C331   C     0.48049   0.86591   0.01355   0.00000  Uiso   1.00
C332   C     0.28040   0.95300   0.16287   0.00000  Uiso   1.00
C333   C     0.26858   0.98196   0.30487   0.00000  Uiso   1.00
C334   C     0.26027   0.02441   0.24969   0.00000  Uiso   1.00
C335   C     0.24340   0.09682   0.23430   0.00000  Uiso   1.00
C336   C     0.29723   0.92898   0.84099   0.00000  Uiso   1.00
C337   C     0.26377   0.89316   0.87018   0.00000  Uiso   1.00
C338   C     0.23861   0.87435   0.72872   0.00000  Uiso   1.00
C339   C     0.20988   0.84206   0.78443   0.00000  Uiso   1.00
C340   C     0.33980   0.91145   0.92041   0.00000  Uiso   1.00
C341   C     0.37858   0.90803   0.82118   0.00000  Uiso   1.00
C342   C     0.41386   0.89115   0.91917   0.00000  Uiso   1.00
C343   C     0.28382   0.96597   0.97252   0.00000  Uiso   1.00
C344   C     0.27554   0.00839   0.91712   0.00000  Uiso   1.00
C345   C     0.26370   0.03741   0.05900   0.00000  Uiso   1.00
H346   H     0.28828   0.89500   0.33964   0.00000  Uiso   1.00
H347   H     0.22901   0.83789   0.26379   0.00000  Uiso   1.00
H348   H     0.36896   0.87157   0.35623   0.00000  Uiso   1.00
H349   H     0.26593   0.97191   0.45215   0.00000  Uiso   1.00
H350   H     0.16483   0.78028   0.09573   0.00000  Uiso   1.00
H351   H     0.45992   0.85131   0.29069   0.00000  Uiso   1.00
H352   H     0.24267   0.06290   0.49296   0.00000  Uiso   1.00
H353   H     0.29990   0.93908   0.69278   0.00000  Uiso   1.00
H354   H     0.24126   0.88439   0.58143   0.00000  Uiso   1.00
H355   H     0.38122   0.91807   0.67388   0.00000  Uiso   1.00
H356   H     0.27819   0.01841   0.76980   0.00000  Uiso   1.00
H357   H     0.17477   0.81803   0.54190   0.00000  Uiso   1.00
H358   H     0.46987   0.88906   0.73686   0.00000  Uiso   1.00
H359   H     0.25261   0.10065   0.93913   0.00000  Uiso   1.00
O360   O     0.13103   0.76237   0.75723   0.00000  Uiso   1.00
O361   O     0.51819   0.85557   0.01302   0.00000  Uiso   1.00
O362   O     0.23315   0.13317   0.27839   0.00000  Uiso   1.00
N363   N     0.17521   0.79668   0.98067   0.00000  Uiso   1.00
N364   N     0.45110   0.86308   0.16294   0.00000  Uiso   1.00
N365   N     0.24800   0.06090   0.35205   0.00000  Uiso   1.00
N366   N     0.18056   0.81699   0.68266   0.00000  Uiso   1.00
N367   N     0.45645   0.88339   0.86493   0.00000  Uiso   1.00
N368   N     0.25335   0.08121   0.05404   0.00000  Uiso   1.00
