data_job_01262
_audit_creation_date              2018-12-19
_audit_creation_method            'Materials Studio'
_symmetry_space_group_name_H-M    'P1'
_symmetry_Int_Tables_number       1
_symmetry_cell_setting            triclinic
loop_
_symmetry_equiv_pos_as_xyz
  x,y,z
_cell_length_a                    21.0594
_cell_length_b                    12.2694
_cell_length_c                    12.6755
_cell_angle_alpha                 90.0000
_cell_angle_beta                  115.8700
_cell_angle_gamma                 90.0000
loop_
_atom_site_label
_atom_site_type_symbol
_atom_site_fract_x
_atom_site_fract_y
_atom_site_fract_z
_atom_site_U_iso_or_equiv
_atom_site_adp_type
_atom_site_occupancy
C1     C     0.81215   0.07355   0.98203   0.00000  Uiso   1.00
C2     C     0.83181   0.99962   0.90415   0.00000  Uiso   1.00
C3     C     0.87525   0.90874   0.94120   0.00000  Uiso   1.00
C4     C     0.88677   0.85188   0.85643   0.00000  Uiso   1.00
C5     C     0.92202   0.73210   0.75341   0.00000  Uiso   1.00
C6     C     0.83398   0.18836   0.96533   0.00000  Uiso   1.00
C7     C     0.87925   0.25619   0.05382   0.00000  Uiso   1.00
C8     C     0.89258   0.35823   0.02054   0.00000  Uiso   1.00
C9     C     0.93117   0.53150   0.01250   0.00000  Uiso   1.00
C10    C     0.73174   0.07424   0.92827   0.00000  Uiso   1.00
C11    C     0.69102   0.04614   0.98561   0.00000  Uiso   1.00
C12    C     0.61827   0.05213   0.92114   0.00000  Uiso   1.00
C13    C     0.49810   0.04822   0.85557   0.00000  Uiso   1.00
C14    C     0.75535   0.13419   0.76558   0.00000  Uiso   1.00
C15    C     0.80096   0.03256   0.78659   0.00000  Uiso   1.00
C16    C     0.81241   0.97582   0.70173   0.00000  Uiso   1.00
C17    C     0.85586   0.88487   0.73865   0.00000  Uiso   1.00
C18    C     0.80313   0.22130   0.84777   0.00000  Uiso   1.00
C19    C     0.81640   0.32327   0.81435   0.00000  Uiso   1.00
C20    C     0.86168   0.39122   0.90276   0.00000  Uiso   1.00
C21    C     0.70088   0.10718   0.81071   0.00000  Uiso   1.00
C22    C     0.62818   0.11322   0.74614   0.00000  Uiso   1.00
C23    C     0.58737   0.08512   0.80336   0.00000  Uiso   1.00
H24    H     0.83617   0.04792   0.07356   0.00000  Uiso   1.00
H25    H     0.89913   0.88328   0.03220   0.00000  Uiso   1.00
H26    H     0.90311   0.23068   0.14479   0.00000  Uiso   1.00
H27    H     0.71492   0.02066   0.07659   0.00000  Uiso   1.00
H28    H     0.95534   0.71530   0.93450   0.00000  Uiso   1.00
H29    H     0.96372   0.44781   0.17192   0.00000  Uiso   1.00
H30    H     0.56688   0.00495   0.02811   0.00000  Uiso   1.00
H31    H     0.73133   0.15983   0.67405   0.00000  Uiso   1.00
H32    H     0.78853   0.00133   0.61076   0.00000  Uiso   1.00
H33    H     0.79251   0.34873   0.72336   0.00000  Uiso   1.00
H34    H     0.60432   0.13871   0.65516   0.00000  Uiso   1.00
H35    H     0.86558   0.81111   0.59245   0.00000  Uiso   1.00
H36    H     0.87396   0.54363   0.82987   0.00000  Uiso   1.00
H37    H     0.47712   0.10077   0.68606   0.00000  Uiso   1.00
O38    O     0.95000   0.65694   0.72906   0.00000  Uiso   1.00
O39    O     0.96098   0.61798   0.04055   0.00000  Uiso   1.00
O40    O     0.44034   0.03695   0.85187   0.00000  Uiso   1.00
N41    N     0.92635   0.75959   0.86268   0.00000  Uiso   1.00
N42    N     0.93420   0.44444   0.08465   0.00000  Uiso   1.00
N43    N     0.56318   0.03043   0.95021   0.00000  Uiso   1.00
N44    N     0.87805   0.81114   0.67862   0.00000  Uiso   1.00
N45    N     0.88589   0.49600   0.90060   0.00000  Uiso   1.00
N46    N     0.51488   0.08199   0.76615   0.00000  Uiso   1.00
C47    C     0.18785   0.57355   0.51797   0.00000  Uiso   1.00
C48    C     0.16819   0.49962   0.59585   0.00000  Uiso   1.00
C49    C     0.12475   0.40874   0.55880   0.00000  Uiso   1.00
C50    C     0.11323   0.35188   0.64357   0.00000  Uiso   1.00
C51    C     0.07798   0.23210   0.74659   0.00000  Uiso   1.00
C52    C     0.16602   0.68836   0.53467   0.00000  Uiso   1.00
C53    C     0.12075   0.75619   0.44618   0.00000  Uiso   1.00
C54    C     0.10742   0.85823   0.47946   0.00000  Uiso   1.00
C55    C     0.06883   0.03150   0.48750   0.00000  Uiso   1.00
C56    C     0.26826   0.57424   0.57173   0.00000  Uiso   1.00
C57    C     0.30898   0.54614   0.51439   0.00000  Uiso   1.00
C58    C     0.38173   0.55213   0.57886   0.00000  Uiso   1.00
C59    C     0.50190   0.54822   0.64443   0.00000  Uiso   1.00
C60    C     0.24465   0.63419   0.73442   0.00000  Uiso   1.00
C61    C     0.19904   0.53256   0.71341   0.00000  Uiso   1.00
C62    C     0.18759   0.47582   0.79827   0.00000  Uiso   1.00
C63    C     0.14414   0.38487   0.76135   0.00000  Uiso   1.00
C64    C     0.19687   0.72130   0.65223   0.00000  Uiso   1.00
C65    C     0.18360   0.82327   0.68565   0.00000  Uiso   1.00
C66    C     0.13832   0.89122   0.59724   0.00000  Uiso   1.00
C67    C     0.29912   0.60718   0.68929   0.00000  Uiso   1.00
C68    C     0.37182   0.61322   0.75386   0.00000  Uiso   1.00
C69    C     0.41263   0.58512   0.69664   0.00000  Uiso   1.00
H70    H     0.16383   0.54792   0.42644   0.00000  Uiso   1.00
H71    H     0.10087   0.38328   0.46780   0.00000  Uiso   1.00
H72    H     0.09689   0.73068   0.35521   0.00000  Uiso   1.00
H73    H     0.28508   0.52066   0.42341   0.00000  Uiso   1.00
H74    H     0.04466   0.21530   0.56550   0.00000  Uiso   1.00
H75    H     0.03628   0.94781   0.32808   0.00000  Uiso   1.00
H76    H     0.43312   0.50495   0.47189   0.00000  Uiso   1.00
H77    H     0.26867   0.65983   0.82595   0.00000  Uiso   1.00
H78    H     0.21147   0.50133   0.88924   0.00000  Uiso   1.00
H79    H     0.20749   0.84873   0.77664   0.00000  Uiso   1.00
H80    H     0.39568   0.63871   0.84484   0.00000  Uiso   1.00
H81    H     0.13442   0.31111   0.90755   0.00000  Uiso   1.00
H82    H     0.12604   0.04363   0.67013   0.00000  Uiso   1.00
H83    H     0.52288   0.60077   0.81394   0.00000  Uiso   1.00
O84    O     0.05000   0.15694   0.77094   0.00000  Uiso   1.00
O85    O     0.03902   0.11798   0.45945   0.00000  Uiso   1.00
O86    O     0.55966   0.53695   0.64813   0.00000  Uiso   1.00
N87    N     0.07365   0.25959   0.63732   0.00000  Uiso   1.00
N88    N     0.06580   0.94444   0.41535   0.00000  Uiso   1.00
N89    N     0.43682   0.53043   0.54979   0.00000  Uiso   1.00
N90    N     0.12195   0.31114   0.82138   0.00000  Uiso   1.00
N91    N     0.11411   0.99600   0.59940   0.00000  Uiso   1.00
N92    N     0.48512   0.58199   0.73385   0.00000  Uiso   1.00
C93    C     0.18785   0.92645   0.01797   0.00000  Uiso   1.00
C94    C     0.16819   0.00038   0.09585   0.00000  Uiso   1.00
C95    C     0.12475   0.09126   0.05880   0.00000  Uiso   1.00
C96    C     0.11323   0.14812   0.14357   0.00000  Uiso   1.00
C97    C     0.07798   0.26790   0.24659   0.00000  Uiso   1.00
C98    C     0.16602   0.81164   0.03467   0.00000  Uiso   1.00
C99    C     0.12075   0.74381   0.94618   0.00000  Uiso   1.00
C100   C     0.10742   0.64177   0.97946   0.00000  Uiso   1.00
C101   C     0.06883   0.46850   0.98750   0.00000  Uiso   1.00
C102   C     0.26826   0.92576   0.07173   0.00000  Uiso   1.00
C103   C     0.30898   0.95386   0.01439   0.00000  Uiso   1.00
C104   C     0.38173   0.94787   0.07886   0.00000  Uiso   1.00
C105   C     0.50190   0.95178   0.14443   0.00000  Uiso   1.00
C106   C     0.24465   0.86581   0.23442   0.00000  Uiso   1.00
C107   C     0.19904   0.96744   0.21341   0.00000  Uiso   1.00
C108   C     0.18759   0.02418   0.29827   0.00000  Uiso   1.00
C109   C     0.14414   0.11513   0.26135   0.00000  Uiso   1.00
C110   C     0.19687   0.77870   0.15223   0.00000  Uiso   1.00
C111   C     0.18360   0.67673   0.18565   0.00000  Uiso   1.00
C112   C     0.13832   0.60878   0.09724   0.00000  Uiso   1.00
C113   C     0.29912   0.89282   0.18929   0.00000  Uiso   1.00
C114   C     0.37182   0.88678   0.25386   0.00000  Uiso   1.00
C115   C     0.41263   0.91488   0.19664   0.00000  Uiso   1.00
H116   H     0.16383   0.95208   0.92644   0.00000  Uiso   1.00
H117   H     0.10087   0.11672   0.96780   0.00000  Uiso   1.00
H118   H     0.09689   0.76932   0.85521   0.00000  Uiso   1.00
H119   H     0.28508   0.97934   0.92341   0.00000  Uiso   1.00
H120   H     0.04466   0.28470   0.06550   0.00000  Uiso   1.00
H121   H     0.03628   0.55219   0.82808   0.00000  Uiso   1.00
H122   H     0.43312   0.99505   0.97189   0.00000  Uiso   1.00
H123   H     0.26867   0.84017   0.32595   0.00000  Uiso   1.00
H124   H     0.21147   0.99867   0.38924   0.00000  Uiso   1.00
H125   H     0.20749   0.65127   0.27664   0.00000  Uiso   1.00
H126   H     0.39568   0.86129   0.34484   0.00000  Uiso   1.00
H127   H     0.13442   0.18889   0.40755   0.00000  Uiso   1.00
H128   H     0.12604   0.45637   0.17013   0.00000  Uiso   1.00
H129   H     0.52288   0.89923   0.31394   0.00000  Uiso   1.00
O130   O     0.05000   0.34306   0.27094   0.00000  Uiso   1.00
O131   O     0.03902   0.38202   0.95945   0.00000  Uiso   1.00
O132   O     0.55966   0.96305   0.14813   0.00000  Uiso   1.00
N133   N     0.07365   0.24041   0.13732   0.00000  Uiso   1.00
N134   N     0.06580   0.55556   0.91535   0.00000  Uiso   1.00
N135   N     0.43682   0.96957   0.04979   0.00000  Uiso   1.00
N136   N     0.12195   0.18886   0.32138   0.00000  Uiso   1.00
N137   N     0.11411   0.50400   0.09940   0.00000  Uiso   1.00
N138   N     0.48512   0.91801   0.23385   0.00000  Uiso   1.00
C139   C     0.81215   0.42645   0.48203   0.00000  Uiso   1.00
C140   C     0.83181   0.50038   0.40415   0.00000  Uiso   1.00
C141   C     0.87525   0.59126   0.44120   0.00000  Uiso   1.00
C142   C     0.88677   0.64812   0.35643   0.00000  Uiso   1.00
C143   C     0.92202   0.76790   0.25341   0.00000  Uiso   1.00
C144   C     0.83398   0.31164   0.46533   0.00000  Uiso   1.00
C145   C     0.87925   0.24381   0.55382   0.00000  Uiso   1.00
C146   C     0.89258   0.14177   0.52054   0.00000  Uiso   1.00
C147   C     0.93117   0.96850   0.51250   0.00000  Uiso   1.00
C148   C     0.73174   0.42576   0.42827   0.00000  Uiso   1.00
C149   C     0.69102   0.45386   0.48561   0.00000  Uiso   1.00
C150   C     0.61827   0.44787   0.42114   0.00000  Uiso   1.00
C151   C     0.49810   0.45178   0.35557   0.00000  Uiso   1.00
C152   C     0.75535   0.36581   0.26558   0.00000  Uiso   1.00
C153   C     0.80096   0.46744   0.28659   0.00000  Uiso   1.00
C154   C     0.81241   0.52418   0.20173   0.00000  Uiso   1.00
C155   C     0.85586   0.61513   0.23865   0.00000  Uiso   1.00
C156   C     0.80313   0.27870   0.34777   0.00000  Uiso   1.00
C157   C     0.81640   0.17673   0.31435   0.00000  Uiso   1.00
C158   C     0.86168   0.10878   0.40276   0.00000  Uiso   1.00
C159   C     0.70088   0.39282   0.31071   0.00000  Uiso   1.00
C160   C     0.62818   0.38678   0.24614   0.00000  Uiso   1.00
C161   C     0.58737   0.41488   0.30336   0.00000  Uiso   1.00
H162   H     0.83617   0.45208   0.57356   0.00000  Uiso   1.00
H163   H     0.89913   0.61672   0.53220   0.00000  Uiso   1.00
H164   H     0.90311   0.26932   0.64479   0.00000  Uiso   1.00
H165   H     0.71492   0.47934   0.57659   0.00000  Uiso   1.00
H166   H     0.95534   0.78470   0.43450   0.00000  Uiso   1.00
H167   H     0.96372   0.05219   0.67192   0.00000  Uiso   1.00
H168   H     0.56688   0.49505   0.52811   0.00000  Uiso   1.00
H169   H     0.73133   0.34017   0.17405   0.00000  Uiso   1.00
H170   H     0.78853   0.49867   0.11076   0.00000  Uiso   1.00
H171   H     0.79251   0.15127   0.22336   0.00000  Uiso   1.00
H172   H     0.60432   0.36129   0.15516   0.00000  Uiso   1.00
H173   H     0.86558   0.68889   0.09245   0.00000  Uiso   1.00
H174   H     0.87396   0.95637   0.32987   0.00000  Uiso   1.00
H175   H     0.47712   0.39923   0.18606   0.00000  Uiso   1.00
O176   O     0.95000   0.84306   0.22906   0.00000  Uiso   1.00
O177   O     0.96098   0.88202   0.54055   0.00000  Uiso   1.00
O178   O     0.44034   0.46305   0.35187   0.00000  Uiso   1.00
N179   N     0.92635   0.74041   0.36268   0.00000  Uiso   1.00
N180   N     0.93420   0.05556   0.58465   0.00000  Uiso   1.00
N181   N     0.56318   0.46957   0.45021   0.00000  Uiso   1.00
N182   N     0.87805   0.68886   0.17862   0.00000  Uiso   1.00
N183   N     0.88589   0.00400   0.40060   0.00000  Uiso   1.00
N184   N     0.51488   0.41801   0.26615   0.00000  Uiso   1.00
