data_job_01887
_audit_creation_date              2018-12-19
_audit_creation_method            'Materials Studio'
_symmetry_space_group_name_H-M    'P1'
_symmetry_Int_Tables_number       1
_symmetry_cell_setting            triclinic
loop_
_symmetry_equiv_pos_as_xyz
  x,y,z
_cell_length_a                    23.8999
_cell_length_b                    11.6565
_cell_length_c                    19.8789
_cell_angle_alpha                 90.0000
_cell_angle_beta                  31.2010
_cell_angle_gamma                 90.0000
loop_
_atom_site_label
_atom_site_type_symbol
_atom_site_fract_x
_atom_site_fract_y
_atom_site_fract_z
_atom_site_U_iso_or_equiv
_atom_site_adp_type
_atom_site_occupancy
C1     C     0.32798   0.32713   0.05758   0.00000  Uiso   1.00
C2     C     0.43560   0.28762   0.91766   0.00000  Uiso   1.00
C3     C     0.49988   0.34977   0.80749   0.00000  Uiso   1.00
C4     C     0.59539   0.29862   0.68830   0.00000  Uiso   1.00
C5     C     0.75790   0.25388   0.47236   0.00000  Uiso   1.00
C6     C     0.24590   0.23501   0.12317   0.00000  Uiso   1.00
C7     C     0.15067   0.25295   0.18580   0.00000  Uiso   1.00
C8     C     0.08648   0.15752   0.23963   0.00000  Uiso   1.00
C9     C     0.95444   0.03113   0.34282   0.00000  Uiso   1.00
C10    C     0.34033   0.32075   0.12110   0.00000  Uiso   1.00
C11    C     0.32448   0.41076   0.18202   0.00000  Uiso   1.00
C12    C     0.33977   0.38750   0.23413   0.00000  Uiso   1.00
C13    C     0.35435   0.39423   0.33410   0.00000  Uiso   1.00
C14    C     0.38329   0.12575   0.04183   0.00000  Uiso   1.00
C15    C     0.46564   0.17823   0.90912   0.00000  Uiso   1.00
C16    C     0.56108   0.12697   0.79006   0.00000  Uiso   1.00
C17    C     0.62549   0.18904   0.67973   0.00000  Uiso   1.00
C18    C     0.27594   0.12564   0.11462   0.00000  Uiso   1.00
C19    C     0.21187   0.03016   0.16838   0.00000  Uiso   1.00
C20    C     0.11658   0.04794   0.23106   0.00000  Uiso   1.00
C21    C     0.37038   0.21137   0.11255   0.00000  Uiso   1.00
C22    C     0.38568   0.18796   0.16459   0.00000  Uiso   1.00
C23    C     0.36987   0.27792   0.22556   0.00000  Uiso   1.00
H24    H     0.30458   0.41228   0.06424   0.00000  Uiso   1.00
H25    H     0.47660   0.43441   0.81415   0.00000  Uiso   1.00
H26    H     0.12744   0.33761   0.19241   0.00000  Uiso   1.00
H27    H     0.30123   0.49539   0.18862   0.00000  Uiso   1.00
H28    H     0.68054   0.41069   0.53310   0.00000  Uiso   1.00
H29    H     0.94431   0.20659   0.33073   0.00000  Uiso   1.00
H30    H     0.31077   0.53931   0.32274   0.00000  Uiso   1.00
H31    H     0.40668   0.04059   0.03517   0.00000  Uiso   1.00
H32    H     0.58431   0.04233   0.78348   0.00000  Uiso   1.00
H33    H     0.23514   0.94553   0.16175   0.00000  Uiso   1.00
H34    H     0.40893   0.10331   0.15795   0.00000  Uiso   1.00
H35    H     0.76796   0.09246   0.50821   0.00000  Uiso   1.00
H36    H     0.03172   0.88836   0.30585   0.00000  Uiso   1.00
H37    H     0.39819   0.22107   0.29785   0.00000  Uiso   1.00
O38    O     0.83924   0.25941   0.35561   0.00000  Uiso   1.00
O39    O     0.87332   0.99164   0.40209   0.00000  Uiso   1.00
O40    O     0.35411   0.42816   0.39159   0.00000  Uiso   1.00
N41    N     0.67675   0.33557   0.56178   0.00000  Uiso   1.00
N42    N     0.98842   0.14474   0.30751   0.00000  Uiso   1.00
N43    N     0.33100   0.45580   0.30006   0.00000  Uiso   1.00
N44    N     0.72379   0.16433   0.54839   0.00000  Uiso   1.00
N45    N     0.03546   0.97350   0.29411   0.00000  Uiso   1.00
N46    N     0.37804   0.28456   0.28667   0.00000  Uiso   1.00
C47    C     0.67202   0.82713   0.44242   0.00000  Uiso   1.00
C48    C     0.56440   0.78762   0.58234   0.00000  Uiso   1.00
C49    C     0.50012   0.84977   0.69251   0.00000  Uiso   1.00
C50    C     0.40461   0.79862   0.81170   0.00000  Uiso   1.00
C51    C     0.24210   0.75388   0.02764   0.00000  Uiso   1.00
C52    C     0.75410   0.73501   0.37683   0.00000  Uiso   1.00
C53    C     0.84933   0.75295   0.31420   0.00000  Uiso   1.00
C54    C     0.91352   0.65752   0.26037   0.00000  Uiso   1.00
C55    C     0.04556   0.53113   0.15718   0.00000  Uiso   1.00
C56    C     0.65967   0.82075   0.37890   0.00000  Uiso   1.00
C57    C     0.67552   0.91076   0.31798   0.00000  Uiso   1.00
C58    C     0.66023   0.88750   0.26587   0.00000  Uiso   1.00
C59    C     0.64565   0.89423   0.16590   0.00000  Uiso   1.00
C60    C     0.61671   0.62575   0.45817   0.00000  Uiso   1.00
C61    C     0.53436   0.67823   0.59088   0.00000  Uiso   1.00
C62    C     0.43892   0.62697   0.70994   0.00000  Uiso   1.00
C63    C     0.37451   0.68904   0.82027   0.00000  Uiso   1.00
C64    C     0.72406   0.62564   0.38538   0.00000  Uiso   1.00
C65    C     0.78813   0.53016   0.33162   0.00000  Uiso   1.00
C66    C     0.88342   0.54794   0.26894   0.00000  Uiso   1.00
C67    C     0.62962   0.71137   0.38745   0.00000  Uiso   1.00
C68    C     0.61432   0.68796   0.33541   0.00000  Uiso   1.00
C69    C     0.63013   0.77792   0.27444   0.00000  Uiso   1.00
H70    H     0.69542   0.91228   0.43576   0.00000  Uiso   1.00
H71    H     0.52340   0.93441   0.68585   0.00000  Uiso   1.00
H72    H     0.87256   0.83761   0.30759   0.00000  Uiso   1.00
H73    H     0.69877   0.99539   0.31138   0.00000  Uiso   1.00
H74    H     0.31946   0.91069   0.96690   0.00000  Uiso   1.00
H75    H     0.05569   0.70659   0.16927   0.00000  Uiso   1.00
H76    H     0.68923   0.03931   0.17726   0.00000  Uiso   1.00
H77    H     0.59332   0.54059   0.46483   0.00000  Uiso   1.00
H78    H     0.41569   0.54233   0.71652   0.00000  Uiso   1.00
H79    H     0.76486   0.44553   0.33825   0.00000  Uiso   1.00
H80    H     0.59107   0.60331   0.34205   0.00000  Uiso   1.00
H81    H     0.23204   0.59246   0.99179   0.00000  Uiso   1.00
H82    H     0.96828   0.38836   0.19415   0.00000  Uiso   1.00
H83    H     0.60181   0.72107   0.20215   0.00000  Uiso   1.00
O84    O     0.16076   0.75941   0.14439   0.00000  Uiso   1.00
O85    O     0.12668   0.49164   0.09791   0.00000  Uiso   1.00
O86    O     0.64589   0.92816   0.10841   0.00000  Uiso   1.00
N87    N     0.32325   0.83557   0.93822   0.00000  Uiso   1.00
N88    N     0.01158   0.64474   0.19249   0.00000  Uiso   1.00
N89    N     0.66900   0.95580   0.19994   0.00000  Uiso   1.00
N90    N     0.27621   0.66433   0.95161   0.00000  Uiso   1.00
N91    N     0.96454   0.47350   0.20589   0.00000  Uiso   1.00
N92    N     0.62196   0.78456   0.21333   0.00000  Uiso   1.00
C93    C     0.67202   0.67287   0.94242   0.00000  Uiso   1.00
C94    C     0.56440   0.71238   0.08234   0.00000  Uiso   1.00
C95    C     0.50012   0.65023   0.19251   0.00000  Uiso   1.00
C96    C     0.40461   0.70138   0.31170   0.00000  Uiso   1.00
C97    C     0.24210   0.74612   0.52764   0.00000  Uiso   1.00
C98    C     0.75410   0.76499   0.87683   0.00000  Uiso   1.00
C99    C     0.84933   0.74705   0.81420   0.00000  Uiso   1.00
C100   C     0.91352   0.84248   0.76037   0.00000  Uiso   1.00
C101   C     0.04556   0.96887   0.65718   0.00000  Uiso   1.00
C102   C     0.65967   0.67925   0.87890   0.00000  Uiso   1.00
C103   C     0.67552   0.58924   0.81798   0.00000  Uiso   1.00
C104   C     0.66023   0.61250   0.76587   0.00000  Uiso   1.00
C105   C     0.64565   0.60577   0.66590   0.00000  Uiso   1.00
C106   C     0.61671   0.87425   0.95817   0.00000  Uiso   1.00
C107   C     0.53436   0.82177   0.09088   0.00000  Uiso   1.00
C108   C     0.43892   0.87303   0.20994   0.00000  Uiso   1.00
C109   C     0.37451   0.81096   0.32027   0.00000  Uiso   1.00
C110   C     0.72406   0.87436   0.88538   0.00000  Uiso   1.00
C111   C     0.78813   0.96984   0.83162   0.00000  Uiso   1.00
C112   C     0.88342   0.95206   0.76894   0.00000  Uiso   1.00
C113   C     0.62962   0.78863   0.88745   0.00000  Uiso   1.00
C114   C     0.61432   0.81204   0.83541   0.00000  Uiso   1.00
C115   C     0.63013   0.72208   0.77444   0.00000  Uiso   1.00
H116   H     0.69542   0.58772   0.93576   0.00000  Uiso   1.00
H117   H     0.52340   0.56559   0.18585   0.00000  Uiso   1.00
H118   H     0.87256   0.66239   0.80759   0.00000  Uiso   1.00
H119   H     0.69877   0.50461   0.81138   0.00000  Uiso   1.00
H120   H     0.31946   0.58931   0.46690   0.00000  Uiso   1.00
H121   H     0.05569   0.79341   0.66927   0.00000  Uiso   1.00
H122   H     0.68923   0.46069   0.67726   0.00000  Uiso   1.00
H123   H     0.59332   0.95941   0.96483   0.00000  Uiso   1.00
H124   H     0.41569   0.95767   0.21652   0.00000  Uiso   1.00
H125   H     0.76486   0.05447   0.83825   0.00000  Uiso   1.00
H126   H     0.59107   0.89669   0.84205   0.00000  Uiso   1.00
H127   H     0.23204   0.90754   0.49179   0.00000  Uiso   1.00
H128   H     0.96828   0.11164   0.69415   0.00000  Uiso   1.00
H129   H     0.60181   0.77893   0.70215   0.00000  Uiso   1.00
O130   O     0.16076   0.74059   0.64439   0.00000  Uiso   1.00
O131   O     0.12668   0.00836   0.59791   0.00000  Uiso   1.00
O132   O     0.64589   0.57184   0.60841   0.00000  Uiso   1.00
N133   N     0.32325   0.66443   0.43822   0.00000  Uiso   1.00
N134   N     0.01158   0.85526   0.69249   0.00000  Uiso   1.00
N135   N     0.66900   0.54420   0.69994   0.00000  Uiso   1.00
N136   N     0.27621   0.83567   0.45161   0.00000  Uiso   1.00
N137   N     0.96454   0.02650   0.70589   0.00000  Uiso   1.00
N138   N     0.62196   0.71544   0.71333   0.00000  Uiso   1.00
C139   C     0.32798   0.17287   0.55758   0.00000  Uiso   1.00
C140   C     0.43560   0.21238   0.41766   0.00000  Uiso   1.00
C141   C     0.49988   0.15023   0.30749   0.00000  Uiso   1.00
C142   C     0.59539   0.20138   0.18830   0.00000  Uiso   1.00
C143   C     0.75790   0.24612   0.97236   0.00000  Uiso   1.00
C144   C     0.24590   0.26499   0.62317   0.00000  Uiso   1.00
C145   C     0.15067   0.24705   0.68580   0.00000  Uiso   1.00
C146   C     0.08648   0.34248   0.73963   0.00000  Uiso   1.00
C147   C     0.95444   0.46887   0.84282   0.00000  Uiso   1.00
C148   C     0.34033   0.17925   0.62110   0.00000  Uiso   1.00
C149   C     0.32448   0.08924   0.68202   0.00000  Uiso   1.00
C150   C     0.33977   0.11250   0.73413   0.00000  Uiso   1.00
C151   C     0.35435   0.10577   0.83410   0.00000  Uiso   1.00
C152   C     0.38329   0.37425   0.54183   0.00000  Uiso   1.00
C153   C     0.46564   0.32177   0.40912   0.00000  Uiso   1.00
C154   C     0.56108   0.37303   0.29006   0.00000  Uiso   1.00
C155   C     0.62549   0.31096   0.17973   0.00000  Uiso   1.00
C156   C     0.27594   0.37436   0.61462   0.00000  Uiso   1.00
C157   C     0.21187   0.46984   0.66838   0.00000  Uiso   1.00
C158   C     0.11658   0.45206   0.73106   0.00000  Uiso   1.00
C159   C     0.37038   0.28863   0.61255   0.00000  Uiso   1.00
C160   C     0.38568   0.31204   0.66459   0.00000  Uiso   1.00
C161   C     0.36987   0.22208   0.72556   0.00000  Uiso   1.00
H162   H     0.30458   0.08772   0.56424   0.00000  Uiso   1.00
H163   H     0.47660   0.06559   0.31415   0.00000  Uiso   1.00
H164   H     0.12744   0.16239   0.69241   0.00000  Uiso   1.00
H165   H     0.30123   0.00461   0.68862   0.00000  Uiso   1.00
H166   H     0.68054   0.08931   0.03310   0.00000  Uiso   1.00
H167   H     0.94431   0.29341   0.83073   0.00000  Uiso   1.00
H168   H     0.31077   0.96069   0.82274   0.00000  Uiso   1.00
H169   H     0.40668   0.45941   0.53517   0.00000  Uiso   1.00
H170   H     0.58431   0.45767   0.28348   0.00000  Uiso   1.00
H171   H     0.23514   0.55447   0.66175   0.00000  Uiso   1.00
H172   H     0.40893   0.39669   0.65795   0.00000  Uiso   1.00
H173   H     0.76796   0.40754   0.00821   0.00000  Uiso   1.00
H174   H     0.03172   0.61164   0.80585   0.00000  Uiso   1.00
H175   H     0.39819   0.27893   0.79785   0.00000  Uiso   1.00
O176   O     0.83924   0.24059   0.85561   0.00000  Uiso   1.00
O177   O     0.87332   0.50836   0.90209   0.00000  Uiso   1.00
O178   O     0.35411   0.07184   0.89159   0.00000  Uiso   1.00
N179   N     0.67675   0.16443   0.06178   0.00000  Uiso   1.00
N180   N     0.98842   0.35526   0.80751   0.00000  Uiso   1.00
N181   N     0.33100   0.04420   0.80006   0.00000  Uiso   1.00
N182   N     0.72379   0.33567   0.04839   0.00000  Uiso   1.00
N183   N     0.03546   0.52650   0.79411   0.00000  Uiso   1.00
N184   N     0.37804   0.21544   0.78667   0.00000  Uiso   1.00
