data_job_00619
_audit_creation_date              2018-12-19
_audit_creation_method            'Materials Studio'
_symmetry_space_group_name_H-M    'P1'
_symmetry_Int_Tables_number       1
_symmetry_cell_setting            triclinic
loop_
_symmetry_equiv_pos_as_xyz
  x,y,z
_cell_length_a                    24.4768
_cell_length_b                    12.4818
_cell_length_c                    22.2300
_cell_angle_alpha                 90.0000
_cell_angle_beta                  155.8551
_cell_angle_gamma                 90.0000
loop_
_atom_site_label
_atom_site_type_symbol
_atom_site_fract_x
_atom_site_fract_y
_atom_site_fract_z
_atom_site_U_iso_or_equiv
_atom_site_adp_type
_atom_site_occupancy
C1     C     0.61623   0.60857   0.81900   0.00000  Uiso   1.00
C2     C     0.70025   0.71018   0.90771   0.00000  Uiso   1.00
C3     C     0.72377   0.76878   0.98333   0.00000  Uiso   1.00
C4     C     0.80331   0.85937   0.05779   0.00000  Uiso   1.00
C5     C     0.92550   0.01250   0.19566   0.00000  Uiso   1.00
C6     C     0.50943   0.63115   0.66446   0.00000  Uiso   1.00
C7     C     0.37251   0.62327   0.53555   0.00000  Uiso   1.00
C8     C     0.29142   0.64732   0.40524   0.00000  Uiso   1.00
C9     C     0.11736   0.67767   0.16544   0.00000  Uiso   1.00
C10    C     0.70717   0.52323   0.88331   0.00000  Uiso   1.00
C11    C     0.73648   0.42460   0.93838   0.00000  Uiso   1.00
C12    C     0.82185   0.35777   0.99230   0.00000  Uiso   1.00
C13    C     0.95480   0.22056   0.09230   0.00000  Uiso   1.00
C14    C     0.71570   0.66526   0.81680   0.00000  Uiso   1.00
C15    C     0.75427   0.74098   0.90651   0.00000  Uiso   1.00
C16    C     0.83381   0.83150   0.98089   0.00000  Uiso   1.00
C17    C     0.85744   0.89022   0.05660   0.00000  Uiso   1.00
C18    C     0.56345   0.66194   0.66326   0.00000  Uiso   1.00
C19    C     0.48255   0.68600   0.53311   0.00000  Uiso   1.00
C20    C     0.34554   0.67817   0.40404   0.00000  Uiso   1.00
C21    C     0.76119   0.55402   0.88212   0.00000  Uiso   1.00
C22    C     0.84653   0.48733   0.93595   0.00000  Uiso   1.00
C23    C     0.87597   0.38862   0.99110   0.00000  Uiso   1.00
H24    H     0.57417   0.58460   0.81992   0.00000  Uiso   1.00
H25    H     0.68193   0.74492   0.98421   0.00000  Uiso   1.00
H26    H     0.33073   0.59943   0.53651   0.00000  Uiso   1.00
H27    H     0.69465   0.40080   0.93928   0.00000  Uiso   1.00
H28    H     0.82519   0.93628   0.16579   0.00000  Uiso   1.00
H29    H     0.08467   0.62947   0.22177   0.00000  Uiso   1.00
H30    H     0.85206   0.21060   0.07110   0.00000  Uiso   1.00
H31    H     0.75775   0.68924   0.81586   0.00000  Uiso   1.00
H32    H     0.87560   0.85531   0.97994   0.00000  Uiso   1.00
H33    H     0.52439   0.70982   0.53223   0.00000  Uiso   1.00
H34    H     0.88831   0.51119   0.93500   0.00000  Uiso   1.00
H35    H     0.98237   0.02588   0.16231   0.00000  Uiso   1.00
H36    H     0.24185   0.71906   0.21829   0.00000  Uiso   1.00
H37    H     0.00924   0.30020   0.06762   0.00000  Uiso   1.00
O38    O     0.97795   0.08846   0.27202   0.00000  Uiso   1.00
O39    O     0.00642   0.68591   0.03350   0.00000  Uiso   1.00
O40    O     0.01322   0.13638   0.14781   0.00000  Uiso   1.00
N41    N     0.84603   0.93456   0.14248   0.00000  Uiso   1.00
N42    N     0.15369   0.64773   0.25988   0.00000  Uiso   1.00
N43    N     0.87110   0.25612   0.05389   0.00000  Uiso   1.00
N44    N     0.93061   0.98278   0.14061   0.00000  Uiso   1.00
N45    N     0.23827   0.69594   0.25801   0.00000  Uiso   1.00
N46    N     0.95569   0.30433   0.05202   0.00000  Uiso   1.00
C47    C     0.38377   0.10857   0.68100   0.00000  Uiso   1.00
C48    C     0.29975   0.21018   0.59229   0.00000  Uiso   1.00
C49    C     0.27623   0.26878   0.51667   0.00000  Uiso   1.00
C50    C     0.19669   0.35937   0.44221   0.00000  Uiso   1.00
C51    C     0.07450   0.51250   0.30434   0.00000  Uiso   1.00
C52    C     0.49057   0.13115   0.83554   0.00000  Uiso   1.00
C53    C     0.62749   0.12327   0.96445   0.00000  Uiso   1.00
C54    C     0.70858   0.14732   0.09476   0.00000  Uiso   1.00
C55    C     0.88264   0.17767   0.33456   0.00000  Uiso   1.00
C56    C     0.29283   0.02323   0.61669   0.00000  Uiso   1.00
C57    C     0.26352   0.92460   0.56162   0.00000  Uiso   1.00
C58    C     0.17815   0.85777   0.50770   0.00000  Uiso   1.00
C59    C     0.04520   0.72056   0.40770   0.00000  Uiso   1.00
C60    C     0.28430   0.16526   0.68320   0.00000  Uiso   1.00
C61    C     0.24573   0.24098   0.59349   0.00000  Uiso   1.00
C62    C     0.16619   0.33150   0.51911   0.00000  Uiso   1.00
C63    C     0.14256   0.39022   0.44340   0.00000  Uiso   1.00
C64    C     0.43655   0.16194   0.83674   0.00000  Uiso   1.00
C65    C     0.51745   0.18600   0.96689   0.00000  Uiso   1.00
C66    C     0.65446   0.17817   0.09596   0.00000  Uiso   1.00
C67    C     0.23881   0.05402   0.61788   0.00000  Uiso   1.00
C68    C     0.15347   0.98733   0.56405   0.00000  Uiso   1.00
C69    C     0.12403   0.88862   0.50890   0.00000  Uiso   1.00
H70    H     0.42583   0.08460   0.68008   0.00000  Uiso   1.00
H71    H     0.31807   0.24492   0.51579   0.00000  Uiso   1.00
H72    H     0.66927   0.09943   0.96349   0.00000  Uiso   1.00
H73    H     0.30535   0.90080   0.56072   0.00000  Uiso   1.00
H74    H     0.17481   0.43628   0.33421   0.00000  Uiso   1.00
H75    H     0.91533   0.12947   0.27823   0.00000  Uiso   1.00
H76    H     0.14794   0.71060   0.42890   0.00000  Uiso   1.00
H77    H     0.24225   0.18924   0.68414   0.00000  Uiso   1.00
H78    H     0.12440   0.35531   0.52006   0.00000  Uiso   1.00
H79    H     0.47561   0.20982   0.96777   0.00000  Uiso   1.00
H80    H     0.11169   0.01119   0.56500   0.00000  Uiso   1.00
H81    H     0.01763   0.52588   0.33769   0.00000  Uiso   1.00
H82    H     0.75815   0.21906   0.28171   0.00000  Uiso   1.00
H83    H     0.99076   0.80020   0.43238   0.00000  Uiso   1.00
O84    O     0.02205   0.58846   0.22798   0.00000  Uiso   1.00
O85    O     0.99358   0.18591   0.46650   0.00000  Uiso   1.00
O86    O     0.98678   0.63638   0.35219   0.00000  Uiso   1.00
N87    N     0.15397   0.43456   0.35752   0.00000  Uiso   1.00
N88    N     0.84631   0.14773   0.24012   0.00000  Uiso   1.00
N89    N     0.12890   0.75612   0.44611   0.00000  Uiso   1.00
N90    N     0.06939   0.48278   0.35939   0.00000  Uiso   1.00
N91    N     0.76173   0.19594   0.24199   0.00000  Uiso   1.00
N92    N     0.04431   0.80433   0.44798   0.00000  Uiso   1.00
C93    C     0.38377   0.39143   0.18100   0.00000  Uiso   1.00
C94    C     0.29975   0.28982   0.09229   0.00000  Uiso   1.00
C95    C     0.27623   0.23122   0.01667   0.00000  Uiso   1.00
C96    C     0.19669   0.14063   0.94221   0.00000  Uiso   1.00
C97    C     0.07450   0.98750   0.80434   0.00000  Uiso   1.00
C98    C     0.49057   0.36885   0.33554   0.00000  Uiso   1.00
C99    C     0.62749   0.37673   0.46445   0.00000  Uiso   1.00
C100   C     0.70858   0.35268   0.59476   0.00000  Uiso   1.00
C101   C     0.88264   0.32233   0.83456   0.00000  Uiso   1.00
C102   C     0.29283   0.47677   0.11669   0.00000  Uiso   1.00
C103   C     0.26352   0.57540   0.06162   0.00000  Uiso   1.00
C104   C     0.17815   0.64223   0.00770   0.00000  Uiso   1.00
C105   C     0.04520   0.77944   0.90770   0.00000  Uiso   1.00
C106   C     0.28430   0.33474   0.18320   0.00000  Uiso   1.00
C107   C     0.24573   0.25902   0.09349   0.00000  Uiso   1.00
C108   C     0.16619   0.16850   0.01911   0.00000  Uiso   1.00
C109   C     0.14256   0.10978   0.94340   0.00000  Uiso   1.00
C110   C     0.43655   0.33806   0.33674   0.00000  Uiso   1.00
C111   C     0.51745   0.31400   0.46689   0.00000  Uiso   1.00
C112   C     0.65446   0.32183   0.59596   0.00000  Uiso   1.00
C113   C     0.23881   0.44598   0.11788   0.00000  Uiso   1.00
C114   C     0.15347   0.51267   0.06405   0.00000  Uiso   1.00
C115   C     0.12403   0.61138   0.00890   0.00000  Uiso   1.00
H116   H     0.42583   0.41540   0.18008   0.00000  Uiso   1.00
H117   H     0.31807   0.25508   0.01579   0.00000  Uiso   1.00
H118   H     0.66927   0.40057   0.46349   0.00000  Uiso   1.00
H119   H     0.30535   0.59920   0.06072   0.00000  Uiso   1.00
H120   H     0.17481   0.06372   0.83421   0.00000  Uiso   1.00
H121   H     0.91533   0.37053   0.77823   0.00000  Uiso   1.00
H122   H     0.14794   0.78940   0.92890   0.00000  Uiso   1.00
H123   H     0.24225   0.31076   0.18414   0.00000  Uiso   1.00
H124   H     0.12440   0.14469   0.02006   0.00000  Uiso   1.00
H125   H     0.47561   0.29018   0.46777   0.00000  Uiso   1.00
H126   H     0.11169   0.48881   0.06500   0.00000  Uiso   1.00
H127   H     0.01763   0.97412   0.83769   0.00000  Uiso   1.00
H128   H     0.75815   0.28094   0.78171   0.00000  Uiso   1.00
H129   H     0.99076   0.69980   0.93238   0.00000  Uiso   1.00
O130   O     0.02205   0.91154   0.72798   0.00000  Uiso   1.00
O131   O     0.99358   0.31409   0.96650   0.00000  Uiso   1.00
O132   O     0.98678   0.86362   0.85219   0.00000  Uiso   1.00
N133   N     0.15397   0.06544   0.85752   0.00000  Uiso   1.00
N134   N     0.84631   0.35227   0.74012   0.00000  Uiso   1.00
N135   N     0.12890   0.74388   0.94611   0.00000  Uiso   1.00
N136   N     0.06939   0.01722   0.85939   0.00000  Uiso   1.00
N137   N     0.76173   0.30406   0.74199   0.00000  Uiso   1.00
N138   N     0.04431   0.69567   0.94798   0.00000  Uiso   1.00
C139   C     0.61623   0.89143   0.31900   0.00000  Uiso   1.00
C140   C     0.70025   0.78982   0.40771   0.00000  Uiso   1.00
C141   C     0.72377   0.73122   0.48333   0.00000  Uiso   1.00
C142   C     0.80331   0.64063   0.55779   0.00000  Uiso   1.00
C143   C     0.92550   0.48750   0.69566   0.00000  Uiso   1.00
C144   C     0.50943   0.86885   0.16446   0.00000  Uiso   1.00
C145   C     0.37251   0.87673   0.03555   0.00000  Uiso   1.00
C146   C     0.29142   0.85268   0.90524   0.00000  Uiso   1.00
C147   C     0.11736   0.82233   0.66544   0.00000  Uiso   1.00
C148   C     0.70717   0.97677   0.38331   0.00000  Uiso   1.00
C149   C     0.73648   0.07540   0.43838   0.00000  Uiso   1.00
C150   C     0.82185   0.14223   0.49230   0.00000  Uiso   1.00
C151   C     0.95480   0.27944   0.59230   0.00000  Uiso   1.00
C152   C     0.71570   0.83474   0.31680   0.00000  Uiso   1.00
C153   C     0.75427   0.75902   0.40651   0.00000  Uiso   1.00
C154   C     0.83381   0.66850   0.48089   0.00000  Uiso   1.00
C155   C     0.85744   0.60978   0.55660   0.00000  Uiso   1.00
C156   C     0.56345   0.83806   0.16326   0.00000  Uiso   1.00
C157   C     0.48255   0.81400   0.03311   0.00000  Uiso   1.00
C158   C     0.34554   0.82183   0.90404   0.00000  Uiso   1.00
C159   C     0.76119   0.94598   0.38212   0.00000  Uiso   1.00
C160   C     0.84653   0.01267   0.43595   0.00000  Uiso   1.00
C161   C     0.87597   0.11138   0.49110   0.00000  Uiso   1.00
H162   H     0.57417   0.91540   0.31992   0.00000  Uiso   1.00
H163   H     0.68193   0.75508   0.48421   0.00000  Uiso   1.00
H164   H     0.33073   0.90057   0.03651   0.00000  Uiso   1.00
H165   H     0.69465   0.09920   0.43928   0.00000  Uiso   1.00
H166   H     0.82519   0.56372   0.66579   0.00000  Uiso   1.00
H167   H     0.08467   0.87053   0.72177   0.00000  Uiso   1.00
H168   H     0.85206   0.28940   0.57110   0.00000  Uiso   1.00
H169   H     0.75775   0.81076   0.31586   0.00000  Uiso   1.00
H170   H     0.87560   0.64469   0.47994   0.00000  Uiso   1.00
H171   H     0.52439   0.79018   0.03223   0.00000  Uiso   1.00
H172   H     0.88831   0.98881   0.43500   0.00000  Uiso   1.00
H173   H     0.98237   0.47412   0.66231   0.00000  Uiso   1.00
H174   H     0.24185   0.78094   0.71829   0.00000  Uiso   1.00
H175   H     0.00924   0.19980   0.56762   0.00000  Uiso   1.00
O176   O     0.97795   0.41154   0.77202   0.00000  Uiso   1.00
O177   O     0.00642   0.81409   0.53350   0.00000  Uiso   1.00
O178   O     0.01322   0.36362   0.64781   0.00000  Uiso   1.00
N179   N     0.84603   0.56544   0.64248   0.00000  Uiso   1.00
N180   N     0.15369   0.85227   0.75988   0.00000  Uiso   1.00
N181   N     0.87110   0.24388   0.55389   0.00000  Uiso   1.00
N182   N     0.93061   0.51722   0.64061   0.00000  Uiso   1.00
N183   N     0.23827   0.80406   0.75801   0.00000  Uiso   1.00
N184   N     0.95569   0.19567   0.55202   0.00000  Uiso   1.00
