data_job_06792
_audit_creation_date              2018-12-19
_audit_creation_method            'Materials Studio'
_symmetry_space_group_name_H-M    'P1'
_symmetry_Int_Tables_number       1
_symmetry_cell_setting            triclinic
loop_
_symmetry_equiv_pos_as_xyz
  x,y,z
_cell_length_a                    22.1458
_cell_length_b                    22.7430
_cell_length_c                    22.3917
_cell_angle_alpha                 103.1530
_cell_angle_beta                  105.4810
_cell_angle_gamma                 113.7770
loop_
_atom_site_label
_atom_site_type_symbol
_atom_site_fract_x
_atom_site_fract_y
_atom_site_fract_z
_atom_site_U_iso_or_equiv
_atom_site_adp_type
_atom_site_occupancy
C1     C     0.38074   0.79932   0.65913   0.00000  Uiso   1.00
C2     C     0.40490   0.84765   0.73064   0.00000  Uiso   1.00
C3     C     0.38402   0.82781   0.77925   0.00000  Uiso   1.00
C4     C     0.41207   0.87983   0.84160   0.00000  Uiso   1.00
C5     C     0.44236   0.94432   0.95061   0.00000  Uiso   1.00
C6     C     0.34736   0.82841   0.61354   0.00000  Uiso   1.00
C7     C     0.27811   0.79239   0.56368   0.00000  Uiso   1.00
C8     C     0.25773   0.82822   0.52745   0.00000  Uiso   1.00
C9     C     0.19872   0.86283   0.45462   0.00000  Uiso   1.00
C10    C     0.44954   0.80940   0.64988   0.00000  Uiso   1.00
C11    C     0.46619   0.75740   0.63056   0.00000  Uiso   1.00
C12    C     0.53183   0.77722   0.62491   0.00000  Uiso   1.00
C13    C     0.63146   0.78232   0.60851   0.00000  Uiso   1.00
C14    C     0.46768   0.92699   0.68343   0.00000  Uiso   1.00
C15    C     0.45212   0.91699   0.74384   0.00000  Uiso   1.00
C16    C     0.48021   0.96906   0.80613   0.00000  Uiso   1.00
C17    C     0.45938   0.94930   0.85482   0.00000  Uiso   1.00
C18    C     0.39458   0.89776   0.62673   0.00000  Uiso   1.00
C19    C     0.37430   0.93364   0.59056   0.00000  Uiso   1.00
C20    C     0.30504   0.89769   0.54067   0.00000  Uiso   1.00
C21    C     0.49676   0.87875   0.66308   0.00000  Uiso   1.00
C22    C     0.56238   0.89865   0.65745   0.00000  Uiso   1.00
C23    C     0.57913   0.84669   0.63813   0.00000  Uiso   1.00
H24    H     0.34397   0.74534   0.64885   0.00000  Uiso   1.00
H25    H     0.34747   0.77414   0.76901   0.00000  Uiso   1.00
H26    H     0.24158   0.73873   0.55347   0.00000  Uiso   1.00
H27    H     0.42963   0.70374   0.62035   0.00000  Uiso   1.00
H28    H     0.37215   0.83666   0.90804   0.00000  Uiso   1.00
H29    H     0.14889   0.76199   0.45355   0.00000  Uiso   1.00
H30    H     0.54543   0.68820   0.59457   0.00000  Uiso   1.00
H31    H     0.50445   0.98098   0.69371   0.00000  Uiso   1.00
H32    H     0.51675   0.02272   0.81633   0.00000  Uiso   1.00
H33    H     0.41086   0.98731   0.60079   0.00000  Uiso   1.00
H34    H     0.59891   0.95232   0.66767   0.00000  Uiso   1.00
H35    H     0.50954   0.03841   0.94644   0.00000  Uiso   1.00
H36    H     0.28628   0.96374   0.49195   0.00000  Uiso   1.00
H37    H     0.68282   0.88996   0.63298   0.00000  Uiso   1.00
O38    O     0.44602   0.96074   0.00709   0.00000  Uiso   1.00
O39    O     0.15312   0.86277   0.41081   0.00000  Uiso   1.00
O40    O     0.67337   0.76597   0.59583   0.00000  Uiso   1.00
N41    N     0.40280   0.87841   0.90025   0.00000  Uiso   1.00
N42    N     0.19407   0.80860   0.47534   0.00000  Uiso   1.00
N43    N     0.56479   0.73962   0.60717   0.00000  Uiso   1.00
N44    N     0.47674   0.98697   0.92092   0.00000  Uiso   1.00
N45    N     0.26800   0.91716   0.49601   0.00000  Uiso   1.00
N46    N     0.63872   0.84818   0.62783   0.00000  Uiso   1.00
C47    C     0.61427   0.38149   0.69592   0.00000  Uiso   1.00
C48    C     0.69474   0.42065   0.74008   0.00000  Uiso   1.00
C49    C     0.74692   0.41068   0.72352   0.00000  Uiso   1.00
C50    C     0.81756   0.45168   0.77077   0.00000  Uiso   1.00
C51    C     0.93980   0.50498   0.83000   0.00000  Uiso   1.00
C52    C     0.57652   0.34914   0.73728   0.00000  Uiso   1.00
C53    C     0.52930   0.27905   0.71835   0.00000  Uiso   1.00
C54    C     0.50042   0.25986   0.76324   0.00000  Uiso   1.00
C55    C     0.43908   0.20214   0.81808   0.00000  Uiso   1.00
C56    C     0.59395   0.43672   0.68809   0.00000  Uiso   1.00
C57    C     0.56135   0.44027   0.62780   0.00000  Uiso   1.00
C58    C     0.54713   0.49480   0.63128   0.00000  Uiso   1.00
C59    C     0.51285   0.57307   0.60976   0.00000  Uiso   1.00
C60    C     0.64695   0.47203   0.80930   0.00000  Uiso   1.00
C61    C     0.71249   0.46983   0.80167   0.00000  Uiso   1.00
C62    C     0.78307   0.51086   0.84896   0.00000  Uiso   1.00
C63    C     0.83535   0.50095   0.83246   0.00000  Uiso   1.00
C64    C     0.59427   0.39832   0.79886   0.00000  Uiso   1.00
C65    C     0.56545   0.37922   0.84379   0.00000  Uiso   1.00
C66    C     0.51820   0.30912   0.82493   0.00000  Uiso   1.00
C67    C     0.61170   0.48591   0.74967   0.00000  Uiso   1.00
C68    C     0.59752   0.54044   0.75325   0.00000  Uiso   1.00
C69    C     0.56491   0.54407   0.69298   0.00000  Uiso   1.00
H70    H     0.60045   0.34320   0.64797   0.00000  Uiso   1.00
H71    H     0.73316   0.37261   0.67585   0.00000  Uiso   1.00
H72    H     0.51556   0.24101   0.67068   0.00000  Uiso   1.00
H73    H     0.54763   0.40220   0.58016   0.00000  Uiso   1.00
H74    H     0.88811   0.42689   0.73394   0.00000  Uiso   1.00
H75    H     0.42929   0.14939   0.72302   0.00000  Uiso   1.00
H76    H     0.49689   0.48930   0.53212   0.00000  Uiso   1.00
H77    H     0.66077   0.51032   0.85724   0.00000  Uiso   1.00
H78    H     0.79679   0.54891   0.89661   0.00000  Uiso   1.00
H79    H     0.57920   0.41730   0.89144   0.00000  Uiso   1.00
H80    H     0.61126   0.57849   0.80091   0.00000  Uiso   1.00
H81    H     0.93976   0.56998   0.91311   0.00000  Uiso   1.00
H82    H     0.48093   0.29248   0.90219   0.00000  Uiso   1.00
H83    H     0.54854   0.63238   0.71130   0.00000  Uiso   1.00
O84    O     0.00232   0.52079   0.84565   0.00000  Uiso   1.00
O85    O     0.40035   0.15672   0.83133   0.00000  Uiso   1.00
O86    O     0.48905   0.60267   0.58088   0.00000  Uiso   1.00
N87    N     0.88160   0.45528   0.77070   0.00000  Uiso   1.00
N88    N     0.45264   0.19583   0.76050   0.00000  Uiso   1.00
N89    N     0.51582   0.51361   0.58202   0.00000  Uiso   1.00
N90    N     0.90939   0.53228   0.86711   0.00000  Uiso   1.00
N91    N     0.48043   0.27283   0.85691   0.00000  Uiso   1.00
N92    N     0.54361   0.59060   0.67844   0.00000  Uiso   1.00
C93    C     0.78596   0.69059   0.33192   0.00000  Uiso   1.00
C94    C     0.84537   0.76155   0.38486   0.00000  Uiso   1.00
C95    C     0.85533   0.82526   0.38294   0.00000  Uiso   1.00
C96    C     0.91286   0.88424   0.43621   0.00000  Uiso   1.00
C97    C     0.99815   0.99513   0.51030   0.00000  Uiso   1.00
C98    C     0.82408   0.65271   0.30936   0.00000  Uiso   1.00
C99    C     0.81613   0.62492   0.24397   0.00000  Uiso   1.00
C100   C     0.85572   0.59228   0.23369   0.00000  Uiso   1.00
C101   C     0.90792   0.53416   0.19056   0.00000  Uiso   1.00
C102   C     0.74629   0.65163   0.36869   0.00000  Uiso   1.00
C103   C     0.67293   0.62290   0.35317   0.00000  Uiso   1.00
C104   C     0.64703   0.58933   0.39283   0.00000  Uiso   1.00
C105   C     0.57846   0.52953   0.44182   0.00000  Uiso   1.00
C106   C     0.87039   0.68203   0.42993   0.00000  Uiso   1.00
C107   C     0.89123   0.75690   0.43809   0.00000  Uiso   1.00
C108   C     0.94875   0.81580   0.49138   0.00000  Uiso   1.00
C109   C     0.95880   0.87959   0.48954   0.00000  Uiso   1.00
C110   C     0.86993   0.64807   0.36259   0.00000  Uiso   1.00
C111   C     0.90954   0.61545   0.35241   0.00000  Uiso   1.00
C112   C     0.90166   0.58762   0.28702   0.00000  Uiso   1.00
C113   C     0.79215   0.64698   0.42193   0.00000  Uiso   1.00
C114   C     0.76635   0.61344   0.46161   0.00000  Uiso   1.00
C115   C     0.69298   0.58468   0.44616   0.00000  Uiso   1.00
H116   H     0.75025   0.69420   0.29047   0.00000  Uiso   1.00
H117   H     0.81984   0.82884   0.34173   0.00000  Uiso   1.00
H118   H     0.78063   0.62852   0.20278   0.00000  Uiso   1.00
H119   H     0.63746   0.62651   0.31197   0.00000  Uiso   1.00
H120   H     0.91722   0.97606   0.42203   0.00000  Uiso   1.00
H121   H     0.83454   0.55365   0.12905   0.00000  Uiso   1.00
H122   H     0.53264   0.54942   0.35929   0.00000  Uiso   1.00
H123   H     0.90609   0.67841   0.47137   0.00000  Uiso   1.00
H124   H     0.98423   0.81218   0.53257   0.00000  Uiso   1.00
H125   H     0.94502   0.61186   0.39361   0.00000  Uiso   1.00
H126   H     0.80186   0.60986   0.50280   0.00000  Uiso   1.00
H127   H     0.05065   0.96254   0.57692   0.00000  Uiso   1.00
H128   H     0.96796   0.54013   0.28393   0.00000  Uiso   1.00
H129   H     0.66607   0.53590   0.51418   0.00000  Uiso   1.00
O130   O     0.03254   0.05758   0.53645   0.00000  Uiso   1.00
O131   O     0.92405   0.50340   0.15207   0.00000  Uiso   1.00
O132   O     0.52797   0.49784   0.45414   0.00000  Uiso   1.00
N133   N     0.93789   0.95452   0.45009   0.00000  Uiso   1.00
N134   N     0.86060   0.55960   0.17617   0.00000  Uiso   1.00
N135   N     0.57834   0.55563   0.39142   0.00000  Uiso   1.00
N136   N     0.00969   0.94724   0.53343   0.00000  Uiso   1.00
N137   N     0.93239   0.55233   0.25951   0.00000  Uiso   1.00
N138   N     0.65014   0.54835   0.47476   0.00000  Uiso   1.00
C139   C     0.95931   0.17709   0.38653   0.00000  Uiso   1.00
C140   C     0.97169   0.24405   0.43503   0.00000  Uiso   1.00
C141   C     0.96032   0.29459   0.41746   0.00000  Uiso   1.00
C142   C     0.97481   0.35204   0.46922   0.00000  Uiso   1.00
C143   C     0.99019   0.45500   0.53434   0.00000  Uiso   1.00
C144   C     0.90693   0.11809   0.39933   0.00000  Uiso   1.00
C145   C     0.84111   0.06272   0.35173   0.00000  Uiso   1.00
C146   C     0.80109   0.01413   0.37344   0.00000  Uiso   1.00
C147   C     0.71596   0.92150   0.38312   0.00000  Uiso   1.00
C148   C     0.03081   0.17745   0.40966   0.00000  Uiso   1.00
C149   C     0.06915   0.17197   0.37075   0.00000  Uiso   1.00
C150   C     0.13342   0.17334   0.40116   0.00000  Uiso   1.00
C151   C     0.24063   0.17288   0.42688   0.00000  Uiso   1.00
C152   C     0.00528   0.18924   0.50971   0.00000  Uiso   1.00
C153   C     0.99666   0.25065   0.50194   0.00000  Uiso   1.00
C154   C     0.01117   0.30804   0.55374   0.00000  Uiso   1.00
C155   C     0.99982   0.35866   0.53625   0.00000  Uiso   1.00
C156   C     0.93189   0.12469   0.46623   0.00000  Uiso   1.00
C157   C     0.89197   0.07617   0.48801   0.00000  Uiso   1.00
C158   C     0.82610   0.02074   0.44047   0.00000  Uiso   1.00
C159   C     0.05578   0.18405   0.47657   0.00000  Uiso   1.00
C160   C     0.12001   0.18542   0.50704   0.00000  Uiso   1.00
C161   C     0.15843   0.17995   0.46818   0.00000  Uiso   1.00
H162   H     0.93987   0.17195   0.33444   0.00000  Uiso   1.00
H163   H     0.94099   0.28946   0.36567   0.00000  Uiso   1.00
H164   H     0.82180   0.05762   0.29996   0.00000  Uiso   1.00
H165   H     0.04981   0.16687   0.31898   0.00000  Uiso   1.00
H166   H     0.95321   0.42265   0.42980   0.00000  Uiso   1.00
H167   H     0.70192   0.93379   0.29123   0.00000  Uiso   1.00
H168   H     0.18271   0.16414   0.33133   0.00000  Uiso   1.00
H169   H     0.02472   0.19438   0.56181   0.00000  Uiso   1.00
H170   H     0.03049   0.31313   0.60551   0.00000  Uiso   1.00
H171   H     0.91131   0.08129   0.53979   0.00000  Uiso   1.00
H172   H     0.13931   0.19053   0.55881   0.00000  Uiso   1.00
H173   H     0.02585   0.44186   0.62446   0.00000  Uiso   1.00
H174   H     0.77456   0.95300   0.48589   0.00000  Uiso   1.00
H175   H     0.25535   0.18335   0.52599   0.00000  Uiso   1.00
O176   O     0.99177   0.50995   0.55178   0.00000  Uiso   1.00
O177   O     0.66210   0.86859   0.36997   0.00000  Uiso   1.00
O178   O     0.29288   0.17081   0.42259   0.00000  Uiso   1.00
N179   N     0.96953   0.41088   0.46962   0.00000  Uiso   1.00
N180   N     0.73458   0.95383   0.34006   0.00000  Uiso   1.00
N181   N     0.18407   0.16917   0.37755   0.00000  Uiso   1.00
N182   N     0.00862   0.42122   0.57436   0.00000  Uiso   1.00
N183   N     0.77367   0.96417   0.44481   0.00000  Uiso   1.00
N184   N     0.22316   0.17951   0.48230   0.00000  Uiso   1.00
C185   C     0.10661   0.22858   0.84845   0.00000  Uiso   1.00
C186   C     0.18810   0.27636   0.88041   0.00000  Uiso   1.00
C187   C     0.23757   0.26345   0.86115   0.00000  Uiso   1.00
C188   C     0.30975   0.31363   0.89670   0.00000  Uiso   1.00
C189   C     0.43296   0.37857   0.93826   0.00000  Uiso   1.00
C190   C     0.07427   0.27193   0.82664   0.00000  Uiso   1.00
C191   C     0.02800   0.25530   0.76217   0.00000  Uiso   1.00
C192   C     0.00435   0.30175   0.75246   0.00000  Uiso   1.00
C193   C     0.95079   0.35979   0.71055   0.00000  Uiso   1.00
C194   C     0.08503   0.21425   0.90503   0.00000  Uiso   1.00
C195   C     0.04780   0.14912   0.90646   0.00000  Uiso   1.00
C196   C     0.03319   0.14701   0.96274   0.00000  Uiso   1.00
C197   C     0.99633   0.11550   0.04254   0.00000  Uiso   1.00
C198   C     0.14684   0.34065   0.94584   0.00000  Uiso   1.00
C199   C     0.20996   0.33723   0.93331   0.00000  Uiso   1.00
C200   C     0.28208   0.38744   0.96890   0.00000  Uiso   1.00
C201   C     0.33164   0.37461   0.94970   0.00000  Uiso   1.00
C202   C     0.09612   0.33280   0.87954   0.00000  Uiso   1.00
C203   C     0.07252   0.37929   0.86992   0.00000  Uiso   1.00
C204   C     0.02624   0.36273   0.80545   0.00000  Uiso   1.00
C205   C     0.10688   0.27512   0.95793   0.00000  Uiso   1.00
C206   C     0.09232   0.27311   0.01422   0.00000  Uiso   1.00
C207   C     0.05508   0.20799   0.01574   0.00000  Uiso   1.00
H208   H     0.08959   0.18119   0.80726   0.00000  Uiso   1.00
H209   H     0.22063   0.21634   0.82020   0.00000  Uiso   1.00
H210   H     0.01110   0.20819   0.72124   0.00000  Uiso   1.00
H211   H     0.03089   0.10203   0.86551   0.00000  Uiso   1.00
H212   H     0.37555   0.28216   0.85787   0.00000  Uiso   1.00
H213   H     0.93372   0.26496   0.64921   0.00000  Uiso   1.00
H214   H     0.97545   0.04110   0.95343   0.00000  Uiso   1.00
H215   H     0.16386   0.38804   0.98703   0.00000  Uiso   1.00
H216   H     0.29898   0.43454   0.00984   0.00000  Uiso   1.00
H217   H     0.08944   0.42639   0.91087   0.00000  Uiso   1.00
H218   H     0.10924   0.32023   0.05514   0.00000  Uiso   1.00
H219   H     0.43914   0.45927   0.01178   0.00000  Uiso   1.00
H220   H     0.99730   0.44206   0.80311   0.00000  Uiso   1.00
H221   H     0.03905   0.21820   0.10734   0.00000  Uiso   1.00
O222   O     0.49489   0.39758   0.94657   0.00000  Uiso   1.00
O223   O     0.91521   0.37500   0.67282   0.00000  Uiso   1.00
O224   O     0.96998   0.08131   0.07195   0.00000  Uiso   1.00
N225   N     0.37197   0.31746   0.89097   0.00000  Uiso   1.00
N226   N     0.95889   0.30137   0.69588   0.00000  Uiso   1.00
N227   N     0.99790   0.09209   0.98029   0.00000  Uiso   1.00
N228   N     0.40619   0.41275   0.97379   0.00000  Uiso   1.00
N229   N     0.99311   0.39667   0.77870   0.00000  Uiso   1.00
N230   N     0.03212   0.18738   0.06311   0.00000  Uiso   1.00
C231   C     0.24442   0.87151   0.23341   0.00000  Uiso   1.00
C232   C     0.31124   0.90780   0.29885   0.00000  Uiso   1.00
C233   C     0.32274   0.88165   0.34850   0.00000  Uiso   1.00
C234   C     0.38738   0.92281   0.40459   0.00000  Uiso   1.00
C235   C     0.48335   0.96925   0.50525   0.00000  Uiso   1.00
C236   C     0.27140   0.86693   0.17750   0.00000  Uiso   1.00
C237   C     0.24939   0.80643   0.12511   0.00000  Uiso   1.00
C238   C     0.28048   0.81320   0.07905   0.00000  Uiso   1.00
C239   C     0.31456   0.79620   0.99128   0.00000  Uiso   1.00
C240   C     0.21529   0.92176   0.23165   0.00000  Uiso   1.00
C241   C     0.14608   0.90736   0.22477   0.00000  Uiso   1.00
C242   C     0.12993   0.96028   0.22428   0.00000  Uiso   1.00
C243   C     0.07688   0.02841   0.22058   0.00000  Uiso   1.00
C244   C     0.33878   0.99110   0.24475   0.00000  Uiso   1.00
C245   C     0.36250   0.97275   0.30501   0.00000  Uiso   1.00
C246   C     0.42713   0.01396   0.36104   0.00000  Uiso   1.00
C247   C     0.43872   0.98788   0.41076   0.00000  Uiso   1.00
C248   C     0.32265   0.93188   0.18366   0.00000  Uiso   1.00
C249   C     0.35378   0.93874   0.13765   0.00000  Uiso   1.00
C250   C     0.33183   0.87827   0.08521   0.00000  Uiso   1.00
C251   C     0.26654   0.98671   0.23781   0.00000  Uiso   1.00
C252   C     0.25048   0.03966   0.23732   0.00000  Uiso   1.00
C253   C     0.18127   0.02535   0.23045   0.00000  Uiso   1.00
H254   H     0.20452   0.82094   0.22861   0.00000  Uiso   1.00
H255   H     0.28306   0.83138   0.34371   0.00000  Uiso   1.00
H256   H     0.20972   0.75618   0.12036   0.00000  Uiso   1.00
H257   H     0.10644   0.85709   0.22001   0.00000  Uiso   1.00
H258   H     0.39276   0.87159   0.47402   0.00000  Uiso   1.00
H259   H     0.23809   0.71302   0.00306   0.00000  Uiso   1.00
H260   H     0.02029   0.92580   0.21318   0.00000  Uiso   1.00
H261   H     0.37868   0.04167   0.24954   0.00000  Uiso   1.00
H262   H     0.46678   0.06422   0.36579   0.00000  Uiso   1.00
H263   H     0.39344   0.98901   0.14243   0.00000  Uiso   1.00
H264   H     0.29016   0.08992   0.24208   0.00000  Uiso   1.00
H265   H     0.54187   0.06056   0.49194   0.00000  Uiso   1.00
H266   H     0.38720   0.90199   0.02097   0.00000  Uiso   1.00
H267   H     0.16941   0.11478   0.23110   0.00000  Uiso   1.00
O268   O     0.52214   0.97692   0.55907   0.00000  Uiso   1.00
O269   O     0.31921   0.76888   0.94117   0.00000  Uiso   1.00
O270   O     0.03347   0.04805   0.21686   0.00000  Uiso   1.00
N271   N     0.41575   0.91297   0.46229   0.00000  Uiso   1.00
N272   N     0.27116   0.76472   0.02197   0.00000  Uiso   1.00
N273   N     0.06753   0.96365   0.21840   0.00000  Uiso   1.00
N274   N     0.49599   0.01466   0.47194   0.00000  Uiso   1.00
N275   N     0.35140   0.86641   0.03161   0.00000  Uiso   1.00
N276   N     0.14777   0.06534   0.22805   0.00000  Uiso   1.00
C277   C     0.65390   0.28458   0.35276   0.00000  Uiso   1.00
C278   C     0.62426   0.23687   0.27976   0.00000  Uiso   1.00
C279   C     0.64370   0.25629   0.23038   0.00000  Uiso   1.00
C280   C     0.61045   0.20497   0.16669   0.00000  Uiso   1.00
C281   C     0.57220   0.14126   0.05545   0.00000  Uiso   1.00
C282   C     0.68463   0.25099   0.39449   0.00000  Uiso   1.00
C283   C     0.75483   0.28228   0.44159   0.00000  Uiso   1.00
C284   C     0.77239   0.24283   0.47448   0.00000  Uiso   1.00
C285   C     0.82785   0.20105   0.54139   0.00000  Uiso   1.00
C286   C     0.58864   0.27975   0.36666   0.00000  Uiso   1.00
C287   C     0.57813   0.33523   0.39037   0.00000  Uiso   1.00
C288   C     0.51488   0.32000   0.39985   0.00000  Uiso   1.00
C289   C     0.42130   0.32289   0.42356   0.00000  Uiso   1.00
C290   C     0.56028   0.15889   0.32744   0.00000  Uiso   1.00
C291   C     0.57342   0.16860   0.26602   0.00000  Uiso   1.00
C292   C     0.54012   0.11723   0.20238   0.00000  Uiso   1.00
C293   C     0.55951   0.13657   0.15291   0.00000  Uiso   1.00
C294   C     0.63379   0.18272   0.38075   0.00000  Uiso   1.00
C295   C     0.65125   0.14321   0.41358   0.00000  Uiso   1.00
C296   C     0.72145   0.17443   0.46070   0.00000  Uiso   1.00
C297   C     0.53779   0.21148   0.35291   0.00000  Uiso   1.00
C298   C     0.47455   0.19617   0.36236   0.00000  Uiso   1.00
C299   C     0.46394   0.25161   0.38608   0.00000  Uiso   1.00
H300   H     0.69349   0.33773   0.36346   0.00000  Uiso   1.00
H301   H     0.68306   0.30913   0.24105   0.00000  Uiso   1.00
H302   H     0.79416   0.33511   0.45222   0.00000  Uiso   1.00
H303   H     0.61749   0.38805   0.40101   0.00000  Uiso   1.00
H304   H     0.64910   0.24731   0.09927   0.00000  Uiso   1.00
H305   H     0.88335   0.30210   0.54455   0.00000  Uiso   1.00
H306   H     0.51081   0.41374   0.43657   0.00000  Uiso   1.00
H307   H     0.52069   0.10574   0.31674   0.00000  Uiso   1.00
H308   H     0.50077   0.06440   0.19175   0.00000  Uiso   1.00
H309   H     0.61188   0.09039   0.40293   0.00000  Uiso   1.00
H310   H     0.43521   0.14333   0.35172   0.00000  Uiso   1.00
H311   H     0.50115   0.04868   0.05926   0.00000  Uiso   1.00
H312   H     0.73541   0.10347   0.50455   0.00000  Uiso   1.00
H313   H     0.36286   0.21511   0.39656   0.00000  Uiso   1.00
O314   O     0.56516   0.12498   0.99789   0.00000  Uiso   1.00
O315   O     0.87249   0.19687   0.58210   0.00000  Uiso   1.00
O316   O     0.38373   0.34334   0.44042   0.00000  Uiso   1.00
N317   N     0.61700   0.20624   0.10700   0.00000  Uiso   1.00
N318   N     0.83602   0.25746   0.52331   0.00000  Uiso   1.00
N319   N     0.48773   0.36184   0.42237   0.00000  Uiso   1.00
N320   N     0.53739   0.09935   0.08547   0.00000  Uiso   1.00
N321   N     0.75641   0.15058   0.50178   0.00000  Uiso   1.00
N322   N     0.40812   0.25495   0.40084   0.00000  Uiso   1.00
C323   C     0.30028   0.61544   0.21006   0.00000  Uiso   1.00
C324   C     0.23903   0.60797   0.15215   0.00000  Uiso   1.00
C325   C     0.19463   0.63597   0.15805   0.00000  Uiso   1.00
C326   C     0.14173   0.62326   0.09907   0.00000  Uiso   1.00
C327   C     0.04787   0.61767   0.01867   0.00000  Uiso   1.00
C328   C     0.36764   0.64704   0.19612   0.00000  Uiso   1.00
C329   C     0.43138   0.70790   0.23899   0.00000  Uiso   1.00
C330   C     0.48676   0.72808   0.21701   0.00000  Uiso   1.00
C331   C     0.59259   0.78313   0.20489   0.00000  Uiso   1.00
C332   C     0.28392   0.54172   0.20294   0.00000  Uiso   1.00
C333   C     0.27729   0.51401   0.25155   0.00000  Uiso   1.00
C334   C     0.26220   0.44552   0.23531   0.00000  Uiso   1.00
C335   C     0.23805   0.33704   0.23378   0.00000  Uiso   1.00
C336   C     0.28530   0.54307   0.09481   0.00000  Uiso   1.00
C337   C     0.23089   0.56866   0.08956   0.00000  Uiso   1.00
C338   C     0.17805   0.55591   0.03055   0.00000  Uiso   1.00
C339   C     0.13357   0.58389   0.03636   0.00000  Uiso   1.00
C340   C     0.35950   0.60774   0.13352   0.00000  Uiso   1.00
C341   C     0.41480   0.62784   0.11148   0.00000  Uiso   1.00
C342   C     0.47860   0.68871   0.15430   0.00000  Uiso   1.00
C343   C     0.27578   0.50241   0.14034   0.00000  Uiso   1.00
C344   C     0.26070   0.43395   0.12403   0.00000  Uiso   1.00
C345   C     0.25404   0.40615   0.17260   0.00000  Uiso   1.00
H346   H     0.30663   0.64604   0.25880   0.00000  Uiso   1.00
H347   H     0.20095   0.66639   0.20651   0.00000  Uiso   1.00
H348   H     0.43767   0.73830   0.28743   0.00000  Uiso   1.00
H349   H     0.28359   0.54445   0.29998   0.00000  Uiso   1.00
H350   H     0.08021   0.67164   0.12093   0.00000  Uiso   1.00
H351   H     0.57935   0.82325   0.29157   0.00000  Uiso   1.00
H352   H     0.25446   0.41448   0.31803   0.00000  Uiso   1.00
H353   H     0.27896   0.51247   0.04608   0.00000  Uiso   1.00
H354   H     0.17176   0.52549   0.98211   0.00000  Uiso   1.00
H355   H     0.40848   0.59740   0.06304   0.00000  Uiso   1.00
H356   H     0.25441   0.40355   0.07559   0.00000  Uiso   1.00
H357   H     0.05652   0.55728   0.93880   0.00000  Uiso   1.00
H358   H     0.55567   0.70890   0.10944   0.00000  Uiso   1.00
H359   H     0.23078   0.30012   0.13591   0.00000  Uiso   1.00
O360   O     0.99836   0.62545   0.99162   0.00000  Uiso   1.00
O361   O     0.65322   0.82436   0.21550   0.00000  Uiso   1.00
O362   O     0.22697   0.28805   0.25022   0.00000  Uiso   1.00
N363   N     0.08934   0.64293   0.08684   0.00000  Uiso   1.00
N364   N     0.55600   0.78468   0.24638   0.00000  Uiso   1.00
N365   N     0.25228   0.40252   0.27113   0.00000  Uiso   1.00
N366   N     0.07659   0.58139   0.98884   0.00000  Uiso   1.00
N367   N     0.54326   0.72315   0.14837   0.00000  Uiso   1.00
N368   N     0.23953   0.34098   0.17313   0.00000  Uiso   1.00
C369   C     0.34282   0.35856   0.69216   0.00000  Uiso   1.00
C370   C     0.28225   0.29403   0.69084   0.00000  Uiso   1.00
C371   C     0.28281   0.23273   0.68831   0.00000  Uiso   1.00
C372   C     0.22218   0.17973   0.68748   0.00000  Uiso   1.00
C373   C     0.13713   0.07833   0.68522   0.00000  Uiso   1.00
C374   C     0.36262   0.41815   0.75484   0.00000  Uiso   1.00
C375   C     0.43076   0.46120   0.80612   0.00000  Uiso   1.00
C376   C     0.43778   0.51269   0.85916   0.00000  Uiso   1.00
C377   C     0.47752   0.60400   0.95623   0.00000  Uiso   1.00
C378   C     0.30910   0.37371   0.63287   0.00000  Uiso   1.00
C379   C     0.33225   0.37942   0.58160   0.00000  Uiso   1.00
C380   C     0.29421   0.39351   0.53196   0.00000  Uiso   1.00
C381   C     0.25085   0.41583   0.43965   0.00000  Uiso   1.00
C382   C     0.23413   0.37346   0.69518   0.00000  Uiso   1.00
C383   C     0.22321   0.30213   0.69248   0.00000  Uiso   1.00
C384   C     0.16256   0.24922   0.69166   0.00000  Uiso   1.00
C385   C     0.16303   0.18784   0.68912   0.00000  Uiso   1.00
C386   C     0.30359   0.42624   0.75648   0.00000  Uiso   1.00
C387   C     0.31051   0.47769   0.80946   0.00000  Uiso   1.00
C388   C     0.37864   0.52080   0.86080   0.00000  Uiso   1.00
C389   C     0.25006   0.38180   0.63451   0.00000  Uiso   1.00
C390   C     0.21199   0.39590   0.58494   0.00000  Uiso   1.00
C391   C     0.23507   0.40162   0.53360   0.00000  Uiso   1.00
H392   H     0.38878   0.35226   0.69089   0.00000  Uiso   1.00
H393   H     0.32851   0.22649   0.68705   0.00000  Uiso   1.00
H394   H     0.47644   0.45492   0.80483   0.00000  Uiso   1.00
H395   H     0.37793   0.37315   0.58035   0.00000  Uiso   1.00
H396   H     0.23567   0.09062   0.68355   0.00000  Uiso   1.00
H397   H     0.54758   0.57231   0.93188   0.00000  Uiso   1.00
H398   H     0.33987   0.39988   0.45852   0.00000  Uiso   1.00
H399   H     0.18816   0.37977   0.69646   0.00000  Uiso   1.00
H400   H     0.11688   0.25550   0.69293   0.00000  Uiso   1.00
H401   H     0.26481   0.48394   0.81071   0.00000  Uiso   1.00
H402   H     0.16631   0.40216   0.58623   0.00000  Uiso   1.00
H403   H     0.06391   0.11417   0.68832   0.00000  Uiso   1.00
H404   H     0.37582   0.59586   0.93665   0.00000  Uiso   1.00
H405   H     0.16811   0.42342   0.46329   0.00000  Uiso   1.00
O406   O     0.10653   0.02016   0.68353   0.00000  Uiso   1.00
O407   O     0.51575   0.65212   0.00933   0.00000  Uiso   1.00
O408   O     0.24324   0.42589   0.38828   0.00000  Uiso   1.00
N409   N     0.20502   0.11321   0.68514   0.00000  Uiso   1.00
N410   N     0.49664   0.56356   0.91733   0.00000  Uiso   1.00
N411   N     0.30246   0.40236   0.47478   0.00000  Uiso   1.00
N412   N     0.11260   0.12588   0.68771   0.00000  Uiso   1.00
N413   N     0.40421   0.57623   0.91989   0.00000  Uiso   1.00
N414   N     0.21004   0.41503   0.47734   0.00000  Uiso   1.00
C415   C     0.10827   0.85885   0.77943   0.00000  Uiso   1.00
C416   C     0.09270   0.78388   0.75513   0.00000  Uiso   1.00
C417   C     0.11415   0.75151   0.79515   0.00000  Uiso   1.00
C418   C     0.09458   0.68266   0.76335   0.00000  Uiso   1.00
C419   C     0.07645   0.57161   0.73615   0.00000  Uiso   1.00
C420   C     0.14696   0.89293   0.73946   0.00000  Uiso   1.00
C421   C     0.21403   0.95225   0.76631   0.00000  Uiso   1.00
C422   C     0.24013   0.97519   0.72133   0.00000  Uiso   1.00
C423   C     0.30622   0.03347   0.66981   0.00000  Uiso   1.00
C424   C     0.03519   0.85539   0.75624   0.00000  Uiso   1.00
C425   C     0.00829   0.88316   0.79719   0.00000  Uiso   1.00
C426   C     0.94029   0.87451   0.76633   0.00000  Uiso   1.00
C427   C     0.83284   0.87450   0.74086   0.00000  Uiso   1.00
C428   C     0.03535   0.79413   0.65180   0.00000  Uiso   1.00
C429   C     0.05309   0.74873   0.68580   0.00000  Uiso   1.00
C430   C     0.03347   0.67990   0.65393   0.00000  Uiso   1.00
C431   C     0.05489   0.64744   0.69390   0.00000  Uiso   1.00
C432   C     0.10735   0.85778   0.67014   0.00000  Uiso   1.00
C433   C     0.13335   0.88064   0.62510   0.00000  Uiso   1.00
C434   C     0.20045   0.93997   0.65187   0.00000  Uiso   1.00
C435   C     0.99558   0.82023   0.68691   0.00000  Uiso   1.00
C436   C     0.92761   0.81155   0.65598   0.00000  Uiso   1.00
C437   C     0.90061   0.83929   0.69688   0.00000  Uiso   1.00
H438   H     0.13911   0.88622   0.83341   0.00000  Uiso   1.00
H439   H     0.14481   0.77874   0.84880   0.00000  Uiso   1.00
H440   H     0.24467   0.97945   0.81997   0.00000  Uiso   1.00
H441   H     0.03896   0.91036   0.85084   0.00000  Uiso   1.00
H442   H     0.13369   0.64407   0.83528   0.00000  Uiso   1.00
H443   H     0.34423   0.06729   0.77449   0.00000  Uiso   1.00
H444   H     0.91045   0.92161   0.83960   0.00000  Uiso   1.00
H445   H     0.00451   0.76676   0.59782   0.00000  Uiso   1.00
H446   H     0.00282   0.65271   0.60028   0.00000  Uiso   1.00
H447   H     0.10268   0.85343   0.57145   0.00000  Uiso   1.00
H448   H     0.89697   0.78434   0.60233   0.00000  Uiso   1.00
H449   H     0.01845   0.54179   0.63358   0.00000  Uiso   1.00
H450   H     0.22899   0.96501   0.57279   0.00000  Uiso   1.00
H451   H     0.79521   0.81933   0.63789   0.00000  Uiso   1.00
O452   O     0.07741   0.52007   0.74030   0.00000  Uiso   1.00
O453   O     0.35362   0.07532   0.66055   0.00000  Uiso   1.00
O454   O     0.78451   0.88419   0.74596   0.00000  Uiso   1.00
N455   N     0.10679   0.63565   0.78747   0.00000  Uiso   1.00
N456   N     0.30364   0.03133   0.73064   0.00000  Uiso   1.00
N457   N     0.89809   0.89514   0.79151   0.00000  Uiso   1.00
N458   N     0.04477   0.58061   0.67894   0.00000  Uiso   1.00
N459   N     0.24162   0.97629   0.62211   0.00000  Uiso   1.00
N460   N     0.83608   0.84011   0.68297   0.00000  Uiso   1.00
C461   C     0.86790   0.78075   0.15427   0.00000  Uiso   1.00
C462   C     0.79217   0.71860   0.12591   0.00000  Uiso   1.00
C463   C     0.73885   0.71419   0.14901   0.00000  Uiso   1.00
C464   C     0.67316   0.65288   0.11634   0.00000  Uiso   1.00
C465   C     0.55739   0.56470   0.08051   0.00000  Uiso   1.00
C466   C     0.91953   0.75312   0.17332   0.00000  Uiso   1.00
C467   C     0.97331   0.77775   0.23629   0.00000  Uiso   1.00
C468   C     0.01483   0.74552   0.24353   0.00000  Uiso   1.00
C469   C     0.09683   0.71098   0.28130   0.00000  Uiso   1.00
C470   C     0.87701   0.80130   0.09567   0.00000  Uiso   1.00
C471   C     0.89506   0.86644   0.09335   0.00000  Uiso   1.00
C472   C     0.90081   0.87477   0.03522   0.00000  Uiso   1.00
C473   C     0.91680   0.91503   0.95242   0.00000  Uiso   1.00
C474   C     0.84604   0.67972   0.05517   0.00000  Uiso   1.00
C475   C     0.78030   0.66372   0.07208   0.00000  Uiso   1.00
C476   C     0.71467   0.60241   0.03936   0.00000  Uiso   1.00
C477   C     0.66126   0.59791   0.06241   0.00000  Uiso   1.00
C478   C     0.90766   0.69825   0.11950   0.00000  Uiso   1.00
C479   C     0.94912   0.66597   0.12664   0.00000  Uiso   1.00
C480   C     0.00294   0.69054   0.18960   0.00000  Uiso   1.00
C481   C     0.86514   0.74642   0.04184   0.00000  Uiso   1.00
C482   C     0.87088   0.75466   0.98370   0.00000  Uiso   1.00
C483   C     0.88892   0.81980   0.98129   0.00000  Uiso   1.00
H484   H     0.87714   0.82348   0.19618   0.00000  Uiso   1.00
H485   H     0.74806   0.75667   0.19067   0.00000  Uiso   1.00
H486   H     0.98248   0.82022   0.27793   0.00000  Uiso   1.00
H487   H     0.90425   0.90890   0.13502   0.00000  Uiso   1.00
H488   H     0.59973   0.65838   0.16084   0.00000  Uiso   1.00
H489   H     0.09403   0.79242   0.34483   0.00000  Uiso   1.00
H490   H     0.92906   0.97940   0.04347   0.00000  Uiso   1.00
H491   H     0.83680   0.63699   0.01326   0.00000  Uiso   1.00
H492   H     0.70550   0.55995   0.99771   0.00000  Uiso   1.00
H493   H     0.93992   0.62351   0.08497   0.00000  Uiso   1.00
H494   H     0.86168   0.71218   0.94206   0.00000  Uiso   1.00
H495   H     0.56518   0.49872   0.00423   0.00000  Uiso   1.00
H496   H     0.05949   0.63275   0.18822   0.00000  Uiso   1.00
H497   H     0.89451   0.81974   0.88685   0.00000  Uiso   1.00
O498   O     0.49682   0.53122   0.07562   0.00000  Uiso   1.00
O499   O     0.14534   0.70708   0.31700   0.00000  Uiso   1.00
O500   O     0.92889   0.95240   0.92162   0.00000  Uiso   1.00
N501   N     0.60961   0.63138   0.12611   0.00000  Uiso   1.00
N502   N     0.07175   0.75669   0.29813   0.00000  Uiso   1.00
N503   N     0.91753   0.93151   0.01639   0.00000  Uiso   1.00
N504   N     0.59102   0.54547   0.04183   0.00000  Uiso   1.00
N505   N     0.05316   0.67078   0.21386   0.00000  Uiso   1.00
N506   N     0.89894   0.84560   0.93211   0.00000  Uiso   1.00
C507   C     0.82578   0.20568   0.90648   0.00000  Uiso   1.00
C508   C     0.78482   0.16700   0.83081   0.00000  Uiso   1.00
C509   C     0.81567   0.16243   0.78476   0.00000  Uiso   1.00
C510   C     0.76894   0.12464   0.71776   0.00000  Uiso   1.00
C511   C     0.71672   0.06948   0.60332   0.00000  Uiso   1.00
C512   C     0.80015   0.25725   0.92606   0.00000  Uiso   1.00
C513   C     0.84391   0.32856   0.96009   0.00000  Uiso   1.00
C514   C     0.81009   0.36674   0.97327   0.00000  Uiso   1.00
C515   C     0.78168   0.45169   0.00674   0.00000  Uiso   1.00
C516   C     0.79790   0.15237   0.93716   0.00000  Uiso   1.00
C517   C     0.83977   0.13550   0.98055   0.00000  Uiso   1.00
C518   C     0.80405   0.08539   0.00310   0.00000  Uiso   1.00
C519   C     0.77216   0.00749   0.05382   0.00000  Uiso   1.00
C520   C     0.68792   0.14668   0.86939   0.00000  Uiso   1.00
C521   C     0.70993   0.13496   0.81067   0.00000  Uiso   1.00
C522   C     0.66314   0.09716   0.74372   0.00000  Uiso   1.00
C523   C     0.69392   0.09253   0.69757   0.00000  Uiso   1.00
C524   C     0.72527   0.22521   0.90591   0.00000  Uiso   1.00
C525   C     0.69138   0.26329   0.91905   0.00000  Uiso   1.00
C526   C     0.73507   0.33464   0.95309   0.00000  Uiso   1.00
C527   C     0.72302   0.12032   0.91702   0.00000  Uiso   1.00
C528   C     0.68723   0.07022   0.93951   0.00000  Uiso   1.00
C529   C     0.72903   0.05328   0.98292   0.00000  Uiso   1.00
H530   H     0.88408   0.23064   0.92217   0.00000  Uiso   1.00
H531   H     0.87363   0.18725   0.80037   0.00000  Uiso   1.00
H532   H     0.90186   0.35335   0.97568   0.00000  Uiso   1.00
H533   H     0.89771   0.16031   0.99613   0.00000  Uiso   1.00
H534   H     0.82901   0.12503   0.65644   0.00000  Uiso   1.00
H535   H     0.88854   0.47526   0.02611   0.00000  Uiso   1.00
H536   H     0.87981   0.06822   0.06925   0.00000  Uiso   1.00
H537   H     0.62961   0.12173   0.85371   0.00000  Uiso   1.00
H538   H     0.60519   0.07236   0.72814   0.00000  Uiso   1.00
H539   H     0.63343   0.23847   0.90345   0.00000  Uiso   1.00
H540   H     0.62928   0.04544   0.92391   0.00000  Uiso   1.00
H541   H     0.61114   0.03179   0.59782   0.00000  Uiso   1.00
H542   H     0.67067   0.38202   0.96749   0.00000  Uiso   1.00
H543   H     0.66194   0.97497   0.01062   0.00000  Uiso   1.00
O544   O     0.70860   0.04792   0.54577   0.00000  Uiso   1.00
O545   O     0.78671   0.50741   0.03076   0.00000  Uiso   1.00
O546   O     0.77525   0.97337   0.08736   0.00000  Uiso   1.00
N547   N     0.78109   0.10985   0.65988   0.00000  Uiso   1.00
N548   N     0.83674   0.43730   0.00549   0.00000  Uiso   1.00
N549   N     0.82858   0.05676   0.04583   0.00000  Uiso   1.00
N550   N     0.66385   0.05968   0.62833   0.00000  Uiso   1.00
N551   N     0.71951   0.38712   0.97394   0.00000  Uiso   1.00
N552   N     0.71134   0.00658   0.01429   0.00000  Uiso   1.00
