data_job_04937
_audit_creation_date              2018-12-19
_audit_creation_method            'Materials Studio'
_symmetry_space_group_name_H-M    'P1'
_symmetry_Int_Tables_number       1
_symmetry_cell_setting            triclinic
loop_
_symmetry_equiv_pos_as_xyz
  x,y,z
_cell_length_a                    18.0211
_cell_length_b                    16.8415
_cell_length_c                    32.4352
_cell_angle_alpha                 90.0000
_cell_angle_beta                  145.8273
_cell_angle_gamma                 90.0000
loop_
_atom_site_label
_atom_site_type_symbol
_atom_site_fract_x
_atom_site_fract_y
_atom_site_fract_z
_atom_site_U_iso_or_equiv
_atom_site_adp_type
_atom_site_occupancy
C1     C     0.79604   0.96107   0.25934   0.00000  Uiso   1.00
C2     C     0.68102   0.01931   0.20373   0.00000  Uiso   1.00
C3     C     0.56745   0.00903   0.12816   0.00000  Uiso   1.00
C4     C     0.47379   0.06918   0.08674   0.00000  Uiso   1.00
C5     C     0.29227   0.14929   0.99537   0.00000  Uiso   1.00
C6     C     0.91889   0.00766   0.30334   0.00000  Uiso   1.00
C7     C     0.00532   0.98758   0.31154   0.00000  Uiso   1.00
C8     C     0.11191   0.03791   0.35399   0.00000  Uiso   1.00
C9     C     0.29975   0.09991   0.41731   0.00000  Uiso   1.00
C10    C     0.81264   0.94197   0.31263   0.00000  Uiso   1.00
C11    C     0.80977   0.86665   0.32864   0.00000  Uiso   1.00
C12    C     0.82694   0.86168   0.37893   0.00000  Uiso   1.00
C13    C     0.84980   0.82168   0.45667   0.00000  Uiso   1.00
C14    C     0.83168   0.08616   0.32018   0.00000  Uiso   1.00
C15    C     0.70038   0.08726   0.23678   0.00000  Uiso   1.00
C16    C     0.60687   0.14743   0.19547   0.00000  Uiso   1.00
C17    C     0.49317   0.13724   0.11985   0.00000  Uiso   1.00
C18    C     0.93825   0.07561   0.33639   0.00000  Uiso   1.00
C19    C     0.04474   0.12598   0.37884   0.00000  Uiso   1.00
C20    C     0.13130   0.10598   0.38709   0.00000  Uiso   1.00
C21    C     0.83200   0.00992   0.34567   0.00000  Uiso   1.00
C22    C     0.84918   0.00505   0.39595   0.00000  Uiso   1.00
C23    C     0.84633   0.92974   0.41203   0.00000  Uiso   1.00
H24    H     0.78098   0.90818   0.23361   0.00000  Uiso   1.00
H25    H     0.55251   0.95645   0.10261   0.00000  Uiso   1.00
H26    H     0.99032   0.93499   0.28596   0.00000  Uiso   1.00
H27    H     0.79479   0.81409   0.30306   0.00000  Uiso   1.00
H28    H     0.30776   0.03994   0.97193   0.00000  Uiso   1.00
H29    H     0.23093   0.99469   0.35857   0.00000  Uiso   1.00
H30    H     0.81863   0.73973   0.39463   0.00000  Uiso   1.00
H31    H     0.84675   0.13906   0.34590   0.00000  Uiso   1.00
H32    H     0.62188   0.20001   0.22105   0.00000  Uiso   1.00
H33    H     0.05969   0.17855   0.40441   0.00000  Uiso   1.00
H34    H     0.86416   0.05765   0.42151   0.00000  Uiso   1.00
H35    H     0.36406   0.23762   0.06807   0.00000  Uiso   1.00
H36    H     0.28725   0.19237   0.45470   0.00000  Uiso   1.00
H37    H     0.87493   0.93742   0.49076   0.00000  Uiso   1.00
O38    O     0.18682   0.17472   0.93584   0.00000  Uiso   1.00
O39    O     0.39800   0.11534   0.44310   0.00000  Uiso   1.00
O40    O     0.85705   0.78084   0.49041   0.00000  Uiso   1.00
N41    N     0.35186   0.07809   0.01169   0.00000  Uiso   1.00
N42    N     0.21496   0.03579   0.37316   0.00000  Uiso   1.00
N43    N     0.82952   0.79743   0.40689   0.00000  Uiso   1.00
N44    N     0.38216   0.18447   0.06342   0.00000  Uiso   1.00
N45    N     0.24526   0.14216   0.42489   0.00000  Uiso   1.00
N46    N     0.85982   0.90380   0.45862   0.00000  Uiso   1.00
C47    C     0.29604   0.46107   0.25934   0.00000  Uiso   1.00
C48    C     0.18102   0.51931   0.20373   0.00000  Uiso   1.00
C49    C     0.06745   0.50903   0.12816   0.00000  Uiso   1.00
C50    C     0.97379   0.56918   0.08674   0.00000  Uiso   1.00
C51    C     0.79227   0.64929   0.99537   0.00000  Uiso   1.00
C52    C     0.41889   0.50766   0.30334   0.00000  Uiso   1.00
C53    C     0.50532   0.48758   0.31154   0.00000  Uiso   1.00
C54    C     0.61191   0.53791   0.35399   0.00000  Uiso   1.00
C55    C     0.79975   0.59991   0.41731   0.00000  Uiso   1.00
C56    C     0.31264   0.44197   0.31263   0.00000  Uiso   1.00
C57    C     0.30977   0.36665   0.32864   0.00000  Uiso   1.00
C58    C     0.32694   0.36168   0.37893   0.00000  Uiso   1.00
C59    C     0.34980   0.32168   0.45667   0.00000  Uiso   1.00
C60    C     0.33168   0.58616   0.32018   0.00000  Uiso   1.00
C61    C     0.20038   0.58726   0.23678   0.00000  Uiso   1.00
C62    C     0.10687   0.64743   0.19547   0.00000  Uiso   1.00
C63    C     0.99317   0.63724   0.11985   0.00000  Uiso   1.00
C64    C     0.43825   0.57561   0.33639   0.00000  Uiso   1.00
C65    C     0.54474   0.62598   0.37884   0.00000  Uiso   1.00
C66    C     0.63130   0.60598   0.38709   0.00000  Uiso   1.00
C67    C     0.33200   0.50992   0.34567   0.00000  Uiso   1.00
C68    C     0.34918   0.50505   0.39595   0.00000  Uiso   1.00
C69    C     0.34633   0.42974   0.41203   0.00000  Uiso   1.00
H70    H     0.28098   0.40818   0.23361   0.00000  Uiso   1.00
H71    H     0.05251   0.45645   0.10261   0.00000  Uiso   1.00
H72    H     0.49032   0.43499   0.28596   0.00000  Uiso   1.00
H73    H     0.29479   0.31409   0.30306   0.00000  Uiso   1.00
H74    H     0.80776   0.53994   0.97193   0.00000  Uiso   1.00
H75    H     0.73093   0.49469   0.35857   0.00000  Uiso   1.00
H76    H     0.31863   0.23973   0.39463   0.00000  Uiso   1.00
H77    H     0.34675   0.63906   0.34590   0.00000  Uiso   1.00
H78    H     0.12188   0.70001   0.22105   0.00000  Uiso   1.00
H79    H     0.55969   0.67855   0.40441   0.00000  Uiso   1.00
H80    H     0.36416   0.55765   0.42151   0.00000  Uiso   1.00
H81    H     0.86406   0.73762   0.06807   0.00000  Uiso   1.00
H82    H     0.78725   0.69237   0.45470   0.00000  Uiso   1.00
H83    H     0.37493   0.43742   0.49076   0.00000  Uiso   1.00
O84    O     0.68682   0.67472   0.93584   0.00000  Uiso   1.00
O85    O     0.89800   0.61534   0.44310   0.00000  Uiso   1.00
O86    O     0.35705   0.28084   0.49041   0.00000  Uiso   1.00
N87    N     0.85186   0.57809   0.01169   0.00000  Uiso   1.00
N88    N     0.71496   0.53579   0.37316   0.00000  Uiso   1.00
N89    N     0.32952   0.29743   0.40689   0.00000  Uiso   1.00
N90    N     0.88216   0.68447   0.06342   0.00000  Uiso   1.00
N91    N     0.74526   0.64216   0.42489   0.00000  Uiso   1.00
N92    N     0.35982   0.40380   0.45862   0.00000  Uiso   1.00
C93    C     0.20396   0.96107   0.24066   0.00000  Uiso   1.00
C94    C     0.31898   0.01931   0.29627   0.00000  Uiso   1.00
C95    C     0.43255   0.00903   0.37184   0.00000  Uiso   1.00
C96    C     0.52621   0.06918   0.41326   0.00000  Uiso   1.00
C97    C     0.70773   0.14929   0.50463   0.00000  Uiso   1.00
C98    C     0.08111   0.00766   0.19666   0.00000  Uiso   1.00
C99    C     0.99468   0.98758   0.18846   0.00000  Uiso   1.00
C100   C     0.88809   0.03791   0.14601   0.00000  Uiso   1.00
C101   C     0.70025   0.09991   0.08269   0.00000  Uiso   1.00
C102   C     0.18736   0.94197   0.18737   0.00000  Uiso   1.00
C103   C     0.19023   0.86665   0.17136   0.00000  Uiso   1.00
C104   C     0.17306   0.86168   0.12107   0.00000  Uiso   1.00
C105   C     0.15020   0.82168   0.04333   0.00000  Uiso   1.00
C106   C     0.16832   0.08616   0.17982   0.00000  Uiso   1.00
C107   C     0.29962   0.08726   0.26322   0.00000  Uiso   1.00
C108   C     0.39313   0.14743   0.30453   0.00000  Uiso   1.00
C109   C     0.50683   0.13724   0.38015   0.00000  Uiso   1.00
C110   C     0.06175   0.07561   0.16361   0.00000  Uiso   1.00
C111   C     0.95526   0.12598   0.12116   0.00000  Uiso   1.00
C112   C     0.86870   0.10598   0.11291   0.00000  Uiso   1.00
C113   C     0.16800   0.00992   0.15433   0.00000  Uiso   1.00
C114   C     0.15082   0.00505   0.10405   0.00000  Uiso   1.00
C115   C     0.15367   0.92974   0.08797   0.00000  Uiso   1.00
H116   H     0.21902   0.90818   0.26639   0.00000  Uiso   1.00
H117   H     0.44749   0.95645   0.39739   0.00000  Uiso   1.00
H118   H     0.00968   0.93499   0.21404   0.00000  Uiso   1.00
H119   H     0.20521   0.81409   0.19694   0.00000  Uiso   1.00
H120   H     0.69224   0.03994   0.52807   0.00000  Uiso   1.00
H121   H     0.76907   0.99469   0.14143   0.00000  Uiso   1.00
H122   H     0.18137   0.73973   0.10537   0.00000  Uiso   1.00
H123   H     0.15325   0.13906   0.15410   0.00000  Uiso   1.00
H124   H     0.37812   0.20001   0.27895   0.00000  Uiso   1.00
H125   H     0.94031   0.17855   0.09559   0.00000  Uiso   1.00
H126   H     0.13584   0.05765   0.07849   0.00000  Uiso   1.00
H127   H     0.63594   0.23762   0.43193   0.00000  Uiso   1.00
H128   H     0.71275   0.19237   0.04530   0.00000  Uiso   1.00
H129   H     0.12507   0.93742   0.00924   0.00000  Uiso   1.00
O130   O     0.81318   0.17472   0.56416   0.00000  Uiso   1.00
O131   O     0.60200   0.11534   0.05690   0.00000  Uiso   1.00
O132   O     0.14295   0.78084   0.00959   0.00000  Uiso   1.00
N133   N     0.64814   0.07809   0.48831   0.00000  Uiso   1.00
N134   N     0.78504   0.03579   0.12684   0.00000  Uiso   1.00
N135   N     0.17048   0.79743   0.09311   0.00000  Uiso   1.00
N136   N     0.61784   0.18447   0.43658   0.00000  Uiso   1.00
N137   N     0.75474   0.14216   0.07511   0.00000  Uiso   1.00
N138   N     0.14018   0.90380   0.04138   0.00000  Uiso   1.00
C139   C     0.70396   0.46107   0.24066   0.00000  Uiso   1.00
C140   C     0.81898   0.51931   0.29627   0.00000  Uiso   1.00
C141   C     0.93255   0.50903   0.37184   0.00000  Uiso   1.00
C142   C     0.02621   0.56918   0.41326   0.00000  Uiso   1.00
C143   C     0.20773   0.64929   0.50463   0.00000  Uiso   1.00
C144   C     0.58111   0.50766   0.19666   0.00000  Uiso   1.00
C145   C     0.49468   0.48758   0.18846   0.00000  Uiso   1.00
C146   C     0.38809   0.53791   0.14601   0.00000  Uiso   1.00
C147   C     0.20025   0.59991   0.08269   0.00000  Uiso   1.00
C148   C     0.68736   0.44197   0.18737   0.00000  Uiso   1.00
C149   C     0.69023   0.36665   0.17136   0.00000  Uiso   1.00
C150   C     0.67306   0.36168   0.12107   0.00000  Uiso   1.00
C151   C     0.65020   0.32168   0.04333   0.00000  Uiso   1.00
C152   C     0.66832   0.58616   0.17982   0.00000  Uiso   1.00
C153   C     0.79962   0.58726   0.26322   0.00000  Uiso   1.00
C154   C     0.89313   0.64743   0.30453   0.00000  Uiso   1.00
C155   C     0.00683   0.63724   0.38015   0.00000  Uiso   1.00
C156   C     0.56175   0.57561   0.16361   0.00000  Uiso   1.00
C157   C     0.45526   0.62598   0.12116   0.00000  Uiso   1.00
C158   C     0.36870   0.60598   0.11291   0.00000  Uiso   1.00
C159   C     0.66800   0.50992   0.15433   0.00000  Uiso   1.00
C160   C     0.65082   0.50505   0.10405   0.00000  Uiso   1.00
C161   C     0.65367   0.42974   0.08797   0.00000  Uiso   1.00
H162   H     0.71902   0.40818   0.26639   0.00000  Uiso   1.00
H163   H     0.94749   0.45645   0.39739   0.00000  Uiso   1.00
H164   H     0.50968   0.43499   0.21404   0.00000  Uiso   1.00
H165   H     0.70521   0.31409   0.19694   0.00000  Uiso   1.00
H166   H     0.19224   0.53994   0.52807   0.00000  Uiso   1.00
H167   H     0.26907   0.49469   0.14143   0.00000  Uiso   1.00
H168   H     0.68137   0.23973   0.10537   0.00000  Uiso   1.00
H169   H     0.65325   0.63906   0.15410   0.00000  Uiso   1.00
H170   H     0.87812   0.70001   0.27895   0.00000  Uiso   1.00
H171   H     0.44031   0.67855   0.09559   0.00000  Uiso   1.00
H172   H     0.63584   0.55765   0.07849   0.00000  Uiso   1.00
H173   H     0.13594   0.73762   0.43193   0.00000  Uiso   1.00
H174   H     0.21275   0.69237   0.04530   0.00000  Uiso   1.00
H175   H     0.62507   0.43742   0.00924   0.00000  Uiso   1.00
O176   O     0.31318   0.67472   0.56416   0.00000  Uiso   1.00
O177   O     0.10200   0.61534   0.05690   0.00000  Uiso   1.00
O178   O     0.64295   0.28084   0.00959   0.00000  Uiso   1.00
N179   N     0.14814   0.57809   0.48831   0.00000  Uiso   1.00
N180   N     0.28504   0.53579   0.12684   0.00000  Uiso   1.00
N181   N     0.67048   0.29743   0.09311   0.00000  Uiso   1.00
N182   N     0.11784   0.68447   0.43658   0.00000  Uiso   1.00
N183   N     0.25474   0.64216   0.07511   0.00000  Uiso   1.00
N184   N     0.64018   0.40380   0.04138   0.00000  Uiso   1.00
C185   C     0.20396   0.03893   0.74066   0.00000  Uiso   1.00
C186   C     0.31898   0.98069   0.79627   0.00000  Uiso   1.00
C187   C     0.43255   0.99097   0.87184   0.00000  Uiso   1.00
C188   C     0.52621   0.93082   0.91326   0.00000  Uiso   1.00
C189   C     0.70773   0.85071   0.00463   0.00000  Uiso   1.00
C190   C     0.08111   0.99234   0.69666   0.00000  Uiso   1.00
C191   C     0.99468   0.01242   0.68846   0.00000  Uiso   1.00
C192   C     0.88809   0.96209   0.64601   0.00000  Uiso   1.00
C193   C     0.70025   0.90009   0.58269   0.00000  Uiso   1.00
C194   C     0.18736   0.05803   0.68737   0.00000  Uiso   1.00
C195   C     0.19023   0.13335   0.67136   0.00000  Uiso   1.00
C196   C     0.17306   0.13832   0.62107   0.00000  Uiso   1.00
C197   C     0.15020   0.17832   0.54333   0.00000  Uiso   1.00
C198   C     0.16832   0.91384   0.67982   0.00000  Uiso   1.00
C199   C     0.29962   0.91274   0.76322   0.00000  Uiso   1.00
C200   C     0.39313   0.85257   0.80453   0.00000  Uiso   1.00
C201   C     0.50683   0.86276   0.88015   0.00000  Uiso   1.00
C202   C     0.06175   0.92439   0.66361   0.00000  Uiso   1.00
C203   C     0.95526   0.87402   0.62116   0.00000  Uiso   1.00
C204   C     0.86870   0.89402   0.61291   0.00000  Uiso   1.00
C205   C     0.16800   0.99008   0.65433   0.00000  Uiso   1.00
C206   C     0.15082   0.99495   0.60405   0.00000  Uiso   1.00
C207   C     0.15367   0.07026   0.58797   0.00000  Uiso   1.00
H208   H     0.21902   0.09182   0.76639   0.00000  Uiso   1.00
H209   H     0.44749   0.04355   0.89739   0.00000  Uiso   1.00
H210   H     0.00968   0.06501   0.71404   0.00000  Uiso   1.00
H211   H     0.20521   0.18591   0.69694   0.00000  Uiso   1.00
H212   H     0.69224   0.96006   0.02807   0.00000  Uiso   1.00
H213   H     0.76907   0.00531   0.64143   0.00000  Uiso   1.00
H214   H     0.18137   0.26027   0.60537   0.00000  Uiso   1.00
H215   H     0.15325   0.86094   0.65410   0.00000  Uiso   1.00
H216   H     0.37812   0.79999   0.77895   0.00000  Uiso   1.00
H217   H     0.94031   0.82145   0.59559   0.00000  Uiso   1.00
H218   H     0.13584   0.94235   0.57849   0.00000  Uiso   1.00
H219   H     0.63594   0.76238   0.93193   0.00000  Uiso   1.00
H220   H     0.71275   0.80763   0.54530   0.00000  Uiso   1.00
H221   H     0.12507   0.06258   0.50924   0.00000  Uiso   1.00
O222   O     0.81318   0.82528   0.06416   0.00000  Uiso   1.00
O223   O     0.60200   0.88466   0.55690   0.00000  Uiso   1.00
O224   O     0.14295   0.21916   0.50959   0.00000  Uiso   1.00
N225   N     0.64814   0.92191   0.98831   0.00000  Uiso   1.00
N226   N     0.78504   0.96421   0.62684   0.00000  Uiso   1.00
N227   N     0.17048   0.20257   0.59311   0.00000  Uiso   1.00
N228   N     0.61784   0.81553   0.93658   0.00000  Uiso   1.00
N229   N     0.75474   0.85784   0.57511   0.00000  Uiso   1.00
N230   N     0.14018   0.09620   0.54138   0.00000  Uiso   1.00
C231   C     0.70396   0.53893   0.74066   0.00000  Uiso   1.00
C232   C     0.81898   0.48069   0.79627   0.00000  Uiso   1.00
C233   C     0.93255   0.49097   0.87184   0.00000  Uiso   1.00
C234   C     0.02621   0.43082   0.91326   0.00000  Uiso   1.00
C235   C     0.20773   0.35071   0.00463   0.00000  Uiso   1.00
C236   C     0.58111   0.49234   0.69666   0.00000  Uiso   1.00
C237   C     0.49468   0.51242   0.68846   0.00000  Uiso   1.00
C238   C     0.38809   0.46209   0.64601   0.00000  Uiso   1.00
C239   C     0.20025   0.40009   0.58269   0.00000  Uiso   1.00
C240   C     0.68736   0.55803   0.68737   0.00000  Uiso   1.00
C241   C     0.69023   0.63335   0.67136   0.00000  Uiso   1.00
C242   C     0.67306   0.63832   0.62107   0.00000  Uiso   1.00
C243   C     0.65020   0.67832   0.54333   0.00000  Uiso   1.00
C244   C     0.66832   0.41384   0.67982   0.00000  Uiso   1.00
C245   C     0.79962   0.41274   0.76322   0.00000  Uiso   1.00
C246   C     0.89313   0.35257   0.80453   0.00000  Uiso   1.00
C247   C     0.00683   0.36276   0.88015   0.00000  Uiso   1.00
C248   C     0.56175   0.42439   0.66361   0.00000  Uiso   1.00
C249   C     0.45526   0.37402   0.62116   0.00000  Uiso   1.00
C250   C     0.36870   0.39402   0.61291   0.00000  Uiso   1.00
C251   C     0.66800   0.49008   0.65433   0.00000  Uiso   1.00
C252   C     0.65082   0.49495   0.60405   0.00000  Uiso   1.00
C253   C     0.65367   0.57026   0.58797   0.00000  Uiso   1.00
H254   H     0.71902   0.59182   0.76639   0.00000  Uiso   1.00
H255   H     0.94749   0.54355   0.89739   0.00000  Uiso   1.00
H256   H     0.50968   0.56501   0.71404   0.00000  Uiso   1.00
H257   H     0.70521   0.68591   0.69694   0.00000  Uiso   1.00
H258   H     0.19224   0.46006   0.02807   0.00000  Uiso   1.00
H259   H     0.26907   0.50531   0.64143   0.00000  Uiso   1.00
H260   H     0.68137   0.76027   0.60537   0.00000  Uiso   1.00
H261   H     0.65325   0.36094   0.65410   0.00000  Uiso   1.00
H262   H     0.87812   0.29999   0.77895   0.00000  Uiso   1.00
H263   H     0.44031   0.32145   0.59559   0.00000  Uiso   1.00
H264   H     0.63584   0.44235   0.57849   0.00000  Uiso   1.00
H265   H     0.13594   0.26238   0.93193   0.00000  Uiso   1.00
H266   H     0.21275   0.30763   0.54530   0.00000  Uiso   1.00
H267   H     0.62507   0.56258   0.50924   0.00000  Uiso   1.00
O268   O     0.31318   0.32528   0.06416   0.00000  Uiso   1.00
O269   O     0.10200   0.38466   0.55690   0.00000  Uiso   1.00
O270   O     0.64295   0.71916   0.50959   0.00000  Uiso   1.00
N271   N     0.14814   0.42191   0.98831   0.00000  Uiso   1.00
N272   N     0.28504   0.46421   0.62684   0.00000  Uiso   1.00
N273   N     0.67048   0.70257   0.59311   0.00000  Uiso   1.00
N274   N     0.11784   0.31553   0.93658   0.00000  Uiso   1.00
N275   N     0.25474   0.35784   0.57511   0.00000  Uiso   1.00
N276   N     0.64018   0.59620   0.54138   0.00000  Uiso   1.00
C277   C     0.79604   0.03893   0.75934   0.00000  Uiso   1.00
C278   C     0.68102   0.98069   0.70373   0.00000  Uiso   1.00
C279   C     0.56745   0.99097   0.62816   0.00000  Uiso   1.00
C280   C     0.47379   0.93082   0.58674   0.00000  Uiso   1.00
C281   C     0.29227   0.85071   0.49537   0.00000  Uiso   1.00
C282   C     0.91889   0.99234   0.80334   0.00000  Uiso   1.00
C283   C     0.00532   0.01242   0.81154   0.00000  Uiso   1.00
C284   C     0.11191   0.96209   0.85399   0.00000  Uiso   1.00
C285   C     0.29975   0.90009   0.91731   0.00000  Uiso   1.00
C286   C     0.81264   0.05803   0.81263   0.00000  Uiso   1.00
C287   C     0.80977   0.13335   0.82864   0.00000  Uiso   1.00
C288   C     0.82694   0.13832   0.87893   0.00000  Uiso   1.00
C289   C     0.84980   0.17832   0.95667   0.00000  Uiso   1.00
C290   C     0.83168   0.91384   0.82018   0.00000  Uiso   1.00
C291   C     0.70038   0.91274   0.73678   0.00000  Uiso   1.00
C292   C     0.60687   0.85257   0.69547   0.00000  Uiso   1.00
C293   C     0.49317   0.86276   0.61985   0.00000  Uiso   1.00
C294   C     0.93825   0.92439   0.83639   0.00000  Uiso   1.00
C295   C     0.04474   0.87402   0.87884   0.00000  Uiso   1.00
C296   C     0.13130   0.89402   0.88709   0.00000  Uiso   1.00
C297   C     0.83200   0.99008   0.84567   0.00000  Uiso   1.00
C298   C     0.84918   0.99495   0.89595   0.00000  Uiso   1.00
C299   C     0.84633   0.07026   0.91203   0.00000  Uiso   1.00
H300   H     0.78098   0.09182   0.73361   0.00000  Uiso   1.00
H301   H     0.55251   0.04355   0.60261   0.00000  Uiso   1.00
H302   H     0.99032   0.06501   0.78596   0.00000  Uiso   1.00
H303   H     0.79479   0.18591   0.80306   0.00000  Uiso   1.00
H304   H     0.30776   0.96006   0.47193   0.00000  Uiso   1.00
H305   H     0.23093   0.00531   0.85857   0.00000  Uiso   1.00
H306   H     0.81863   0.26027   0.89463   0.00000  Uiso   1.00
H307   H     0.84675   0.86094   0.84590   0.00000  Uiso   1.00
H308   H     0.62188   0.79999   0.72105   0.00000  Uiso   1.00
H309   H     0.05969   0.82145   0.90441   0.00000  Uiso   1.00
H310   H     0.86416   0.94235   0.92151   0.00000  Uiso   1.00
H311   H     0.36406   0.76238   0.56807   0.00000  Uiso   1.00
H312   H     0.28725   0.80763   0.95470   0.00000  Uiso   1.00
H313   H     0.87493   0.06258   0.99076   0.00000  Uiso   1.00
O314   O     0.18682   0.82528   0.43584   0.00000  Uiso   1.00
O315   O     0.39800   0.88466   0.94310   0.00000  Uiso   1.00
O316   O     0.85705   0.21916   0.99041   0.00000  Uiso   1.00
N317   N     0.35186   0.92191   0.51169   0.00000  Uiso   1.00
N318   N     0.21496   0.96421   0.87316   0.00000  Uiso   1.00
N319   N     0.82952   0.20257   0.90689   0.00000  Uiso   1.00
N320   N     0.38216   0.81553   0.56342   0.00000  Uiso   1.00
N321   N     0.24526   0.85784   0.92489   0.00000  Uiso   1.00
N322   N     0.85982   0.09620   0.95862   0.00000  Uiso   1.00
C323   C     0.29604   0.53893   0.75934   0.00000  Uiso   1.00
C324   C     0.18102   0.48069   0.70373   0.00000  Uiso   1.00
C325   C     0.06745   0.49097   0.62816   0.00000  Uiso   1.00
C326   C     0.97379   0.43082   0.58674   0.00000  Uiso   1.00
C327   C     0.79227   0.35071   0.49537   0.00000  Uiso   1.00
C328   C     0.41889   0.49234   0.80334   0.00000  Uiso   1.00
C329   C     0.50532   0.51242   0.81154   0.00000  Uiso   1.00
C330   C     0.61191   0.46209   0.85399   0.00000  Uiso   1.00
C331   C     0.79975   0.40009   0.91731   0.00000  Uiso   1.00
C332   C     0.31264   0.55803   0.81263   0.00000  Uiso   1.00
C333   C     0.30977   0.63335   0.82864   0.00000  Uiso   1.00
C334   C     0.32694   0.63832   0.87893   0.00000  Uiso   1.00
C335   C     0.34980   0.67832   0.95667   0.00000  Uiso   1.00
C336   C     0.33168   0.41384   0.82018   0.00000  Uiso   1.00
C337   C     0.20038   0.41274   0.73678   0.00000  Uiso   1.00
C338   C     0.10687   0.35257   0.69547   0.00000  Uiso   1.00
C339   C     0.99317   0.36276   0.61985   0.00000  Uiso   1.00
C340   C     0.43825   0.42439   0.83639   0.00000  Uiso   1.00
C341   C     0.54474   0.37402   0.87884   0.00000  Uiso   1.00
C342   C     0.63130   0.39402   0.88709   0.00000  Uiso   1.00
C343   C     0.33200   0.49008   0.84567   0.00000  Uiso   1.00
C344   C     0.34918   0.49495   0.89595   0.00000  Uiso   1.00
C345   C     0.34633   0.57026   0.91203   0.00000  Uiso   1.00
H346   H     0.28098   0.59182   0.73361   0.00000  Uiso   1.00
H347   H     0.05251   0.54355   0.60261   0.00000  Uiso   1.00
H348   H     0.49032   0.56501   0.78596   0.00000  Uiso   1.00
H349   H     0.29479   0.68591   0.80306   0.00000  Uiso   1.00
H350   H     0.80776   0.46006   0.47193   0.00000  Uiso   1.00
H351   H     0.73093   0.50531   0.85857   0.00000  Uiso   1.00
H352   H     0.31863   0.76027   0.89463   0.00000  Uiso   1.00
H353   H     0.34675   0.36094   0.84590   0.00000  Uiso   1.00
H354   H     0.12188   0.29999   0.72105   0.00000  Uiso   1.00
H355   H     0.55969   0.32145   0.90441   0.00000  Uiso   1.00
H356   H     0.36416   0.44235   0.92151   0.00000  Uiso   1.00
H357   H     0.86406   0.26238   0.56807   0.00000  Uiso   1.00
H358   H     0.78725   0.30763   0.95470   0.00000  Uiso   1.00
H359   H     0.37493   0.56258   0.99076   0.00000  Uiso   1.00
O360   O     0.68682   0.32528   0.43584   0.00000  Uiso   1.00
O361   O     0.89800   0.38466   0.94310   0.00000  Uiso   1.00
O362   O     0.35705   0.71916   0.99041   0.00000  Uiso   1.00
N363   N     0.85186   0.42191   0.51169   0.00000  Uiso   1.00
N364   N     0.71496   0.46421   0.87316   0.00000  Uiso   1.00
N365   N     0.32952   0.70257   0.90689   0.00000  Uiso   1.00
N366   N     0.88216   0.31553   0.56342   0.00000  Uiso   1.00
N367   N     0.74526   0.35784   0.92489   0.00000  Uiso   1.00
N368   N     0.35982   0.59620   0.95862   0.00000  Uiso   1.00
