data_job_03026
_audit_creation_date              2018-12-19
_audit_creation_method            'Materials Studio'
_symmetry_space_group_name_H-M    'P1'
_symmetry_Int_Tables_number       1
_symmetry_cell_setting            triclinic
loop_
_symmetry_equiv_pos_as_xyz
  x,y,z
_cell_length_a                    11.9113
_cell_length_b                    11.9113
_cell_length_c                    34.2143
_cell_angle_alpha                 90.0000
_cell_angle_beta                  90.0000
_cell_angle_gamma                 120.0000
loop_
_atom_site_label
_atom_site_type_symbol
_atom_site_fract_x
_atom_site_fract_y
_atom_site_fract_z
_atom_site_U_iso_or_equiv
_atom_site_adp_type
_atom_site_occupancy
C1     C     0.99656   0.76027   0.59607   0.00000  Uiso   1.00
C2     C     0.04788   0.76338   0.55501   0.00000  Uiso   1.00
C3     C     0.97729   0.68282   0.52429   0.00000  Uiso   1.00
C4     C     0.04182   0.70102   0.48901   0.00000  Uiso   1.00
C5     C     0.10167   0.69130   0.42593   0.00000  Uiso   1.00
C6     C     0.08583   0.74117   0.62381   0.00000  Uiso   1.00
C7     C     0.04714   0.64194   0.65094   0.00000  Uiso   1.00
C8     C     0.14362   0.64146   0.67359   0.00000  Uiso   1.00
C9     C     0.26239   0.59732   0.71735   0.00000  Uiso   1.00
C10    C     0.02054   0.89656   0.60389   0.00000  Uiso   1.00
C11    C     0.92696   0.92800   0.61427   0.00000  Uiso   1.00
C12    C     0.96848   0.05834   0.62015   0.00000  Uiso   1.00
C13    C     0.98587   0.25547   0.63297   0.00000  Uiso   1.00
C14    C     0.23668   0.93585   0.58806   0.00000  Uiso   1.00
C15    C     0.17830   0.85875   0.55066   0.00000  Uiso   1.00
C16    C     0.24295   0.87708   0.51542   0.00000  Uiso   1.00
C17    C     0.17247   0.79656   0.48465   0.00000  Uiso   1.00
C18    C     0.21625   0.83653   0.61946   0.00000  Uiso   1.00
C19    C     0.31280   0.83620   0.64208   0.00000  Uiso   1.00
C20    C     0.27428   0.73700   0.66923   0.00000  Uiso   1.00
C21    C     0.15096   0.99193   0.59954   0.00000  Uiso   1.00
C22    C     0.19262   0.12226   0.60541   0.00000  Uiso   1.00
C23    C     0.09913   0.15388   0.61580   0.00000  Uiso   1.00
H24    H     0.89503   0.68602   0.59945   0.00000  Uiso   1.00
H25    H     0.87636   0.60902   0.52767   0.00000  Uiso   1.00
H26    H     0.94621   0.56816   0.65430   0.00000  Uiso   1.00
H27    H     0.82605   0.85417   0.61764   0.00000  Uiso   1.00
H28    H     0.91320   0.56568   0.44616   0.00000  Uiso   1.00
H29    H     0.06046   0.47956   0.71319   0.00000  Uiso   1.00
H30    H     0.80708   0.08266   0.63587   0.00000  Uiso   1.00
H31    H     0.33822   0.01010   0.58467   0.00000  Uiso   1.00
H32    H     0.34388   0.95089   0.51207   0.00000  Uiso   1.00
H33    H     0.41372   0.91002   0.63871   0.00000  Uiso   1.00
H34    H     0.29356   0.19603   0.60204   0.00000  Uiso   1.00
H35    H     0.29265   0.84315   0.43350   0.00000  Uiso   1.00
H36    H     0.43992   0.75702   0.70053   0.00000  Uiso   1.00
H37    H     0.18653   0.36012   0.62321   0.00000  Uiso   1.00
O38    O     0.09866   0.65959   0.39234   0.00000  Uiso   1.00
O39    O     0.29186   0.54661   0.74268   0.00000  Uiso   1.00
O40    O     0.95943   0.33786   0.64124   0.00000  Uiso   1.00
N41    N     0.00172   0.63913   0.45314   0.00000  Uiso   1.00
N42    N     0.13941   0.55859   0.70280   0.00000  Uiso   1.00
N43    N     0.90252   0.12244   0.63052   0.00000  Uiso   1.00
N44    N     0.20590   0.78843   0.44633   0.00000  Uiso   1.00
N45    N     0.34359   0.70789   0.69598   0.00000  Uiso   1.00
N46    N     0.10670   0.27174   0.62371   0.00000  Uiso   1.00
C47    C     0.23973   0.23629   0.26273   0.00000  Uiso   1.00
C48    C     0.23662   0.28449   0.22168   0.00000  Uiso   1.00
C49    C     0.31718   0.29447   0.19095   0.00000  Uiso   1.00
C50    C     0.29898   0.34080   0.15568   0.00000  Uiso   1.00
C51    C     0.30870   0.41037   0.09260   0.00000  Uiso   1.00
C52    C     0.25883   0.34466   0.29048   0.00000  Uiso   1.00
C53    C     0.35806   0.40520   0.31761   0.00000  Uiso   1.00
C54    C     0.35854   0.50216   0.34026   0.00000  Uiso   1.00
C55    C     0.40268   0.66507   0.38401   0.00000  Uiso   1.00
C56    C     0.10344   0.12397   0.27055   0.00000  Uiso   1.00
C57    C     0.07200   0.99897   0.28094   0.00000  Uiso   1.00
C58    C     0.94166   0.91013   0.28682   0.00000  Uiso   1.00
C59    C     0.74453   0.73039   0.29964   0.00000  Uiso   1.00
C60    C     0.06415   0.30083   0.25472   0.00000  Uiso   1.00
C61    C     0.14125   0.31955   0.21733   0.00000  Uiso   1.00
C62    C     0.12292   0.36587   0.18209   0.00000  Uiso   1.00
C63    C     0.20344   0.37591   0.15132   0.00000  Uiso   1.00
C64    C     0.16347   0.37971   0.28613   0.00000  Uiso   1.00
C65    C     0.16380   0.47660   0.30875   0.00000  Uiso   1.00
C66    C     0.26300   0.53728   0.33590   0.00000  Uiso   1.00
C67    C     0.00807   0.15902   0.26620   0.00000  Uiso   1.00
C68    C     0.87774   0.07037   0.27207   0.00000  Uiso   1.00
C69    C     0.84612   0.94525   0.28246   0.00000  Uiso   1.00
H70    H     0.31398   0.20901   0.26612   0.00000  Uiso   1.00
H71    H     0.39098   0.26734   0.19433   0.00000  Uiso   1.00
H72    H     0.43184   0.37804   0.32097   0.00000  Uiso   1.00
H73    H     0.14583   0.97188   0.28430   0.00000  Uiso   1.00
H74    H     0.43432   0.34752   0.11283   0.00000  Uiso   1.00
H75    H     0.52044   0.58091   0.37986   0.00000  Uiso   1.00
H76    H     0.91734   0.72442   0.30254   0.00000  Uiso   1.00
H77    H     0.98990   0.32812   0.25134   0.00000  Uiso   1.00
H78    H     0.04911   0.39299   0.17873   0.00000  Uiso   1.00
H79    H     0.08998   0.50369   0.30537   0.00000  Uiso   1.00
H80    H     0.80397   0.09753   0.26870   0.00000  Uiso   1.00
H81    H     0.15685   0.44951   0.10017   0.00000  Uiso   1.00
H82    H     0.24298   0.68289   0.36720   0.00000  Uiso   1.00
H83    H     0.63988   0.82641   0.28988   0.00000  Uiso   1.00
O84    O     0.34041   0.43908   0.05901   0.00000  Uiso   1.00
O85    O     0.45339   0.74525   0.40935   0.00000  Uiso   1.00
O86    O     0.66214   0.62157   0.30790   0.00000  Uiso   1.00
N87    N     0.36087   0.36260   0.11981   0.00000  Uiso   1.00
N88    N     0.44141   0.58082   0.36946   0.00000  Uiso   1.00
N89    N     0.87756   0.78008   0.29719   0.00000  Uiso   1.00
N90    N     0.21157   0.41747   0.11300   0.00000  Uiso   1.00
N91    N     0.29211   0.63569   0.36265   0.00000  Uiso   1.00
N92    N     0.72826   0.83496   0.29037   0.00000  Uiso   1.00
C93    C     0.76371   0.00344   0.92940   0.00000  Uiso   1.00
C94    C     0.71551   0.95212   0.88834   0.00000  Uiso   1.00
C95    C     0.70553   0.02271   0.85762   0.00000  Uiso   1.00
C96    C     0.65920   0.95818   0.82235   0.00000  Uiso   1.00
C97    C     0.58963   0.89833   0.75927   0.00000  Uiso   1.00
C98    C     0.65534   0.91417   0.95715   0.00000  Uiso   1.00
C99    C     0.59480   0.95286   0.98427   0.00000  Uiso   1.00
C100   C     0.49784   0.85638   0.00692   0.00000  Uiso   1.00
C101   C     0.33493   0.73761   0.05068   0.00000  Uiso   1.00
C102   C     0.87603   0.97946   0.93722   0.00000  Uiso   1.00
C103   C     0.00103   0.07304   0.94761   0.00000  Uiso   1.00
C104   C     0.08987   0.03152   0.95349   0.00000  Uiso   1.00
C105   C     0.26961   0.01413   0.96630   0.00000  Uiso   1.00
C106   C     0.69917   0.76332   0.92139   0.00000  Uiso   1.00
C107   C     0.68045   0.82170   0.88399   0.00000  Uiso   1.00
C108   C     0.63413   0.75705   0.84876   0.00000  Uiso   1.00
C109   C     0.62409   0.82753   0.81799   0.00000  Uiso   1.00
C110   C     0.62029   0.78375   0.95280   0.00000  Uiso   1.00
C111   C     0.52340   0.68720   0.97541   0.00000  Uiso   1.00
C112   C     0.46272   0.72572   0.00257   0.00000  Uiso   1.00
C113   C     0.84098   0.84904   0.93287   0.00000  Uiso   1.00
C114   C     0.92963   0.80738   0.93874   0.00000  Uiso   1.00
C115   C     0.05475   0.90087   0.94913   0.00000  Uiso   1.00
H116   H     0.79099   0.10497   0.93279   0.00000  Uiso   1.00
H117   H     0.73266   0.12364   0.86100   0.00000  Uiso   1.00
H118   H     0.62196   0.05379   0.98764   0.00000  Uiso   1.00
H119   H     0.02812   0.17395   0.95097   0.00000  Uiso   1.00
H120   H     0.65248   0.08680   0.77949   0.00000  Uiso   1.00
H121   H     0.41909   0.93954   0.04652   0.00000  Uiso   1.00
H122   H     0.27558   0.19292   0.96921   0.00000  Uiso   1.00
H123   H     0.67188   0.66178   0.91800   0.00000  Uiso   1.00
H124   H     0.60701   0.65612   0.84540   0.00000  Uiso   1.00
H125   H     0.49631   0.58628   0.97204   0.00000  Uiso   1.00
H126   H     0.90247   0.70644   0.93537   0.00000  Uiso   1.00
H127   H     0.55049   0.70735   0.76683   0.00000  Uiso   1.00
H128   H     0.31711   0.56008   0.03387   0.00000  Uiso   1.00
H129   H     0.17359   0.81347   0.95655   0.00000  Uiso   1.00
O130   O     0.56092   0.90134   0.72567   0.00000  Uiso   1.00
O131   O     0.25475   0.70814   0.07601   0.00000  Uiso   1.00
O132   O     0.37843   0.04057   0.97457   0.00000  Uiso   1.00
N133   N     0.63740   0.99828   0.78648   0.00000  Uiso   1.00
N134   N     0.41918   0.86059   0.03613   0.00000  Uiso   1.00
N135   N     0.21992   0.09748   0.96385   0.00000  Uiso   1.00
N136   N     0.58253   0.79410   0.77966   0.00000  Uiso   1.00
N137   N     0.36431   0.65641   0.02932   0.00000  Uiso   1.00
N138   N     0.16504   0.89330   0.95704   0.00000  Uiso   1.00
C139   C     0.76027   0.99656   0.40393   0.00000  Uiso   1.00
C140   C     0.76338   0.04788   0.44499   0.00000  Uiso   1.00
C141   C     0.68282   0.97729   0.47571   0.00000  Uiso   1.00
C142   C     0.70102   0.04182   0.51099   0.00000  Uiso   1.00
C143   C     0.69130   0.10167   0.57407   0.00000  Uiso   1.00
C144   C     0.74117   0.08583   0.37619   0.00000  Uiso   1.00
C145   C     0.64194   0.04714   0.34906   0.00000  Uiso   1.00
C146   C     0.64146   0.14362   0.32641   0.00000  Uiso   1.00
C147   C     0.59732   0.26239   0.28265   0.00000  Uiso   1.00
C148   C     0.89656   0.02054   0.39611   0.00000  Uiso   1.00
C149   C     0.92800   0.92696   0.38573   0.00000  Uiso   1.00
C150   C     0.05834   0.96848   0.37985   0.00000  Uiso   1.00
C151   C     0.25547   0.98587   0.36703   0.00000  Uiso   1.00
C152   C     0.93585   0.23668   0.41194   0.00000  Uiso   1.00
C153   C     0.85875   0.17830   0.44934   0.00000  Uiso   1.00
C154   C     0.87708   0.24295   0.48458   0.00000  Uiso   1.00
C155   C     0.79656   0.17247   0.51535   0.00000  Uiso   1.00
C156   C     0.83653   0.21625   0.38054   0.00000  Uiso   1.00
C157   C     0.83620   0.31280   0.35792   0.00000  Uiso   1.00
C158   C     0.73700   0.27428   0.33077   0.00000  Uiso   1.00
C159   C     0.99193   0.15096   0.40046   0.00000  Uiso   1.00
C160   C     0.12226   0.19262   0.39459   0.00000  Uiso   1.00
C161   C     0.15388   0.09913   0.38420   0.00000  Uiso   1.00
H162   H     0.68602   0.89503   0.40055   0.00000  Uiso   1.00
H163   H     0.60902   0.87636   0.47233   0.00000  Uiso   1.00
H164   H     0.56816   0.94621   0.34570   0.00000  Uiso   1.00
H165   H     0.85417   0.82605   0.38236   0.00000  Uiso   1.00
H166   H     0.56568   0.91320   0.55384   0.00000  Uiso   1.00
H167   H     0.47956   0.06046   0.28681   0.00000  Uiso   1.00
H168   H     0.08266   0.80708   0.36413   0.00000  Uiso   1.00
H169   H     0.01010   0.33822   0.41533   0.00000  Uiso   1.00
H170   H     0.95089   0.34388   0.48793   0.00000  Uiso   1.00
H171   H     0.91002   0.41372   0.36129   0.00000  Uiso   1.00
H172   H     0.19603   0.29356   0.39796   0.00000  Uiso   1.00
H173   H     0.84315   0.29265   0.56650   0.00000  Uiso   1.00
H174   H     0.75702   0.43992   0.29947   0.00000  Uiso   1.00
H175   H     0.36012   0.18653   0.37679   0.00000  Uiso   1.00
O176   O     0.65959   0.09866   0.60766   0.00000  Uiso   1.00
O177   O     0.54661   0.29186   0.25732   0.00000  Uiso   1.00
O178   O     0.33786   0.95943   0.35876   0.00000  Uiso   1.00
N179   N     0.63913   0.00172   0.54686   0.00000  Uiso   1.00
N180   N     0.55859   0.13941   0.29720   0.00000  Uiso   1.00
N181   N     0.12244   0.90252   0.36948   0.00000  Uiso   1.00
N182   N     0.78843   0.20590   0.55367   0.00000  Uiso   1.00
N183   N     0.70789   0.34359   0.30402   0.00000  Uiso   1.00
N184   N     0.27174   0.10670   0.37629   0.00000  Uiso   1.00
C185   C     0.23629   0.23973   0.73727   0.00000  Uiso   1.00
C186   C     0.28449   0.23662   0.77832   0.00000  Uiso   1.00
C187   C     0.29447   0.31718   0.80905   0.00000  Uiso   1.00
C188   C     0.34080   0.29898   0.84432   0.00000  Uiso   1.00
C189   C     0.41037   0.30870   0.90740   0.00000  Uiso   1.00
C190   C     0.34466   0.25883   0.70952   0.00000  Uiso   1.00
C191   C     0.40520   0.35806   0.68239   0.00000  Uiso   1.00
C192   C     0.50216   0.35854   0.65974   0.00000  Uiso   1.00
C193   C     0.66507   0.40268   0.61599   0.00000  Uiso   1.00
C194   C     0.12397   0.10344   0.72945   0.00000  Uiso   1.00
C195   C     0.99897   0.07200   0.71906   0.00000  Uiso   1.00
C196   C     0.91013   0.94166   0.71318   0.00000  Uiso   1.00
C197   C     0.73039   0.74453   0.70036   0.00000  Uiso   1.00
C198   C     0.30083   0.06415   0.74528   0.00000  Uiso   1.00
C199   C     0.31955   0.14125   0.78267   0.00000  Uiso   1.00
C200   C     0.36587   0.12292   0.81791   0.00000  Uiso   1.00
C201   C     0.37591   0.20344   0.84868   0.00000  Uiso   1.00
C202   C     0.37971   0.16347   0.71387   0.00000  Uiso   1.00
C203   C     0.47660   0.16380   0.69125   0.00000  Uiso   1.00
C204   C     0.53728   0.26300   0.66410   0.00000  Uiso   1.00
C205   C     0.15902   0.00807   0.73380   0.00000  Uiso   1.00
C206   C     0.07037   0.87774   0.72793   0.00000  Uiso   1.00
C207   C     0.94525   0.84612   0.71754   0.00000  Uiso   1.00
H208   H     0.20901   0.31398   0.73388   0.00000  Uiso   1.00
H209   H     0.26734   0.39098   0.80567   0.00000  Uiso   1.00
H210   H     0.37804   0.43184   0.67903   0.00000  Uiso   1.00
H211   H     0.97188   0.14583   0.71570   0.00000  Uiso   1.00
H212   H     0.34752   0.43432   0.88717   0.00000  Uiso   1.00
H213   H     0.58091   0.52044   0.62014   0.00000  Uiso   1.00
H214   H     0.72442   0.91734   0.69746   0.00000  Uiso   1.00
H215   H     0.32812   0.98990   0.74866   0.00000  Uiso   1.00
H216   H     0.39299   0.04911   0.82127   0.00000  Uiso   1.00
H217   H     0.50369   0.08998   0.69463   0.00000  Uiso   1.00
H218   H     0.09753   0.80397   0.73130   0.00000  Uiso   1.00
H219   H     0.44951   0.15685   0.89983   0.00000  Uiso   1.00
H220   H     0.68289   0.24298   0.63280   0.00000  Uiso   1.00
H221   H     0.82641   0.63988   0.71012   0.00000  Uiso   1.00
O222   O     0.43908   0.34041   0.94099   0.00000  Uiso   1.00
O223   O     0.74525   0.45339   0.59065   0.00000  Uiso   1.00
O224   O     0.62157   0.66214   0.69210   0.00000  Uiso   1.00
N225   N     0.36260   0.36087   0.88019   0.00000  Uiso   1.00
N226   N     0.58082   0.44141   0.63054   0.00000  Uiso   1.00
N227   N     0.78008   0.87756   0.70281   0.00000  Uiso   1.00
N228   N     0.41747   0.21157   0.88700   0.00000  Uiso   1.00
N229   N     0.63569   0.29211   0.63735   0.00000  Uiso   1.00
N230   N     0.83496   0.72826   0.70963   0.00000  Uiso   1.00
C231   C     0.00344   0.76371   0.07060   0.00000  Uiso   1.00
C232   C     0.95212   0.71551   0.11166   0.00000  Uiso   1.00
C233   C     0.02271   0.70553   0.14238   0.00000  Uiso   1.00
C234   C     0.95818   0.65920   0.17765   0.00000  Uiso   1.00
C235   C     0.89833   0.58963   0.24073   0.00000  Uiso   1.00
C236   C     0.91417   0.65534   0.04285   0.00000  Uiso   1.00
C237   C     0.95286   0.59480   0.01573   0.00000  Uiso   1.00
C238   C     0.85638   0.49784   0.99308   0.00000  Uiso   1.00
C239   C     0.73761   0.33493   0.94932   0.00000  Uiso   1.00
C240   C     0.97946   0.87603   0.06278   0.00000  Uiso   1.00
C241   C     0.07304   0.00103   0.05239   0.00000  Uiso   1.00
C242   C     0.03152   0.08987   0.04651   0.00000  Uiso   1.00
C243   C     0.01413   0.26961   0.03370   0.00000  Uiso   1.00
C244   C     0.76332   0.69917   0.07861   0.00000  Uiso   1.00
C245   C     0.82170   0.68045   0.11601   0.00000  Uiso   1.00
C246   C     0.75705   0.63413   0.15124   0.00000  Uiso   1.00
C247   C     0.82753   0.62409   0.18201   0.00000  Uiso   1.00
C248   C     0.78375   0.62029   0.04720   0.00000  Uiso   1.00
C249   C     0.68720   0.52340   0.02459   0.00000  Uiso   1.00
C250   C     0.72572   0.46272   0.99743   0.00000  Uiso   1.00
C251   C     0.84904   0.84098   0.06713   0.00000  Uiso   1.00
C252   C     0.80738   0.92963   0.06126   0.00000  Uiso   1.00
C253   C     0.90087   0.05475   0.05087   0.00000  Uiso   1.00
H254   H     0.10497   0.79099   0.06721   0.00000  Uiso   1.00
H255   H     0.12364   0.73266   0.13900   0.00000  Uiso   1.00
H256   H     0.05379   0.62196   0.01236   0.00000  Uiso   1.00
H257   H     0.17395   0.02812   0.04903   0.00000  Uiso   1.00
H258   H     0.08680   0.65248   0.22051   0.00000  Uiso   1.00
H259   H     0.93954   0.41909   0.95348   0.00000  Uiso   1.00
H260   H     0.19292   0.27558   0.03079   0.00000  Uiso   1.00
H261   H     0.66178   0.67188   0.08200   0.00000  Uiso   1.00
H262   H     0.65612   0.60701   0.15460   0.00000  Uiso   1.00
H263   H     0.58628   0.49631   0.02796   0.00000  Uiso   1.00
H264   H     0.70644   0.90247   0.06463   0.00000  Uiso   1.00
H265   H     0.70735   0.55049   0.23317   0.00000  Uiso   1.00
H266   H     0.56008   0.31711   0.96613   0.00000  Uiso   1.00
H267   H     0.81347   0.17359   0.04345   0.00000  Uiso   1.00
O268   O     0.90134   0.56092   0.27433   0.00000  Uiso   1.00
O269   O     0.70814   0.25475   0.92399   0.00000  Uiso   1.00
O270   O     0.04057   0.37843   0.02543   0.00000  Uiso   1.00
N271   N     0.99828   0.63740   0.21352   0.00000  Uiso   1.00
N272   N     0.86059   0.41918   0.96387   0.00000  Uiso   1.00
N273   N     0.09748   0.21992   0.03615   0.00000  Uiso   1.00
N274   N     0.79410   0.58253   0.22034   0.00000  Uiso   1.00
N275   N     0.65641   0.36431   0.97068   0.00000  Uiso   1.00
N276   N     0.89330   0.16504   0.04296   0.00000  Uiso   1.00
