data_job_06684
_audit_creation_date              2018-12-19
_audit_creation_method            'Materials Studio'
_symmetry_space_group_name_H-M    'P1'
_symmetry_Int_Tables_number       1
_symmetry_cell_setting            triclinic
loop_
_symmetry_equiv_pos_as_xyz
  x,y,z
_cell_length_a                    20.5678
_cell_length_b                    21.4285
_cell_length_c                    23.8152
_cell_angle_alpha                 115.8725
_cell_angle_beta                  94.0054
_cell_angle_gamma                 69.2813
loop_
_atom_site_label
_atom_site_type_symbol
_atom_site_fract_x
_atom_site_fract_y
_atom_site_fract_z
_atom_site_U_iso_or_equiv
_atom_site_adp_type
_atom_site_occupancy
C1     C     0.96957   0.78067   0.62650   0.00000  Uiso   1.00
C2     C     0.01523   0.70252   0.61709   0.00000  Uiso   1.00
C3     C     0.99402   0.64201   0.59617   0.00000  Uiso   1.00
C4     C     0.04363   0.57525   0.59069   0.00000  Uiso   1.00
C5     C     0.10412   0.45482   0.57383   0.00000  Uiso   1.00
C6     C     0.97248   0.83237   0.69458   0.00000  Uiso   1.00
C7     C     0.91532   0.88104   0.73882   0.00000  Uiso   1.00
C8     C     0.92894   0.92360   0.79857   0.00000  Uiso   1.00
C9     C     0.92305   0.00480   0.90201   0.00000  Uiso   1.00
C10    C     0.00722   0.79960   0.58667   0.00000  Uiso   1.00
C11    C     0.97927   0.82074   0.54018   0.00000  Uiso   1.00
C12    C     0.02215   0.83573   0.50909   0.00000  Uiso   1.00
C13    C     0.07021   0.86606   0.44498   0.00000  Uiso   1.00
C14    C     0.09539   0.76971   0.65397   0.00000  Uiso   1.00
C15    C     0.08357   0.69657   0.63201   0.00000  Uiso   1.00
C16    C     0.13323   0.62988   0.62656   0.00000  Uiso   1.00
C17    C     0.11210   0.56928   0.60563   0.00000  Uiso   1.00
C18    C     0.04081   0.82642   0.70950   0.00000  Uiso   1.00
C19    C     0.05452   0.86891   0.76921   0.00000  Uiso   1.00
C20    C     0.99740   0.91763   0.81352   0.00000  Uiso   1.00
C21    C     0.07556   0.79365   0.60159   0.00000  Uiso   1.00
C22    C     0.11848   0.80861   0.57057   0.00000  Uiso   1.00
C23    C     0.09061   0.82977   0.52404   0.00000  Uiso   1.00
H24    H     0.91636   0.78531   0.61489   0.00000  Uiso   1.00
H25    H     0.94112   0.64664   0.58463   0.00000  Uiso   1.00
H26    H     0.86244   0.88564   0.72726   0.00000  Uiso   1.00
H27    H     0.92639   0.82535   0.52865   0.00000  Uiso   1.00
H28    H     0.99871   0.49028   0.55769   0.00000  Uiso   1.00
H29    H     0.83279   0.99425   0.85841   0.00000  Uiso   1.00
H30    H     0.96764   0.86711   0.43961   0.00000  Uiso   1.00
H31    H     0.14860   0.76507   0.66559   0.00000  Uiso   1.00
H32    H     0.18611   0.62529   0.63811   0.00000  Uiso   1.00
H33    H     0.10742   0.86429   0.78073   0.00000  Uiso   1.00
H34    H     0.17137   0.80400   0.58213   0.00000  Uiso   1.00
H35    H     0.19755   0.47295   0.60109   0.00000  Uiso   1.00
H36    H     0.03162   0.97693   0.90182   0.00000  Uiso   1.00
H37    H     0.16648   0.84978   0.48301   0.00000  Uiso   1.00
O38    O     0.11861   0.39004   0.56042   0.00000  Uiso   1.00
O39    O     0.90092   0.05123   0.95495   0.00000  Uiso   1.00
O40    O     0.07785   0.88442   0.40549   0.00000  Uiso   1.00
N41    N     0.04037   0.50538   0.57166   0.00000  Uiso   1.00
N42    N     0.88524   0.97656   0.85282   0.00000  Uiso   1.00
N43    N     0.01131   0.85771   0.46129   0.00000  Uiso   1.00
N44    N     0.14736   0.49606   0.59502   0.00000  Uiso   1.00
N45    N     0.99223   0.96723   0.87618   0.00000  Uiso   1.00
N46    N     0.11830   0.84838   0.48465   0.00000  Uiso   1.00
C47    C     0.60356   0.16505   0.33590   0.00000  Uiso   1.00
C48    C     0.57553   0.10176   0.30873   0.00000  Uiso   1.00
C49    C     0.54081   0.08254   0.34295   0.00000  Uiso   1.00
C50    C     0.51932   0.02288   0.30938   0.00000  Uiso   1.00
C51    C     0.47388   0.93052   0.27715   0.00000  Uiso   1.00
C52    C     0.68122   0.12981   0.31318   0.00000  Uiso   1.00
C53    C     0.73538   0.13418   0.35115   0.00000  Uiso   1.00
C54    C     0.80286   0.09814   0.32132   0.00000  Uiso   1.00
C55    C     0.92151   0.04937   0.29600   0.00000  Uiso   1.00
C56    C     0.57006   0.21438   0.30323   0.00000  Uiso   1.00
C57    C     0.53077   0.28987   0.33283   0.00000  Uiso   1.00
C58    C     0.50467   0.32504   0.29462   0.00000  Uiso   1.00
C59    C     0.45074   0.40758   0.25385   0.00000  Uiso   1.00
C60    C     0.62710   0.09328   0.21543   0.00000  Uiso   1.00
C61    C     0.58832   0.06278   0.24329   0.00000  Uiso   1.00
C62    C     0.56686   0.00314   0.20966   0.00000  Uiso   1.00
C63    C     0.53212   0.98383   0.24383   0.00000  Uiso   1.00
C64    C     0.69402   0.09083   0.24775   0.00000  Uiso   1.00
C65    C     0.76143   0.05478   0.21786   0.00000  Uiso   1.00
C66    C     0.81567   0.05909   0.25577   0.00000  Uiso   1.00
C67    C     0.58285   0.17540   0.23779   0.00000  Uiso   1.00
C68    C     0.55682   0.21046   0.19954   0.00000  Uiso   1.00
C69    C     0.51749   0.28599   0.22907   0.00000  Uiso   1.00
H70    H     0.59361   0.19539   0.38685   0.00000  Uiso   1.00
H71    H     0.53093   0.11272   0.39359   0.00000  Uiso   1.00
H72    H     0.72547   0.16436   0.40179   0.00000  Uiso   1.00
H73    H     0.52088   0.32002   0.38347   0.00000  Uiso   1.00
H74    H     0.46711   0.00384   0.37222   0.00000  Uiso   1.00
H75    H     0.87729   0.11275   0.38949   0.00000  Uiso   1.00
H76    H     0.44590   0.44100   0.35086   0.00000  Uiso   1.00
H77    H     0.63706   0.06293   0.16448   0.00000  Uiso   1.00
H78    H     0.57677   0.97298   0.15902   0.00000  Uiso   1.00
H79    H     0.77131   0.02462   0.16722   0.00000  Uiso   1.00
H80    H     0.56672   0.18028   0.14890   0.00000  Uiso   1.00
H81    H     0.50432   0.89042   0.18183   0.00000  Uiso   1.00
H82    H     0.91450   0.99934   0.19911   0.00000  Uiso   1.00
H83    H     0.48310   0.32758   0.16048   0.00000  Uiso   1.00
O84    O     0.44529   0.89034   0.27745   0.00000  Uiso   1.00
O85    O     0.98343   0.03324   0.30012   0.00000  Uiso   1.00
O86    O     0.41744   0.46388   0.24943   0.00000  Uiso   1.00
N87    N     0.48413   0.98950   0.32816   0.00000  Uiso   1.00
N88    N     0.86763   0.09132   0.34431   0.00000  Uiso   1.00
N89    N     0.46432   0.39820   0.30820   0.00000  Uiso   1.00
N90    N     0.50415   0.92848   0.22571   0.00000  Uiso   1.00
N91    N     0.88765   0.03029   0.24187   0.00000  Uiso   1.00
N92    N     0.48434   0.33717   0.20575   0.00000  Uiso   1.00
C93    C     0.32067   0.86571   0.03425   0.00000  Uiso   1.00
C94    C     0.37026   0.80608   0.05165   0.00000  Uiso   1.00
C95    C     0.41006   0.73403   0.00968   0.00000  Uiso   1.00
C96    C     0.45216   0.68793   0.03493   0.00000  Uiso   1.00
C97    C     0.52881   0.59151   0.05207   0.00000  Uiso   1.00
C98    C     0.24960   0.89103   0.06882   0.00000  Uiso   1.00
C99    C     0.18795   0.89042   0.04130   0.00000  Uiso   1.00
C100   C     0.12848   0.91585   0.08101   0.00000  Uiso   1.00
C101   C     0.01780   0.95137   0.12482   0.00000  Uiso   1.00
C102   C     0.34487   0.93171   0.06416   0.00000  Uiso   1.00
C103   C     0.36330   0.96532   0.03273   0.00000  Uiso   1.00
C104   C     0.38403   0.02501   0.06852   0.00000  Uiso   1.00
C105   C     0.42127   0.12369   0.10509   0.00000  Uiso   1.00
C106   C     0.32468   0.91197   0.15372   0.00000  Uiso   1.00
C107   C     0.37244   0.83121   0.11654   0.00000  Uiso   1.00
C108   C     0.41450   0.78521   0.14186   0.00000  Uiso   1.00
C109   C     0.45435   0.71310   0.09994   0.00000  Uiso   1.00
C110   C     0.25178   0.91616   0.13371   0.00000  Uiso   1.00
C111   C     0.19239   0.94160   0.17347   0.00000  Uiso   1.00
C112   C     0.13066   0.94102   0.14602   0.00000  Uiso   1.00
C113   C     0.34706   0.95684   0.12905   0.00000  Uiso   1.00
C114   C     0.36775   0.01650   0.16490   0.00000  Uiso   1.00
C115   C     0.38621   0.05018   0.13352   0.00000  Uiso   1.00
H116   H     0.31896   0.84615   0.98374   0.00000  Uiso   1.00
H117   H     0.40835   0.71460   0.95947   0.00000  Uiso   1.00
H118   H     0.18628   0.87098   0.99108   0.00000  Uiso   1.00
H119   H     0.36161   0.94586   0.98251   0.00000  Uiso   1.00
H120   H     0.50839   0.57983   0.96118   0.00000  Uiso   1.00
H121   H     0.04013   0.90958   0.02784   0.00000  Uiso   1.00
H122   H     0.40985   0.06749   0.00977   0.00000  Uiso   1.00
H123   H     0.32637   0.93153   0.20424   0.00000  Uiso   1.00
H124   H     0.41617   0.80467   0.19207   0.00000  Uiso   1.00
H125   H     0.19410   0.96105   0.22368   0.00000  Uiso   1.00
H126   H     0.36943   0.03593   0.21511   0.00000  Uiso   1.00
H127   H     0.51474   0.65293   0.14997   0.00000  Uiso   1.00
H128   H     0.04648   0.98269   0.21663   0.00000  Uiso   1.00
H129   H     0.41620   0.14059   0.19856   0.00000  Uiso   1.00
O130   O     0.57049   0.53138   0.04360   0.00000  Uiso   1.00
O131   O     0.95615   0.96401   0.13105   0.00000  Uiso   1.00
O132   O     0.44121   0.17118   0.10734   0.00000  Uiso   1.00
N133   N     0.49757   0.61445   0.00728   0.00000  Uiso   1.00
N134   N     0.05978   0.92274   0.06961   0.00000  Uiso   1.00
N135   N     0.40542   0.07038   0.05271   0.00000  Uiso   1.00
N136   N     0.50099   0.65378   0.10887   0.00000  Uiso   1.00
N137   N     0.06320   0.96207   0.17119   0.00000  Uiso   1.00
N138   N     0.40884   0.10971   0.15430   0.00000  Uiso   1.00
C139   C     0.66926   0.67558   0.24989   0.00000  Uiso   1.00
C140   C     0.68142   0.63411   0.29017   0.00000  Uiso   1.00
C141   C     0.63101   0.61895   0.31239   0.00000  Uiso   1.00
C142   C     0.65261   0.58033   0.34847   0.00000  Uiso   1.00
C143   C     0.66091   0.51935   0.40896   0.00000  Uiso   1.00
C144   C     0.72024   0.62345   0.19096   0.00000  Uiso   1.00
C145   C     0.70248   0.59933   0.12977   0.00000  Uiso   1.00
C146   C     0.75677   0.55175   0.08234   0.00000  Uiso   1.00
C147   C     0.82536   0.47426   0.98881   0.00000  Uiso   1.00
C148   C     0.69385   0.74066   0.28537   0.00000  Uiso   1.00
C149   C     0.65390   0.81508   0.30354   0.00000  Uiso   1.00
C150   C     0.68597   0.86618   0.33559   0.00000  Uiso   1.00
C151   C     0.71357   0.97067   0.38863   0.00000  Uiso   1.00
C152   C     0.79726   0.63398   0.27446   0.00000  Uiso   1.00
C153   C     0.75094   0.61151   0.30351   0.00000  Uiso   1.00
C154   C     0.77262   0.57292   0.33957   0.00000  Uiso   1.00
C155   C     0.72225   0.55769   0.36185   0.00000  Uiso   1.00
C156   C     0.78977   0.60085   0.20431   0.00000  Uiso   1.00
C157   C     0.84410   0.55330   0.15696   0.00000  Uiso   1.00
C158   C     0.82642   0.52911   0.09571   0.00000  Uiso   1.00
C159   C     0.76337   0.71806   0.29872   0.00000  Uiso   1.00
C160   C     0.79552   0.76905   0.33073   0.00000  Uiso   1.00
C161   C     0.75562   0.84354   0.34896   0.00000  Uiso   1.00
H162   H     0.61514   0.69317   0.23950   0.00000  Uiso   1.00
H163   H     0.57721   0.63644   0.30205   0.00000  Uiso   1.00
H164   H     0.64867   0.61683   0.11946   0.00000  Uiso   1.00
H165   H     0.60010   0.83255   0.29321   0.00000  Uiso   1.00
H166   H     0.56582   0.56355   0.37726   0.00000  Uiso   1.00
H167   H     0.71651   0.52223   0.99227   0.00000  Uiso   1.00
H168   H     0.61408   0.97712   0.35865   0.00000  Uiso   1.00
H169   H     0.85140   0.61638   0.28485   0.00000  Uiso   1.00
H170   H     0.82643   0.55543   0.34989   0.00000  Uiso   1.00
H171   H     0.89789   0.53583   0.16730   0.00000  Uiso   1.00
H172   H     0.84932   0.75155   0.34105   0.00000  Uiso   1.00
H173   H     0.76810   0.49780   0.41609   0.00000  Uiso   1.00
H174   H     0.91879   0.45648   0.03109   0.00000  Uiso   1.00
H175   H     0.81636   0.91137   0.39748   0.00000  Uiso   1.00
O176   O     0.64628   0.49194   0.43863   0.00000  Uiso   1.00
O177   O     0.84398   0.43775   0.93353   0.00000  Uiso   1.00
O178   O     0.70959   0.03455   0.41421   0.00000  Uiso   1.00
N179   N     0.61685   0.55645   0.37749   0.00000  Uiso   1.00
N180   N     0.75773   0.51781   0.01754   0.00000  Uiso   1.00
N181   N     0.66198   0.94309   0.36006   0.00000  Uiso   1.00
N182   N     0.72570   0.52107   0.39838   0.00000  Uiso   1.00
N183   N     0.86658   0.48243   0.03843   0.00000  Uiso   1.00
N184   N     0.77082   0.90771   0.38095   0.00000  Uiso   1.00
C185   C     0.99608   0.24967   0.57199   0.00000  Uiso   1.00
C186   C     0.95773   0.19511   0.54591   0.00000  Uiso   1.00
C187   C     0.98718   0.12049   0.50401   0.00000  Uiso   1.00
C188   C     0.94333   0.07994   0.48581   0.00000  Uiso   1.00
C189   C     0.89455   0.99019   0.44185   0.00000  Uiso   1.00
C190   C     0.98506   0.28180   0.64319   0.00000  Uiso   1.00
C191   C     0.03749   0.28008   0.68308   0.00000  Uiso   1.00
C192   C     0.01664   0.31252   0.74678   0.00000  Uiso   1.00
C193   C     0.01029   0.35741   0.85386   0.00000  Uiso   1.00
C194   C     0.95620   0.31368   0.55577   0.00000  Uiso   1.00
C195   C     0.98437   0.33879   0.52218   0.00000  Uiso   1.00
C196   C     0.93923   0.39808   0.51228   0.00000  Uiso   1.00
C197   C     0.88807   0.49248   0.48364   0.00000  Uiso   1.00
C198   C     0.86584   0.31034   0.61417   0.00000  Uiso   1.00
C199   C     0.88699   0.22806   0.56882   0.00000  Uiso   1.00
C200   C     0.84308   0.18761   0.55068   0.00000  Uiso   1.00
C201   C     0.87246   0.11295   0.50876   0.00000  Uiso   1.00
C202   C     0.91432   0.31475   0.66611   0.00000  Uiso   1.00
C203   C     0.89339   0.34721   0.72976   0.00000  Uiso   1.00
C204   C     0.94577   0.34553   0.76973   0.00000  Uiso   1.00
C205   C     0.88546   0.34664   0.57868   0.00000  Uiso   1.00
C206   C     0.84026   0.40591   0.56885   0.00000  Uiso   1.00
C207   C     0.86835   0.43109   0.53524   0.00000  Uiso   1.00
H208   H     0.05116   0.22402   0.55415   0.00000  Uiso   1.00
H209   H     0.04193   0.09501   0.48629   0.00000  Uiso   1.00
H210   H     0.09223   0.25458   0.66534   0.00000  Uiso   1.00
H211   H     0.03911   0.31327   0.50445   0.00000  Uiso   1.00
H212   H     0.00051   0.96650   0.42118   0.00000  Uiso   1.00
H213   H     0.10657   0.30300   0.79871   0.00000  Uiso   1.00
H214   H     0.99456   0.42676   0.45945   0.00000  Uiso   1.00
H215   H     0.81076   0.33600   0.63201   0.00000  Uiso   1.00
H216   H     0.78834   0.21313   0.56842   0.00000  Uiso   1.00
H217   H     0.83864   0.37271   0.74747   0.00000  Uiso   1.00
H218   H     0.78552   0.43140   0.58659   0.00000  Uiso   1.00
H219   H     0.79468   0.06237   0.48784   0.00000  Uiso   1.00
H220   H     0.90074   0.39887   0.86538   0.00000  Uiso   1.00
H221   H     0.78874   0.52263   0.52612   0.00000  Uiso   1.00
O222   O     0.88719   0.93158   0.41129   0.00000  Uiso   1.00
O223   O     0.02634   0.37306   0.90660   0.00000  Uiso   1.00
O224   O     0.87939   0.53543   0.46150   0.00000  Uiso   1.00
N225   N     0.95514   0.00593   0.44558   0.00000  Uiso   1.00
N226   N     0.05430   0.32052   0.79856   0.00000  Uiso   1.00
N227   N     0.94959   0.43624   0.48139   0.00000  Uiso   1.00
N228   N     0.84439   0.05752   0.48145   0.00000  Uiso   1.00
N229   N     0.94355   0.37211   0.83443   0.00000  Uiso   1.00
N230   N     0.83884   0.48783   0.51726   0.00000  Uiso   1.00
C231   C     0.39044   0.27328   0.98819   0.00000  Uiso   1.00
C232   C     0.41551   0.19124   0.94150   0.00000  Uiso   1.00
C233   C     0.46153   0.13302   0.95221   0.00000  Uiso   1.00
C234   C     0.47795   0.06194   0.90354   0.00000  Uiso   1.00
C235   C     0.52120   0.93643   0.83976   0.00000  Uiso   1.00
C236   C     0.31088   0.30001   0.99534   0.00000  Uiso   1.00
C237   C     0.26893   0.33324   0.05131   0.00000  Uiso   1.00
C238   C     0.19727   0.35372   0.04796   0.00000  Uiso   1.00
C239   C     0.07808   0.39712   0.06777   0.00000  Uiso   1.00
C240   C     0.40883   0.31303   0.95546   0.00000  Uiso   1.00
C241   C     0.44922   0.35724   0.97791   0.00000  Uiso   1.00
C242   C     0.46001   0.38870   0.94098   0.00000  Uiso   1.00
C243   C     0.49291   0.45232   0.89887   0.00000  Uiso   1.00
C244   C     0.33777   0.25058   0.88271   0.00000  Uiso   1.00
C245   C     0.38690   0.17891   0.88421   0.00000  Uiso   1.00
C246   C     0.40325   0.10790   0.83550   0.00000  Uiso   1.00
C247   C     0.44929   0.04958   0.84614   0.00000  Uiso   1.00
C248   C     0.28227   0.28768   0.93804   0.00000  Uiso   1.00
C249   C     0.21066   0.30812   0.93460   0.00000  Uiso   1.00
C250   C     0.16861   0.34137   0.99056   0.00000  Uiso   1.00
C251   C     0.38022   0.30070   0.89816   0.00000  Uiso   1.00
C252   C     0.39095   0.33211   0.86120   0.00000  Uiso   1.00
C253   C     0.43135   0.37635   0.88358   0.00000  Uiso   1.00
H254   H     0.41271   0.28289   0.03280   0.00000  Uiso   1.00
H255   H     0.48365   0.14259   0.99656   0.00000  Uiso   1.00
H256   H     0.29109   0.34278   0.09565   0.00000  Uiso   1.00
H257   H     0.47135   0.36677   0.02225   0.00000  Uiso   1.00
H258   H     0.54967   0.98160   0.93112   0.00000  Uiso   1.00
H259   H     0.14363   0.40374   0.14005   0.00000  Uiso   1.00
H260   H     0.52375   0.45433   0.98528   0.00000  Uiso   1.00
H261   H     0.31549   0.24098   0.83810   0.00000  Uiso   1.00
H262   H     0.38110   0.09837   0.79117   0.00000  Uiso   1.00
H263   H     0.18854   0.29857   0.89026   0.00000  Uiso   1.00
H264   H     0.36880   0.32256   0.81686   0.00000  Uiso   1.00
H265   H     0.46644   0.94572   0.76442   0.00000  Uiso   1.00
H266   H     0.06039   0.36786   0.97335   0.00000  Uiso   1.00
H267   H     0.44052   0.41844   0.81858   0.00000  Uiso   1.00
O268   O     0.55295   0.87061   0.82042   0.00000  Uiso   1.00
O269   O     0.02024   0.42445   0.09453   0.00000  Uiso   1.00
O270   O     0.51896   0.49081   0.89147   0.00000  Uiso   1.00
N271   N     0.52109   0.99273   0.89832   0.00000  Uiso   1.00
N272   N     0.14147   0.38740   0.09366   0.00000  Uiso   1.00
N273   N     0.49683   0.43470   0.94897   0.00000  Uiso   1.00
N274   N     0.47630   0.97342   0.80862   0.00000  Uiso   1.00
N275   N     0.09668   0.36808   0.00396   0.00000  Uiso   1.00
N276   N     0.45205   0.41539   0.85927   0.00000  Uiso   1.00
C277   C     0.01849   0.27095   0.28833   0.00000  Uiso   1.00
C278   C     0.01392   0.34739   0.29732   0.00000  Uiso   1.00
C279   C     0.06121   0.38175   0.32573   0.00000  Uiso   1.00
C280   C     0.04778   0.45170   0.32937   0.00000  Uiso   1.00
C281   C     0.04961   0.56516   0.34694   0.00000  Uiso   1.00
C282   C     0.01766   0.22587   0.21815   0.00000  Uiso   1.00
C283   C     0.06809   0.15804   0.18001   0.00000  Uiso   1.00
C284   C     0.05781   0.12569   0.11701   0.00000  Uiso   1.00
C285   C     0.06543   0.05045   0.01168   0.00000  Uiso   1.00
C286   C     0.94993   0.28286   0.31933   0.00000  Uiso   1.00
C287   C     0.94340   0.26295   0.36624   0.00000  Uiso   1.00
C288   C     0.87609   0.27857   0.38842   0.00000  Uiso   1.00
C289   C     0.77854   0.29183   0.44019   0.00000  Uiso   1.00
C290   C     0.91055   0.33409   0.24428   0.00000  Uiso   1.00
C291   C     0.95529   0.38168   0.27339   0.00000  Uiso   1.00
C292   C     0.94178   0.45160   0.27699   0.00000  Uiso   1.00
C293   C     0.98904   0.48606   0.30541   0.00000  Uiso   1.00
C294   C     0.95903   0.26016   0.19423   0.00000  Uiso   1.00
C295   C     0.94867   0.22789   0.13127   0.00000  Uiso   1.00
C296   C     0.99907   0.16004   0.09304   0.00000  Uiso   1.00
C297   C     0.89129   0.31716   0.29541   0.00000  Uiso   1.00
C298   C     0.82398   0.33281   0.31751   0.00000  Uiso   1.00
C299   C     0.81735   0.31292   0.36445   0.00000  Uiso   1.00
H300   H     0.06414   0.24425   0.30695   0.00000  Uiso   1.00
H301   H     0.10658   0.35519   0.34423   0.00000  Uiso   1.00
H302   H     0.11345   0.13151   0.19854   0.00000  Uiso   1.00
H303   H     0.98878   0.23641   0.38474   0.00000  Uiso   1.00
H304   H     0.12779   0.49330   0.37499   0.00000  Uiso   1.00
H305   H     0.14228   0.02165   0.06779   0.00000  Uiso   1.00
H306   H     0.87939   0.24285   0.46045   0.00000  Uiso   1.00
H307   H     0.86490   0.36079   0.22565   0.00000  Uiso   1.00
H308   H     0.89640   0.47813   0.25848   0.00000  Uiso   1.00
H309   H     0.90329   0.25445   0.11278   0.00000  Uiso   1.00
H310   H     0.77862   0.35934   0.29899   0.00000  Uiso   1.00
H311   H     0.95721   0.59308   0.30538   0.00000  Uiso   1.00
H312   H     0.97170   0.12143   0.99818   0.00000  Uiso   1.00
H313   H     0.70881   0.34262   0.39084   0.00000  Uiso   1.00
O314   O     0.06683   0.61826   0.36323   0.00000  Uiso   1.00
O315   O     0.08584   0.99948   0.96019   0.00000  Uiso   1.00
O316   O     0.74093   0.28968   0.47535   0.00000  Uiso   1.00
N317   N     0.08331   0.50069   0.35412   0.00000  Uiso   1.00
N318   N     0.09687   0.05973   0.06690   0.00000  Uiso   1.00
N319   N     0.85108   0.26651   0.43399   0.00000  Uiso   1.00
N320   N     0.99152   0.55438   0.31666   0.00000  Uiso   1.00
N321   N     0.00508   0.11342   0.02945   0.00000  Uiso   1.00
N322   N     0.75930   0.32020   0.39654   0.00000  Uiso   1.00
C323   C     0.52897   0.91805   0.51454   0.00000  Uiso   1.00
C324   C     0.55504   0.98270   0.54456   0.00000  Uiso   1.00
C325   C     0.58704   0.00667   0.51262   0.00000  Uiso   1.00
C326   C     0.60709   0.06680   0.54861   0.00000  Uiso   1.00
C327   C     0.64930   0.16191   0.58525   0.00000  Uiso   1.00
C328   C     0.45179   0.95007   0.53822   0.00000  Uiso   1.00
C329   C     0.39699   0.94659   0.50095   0.00000  Uiso   1.00
C330   C     0.33012   0.97924   0.53161   0.00000  Uiso   1.00
C331   C     0.21203   0.02363   0.55840   0.00000  Uiso   1.00
C332   C     0.56548   0.86536   0.54357   0.00000  Uiso   1.00
C333   C     0.60624   0.79066   0.51080   0.00000  Uiso   1.00
C334   C     0.63507   0.75199   0.54596   0.00000  Uiso   1.00
C335   C     0.69350   0.66487   0.58106   0.00000  Uiso   1.00
C336   C     0.50767   0.98221   0.63526   0.00000  Uiso   1.00
C337   C     0.54347   0.01755   0.61013   0.00000  Uiso   1.00
C338   C     0.56347   0.07766   0.64618   0.00000  Uiso   1.00
C339   C     0.59550   0.10171   0.61430   0.00000  Uiso   1.00
C340   C     0.44022   0.98491   0.60379   0.00000  Uiso   1.00
C341   C     0.37342   0.01757   0.63451   0.00000  Uiso   1.00
C342   C     0.31852   0.01415   0.59730   0.00000  Uiso   1.00
C343   C     0.55391   0.90021   0.60914   0.00000  Uiso   1.00
C344   C     0.58267   0.86165   0.64436   0.00000  Uiso   1.00
C345   C     0.62348   0.78690   0.61165   0.00000  Uiso   1.00
H346   H     0.53798   0.89092   0.46350   0.00000  Uiso   1.00
H347   H     0.59598   0.97969   0.46188   0.00000  Uiso   1.00
H348   H     0.40596   0.91961   0.45021   0.00000  Uiso   1.00
H349   H     0.61518   0.76371   0.46006   0.00000  Uiso   1.00
H350   H     0.65517   0.09350   0.48900   0.00000  Uiso   1.00
H351   H     0.25449   0.96679   0.46440   0.00000  Uiso   1.00
H352   H     0.69568   0.63804   0.48516   0.00000  Uiso   1.00
H353   H     0.49866   0.00935   0.68631   0.00000  Uiso   1.00
H354   H     0.55451   0.10462   0.69692   0.00000  Uiso   1.00
H355   H     0.36448   0.04453   0.68525   0.00000  Uiso   1.00
H356   H     0.57371   0.88864   0.69510   0.00000  Uiso   1.00
H357   H     0.62150   0.19489   0.67977   0.00000  Uiso   1.00
H358   H     0.22083   0.06818   0.65517   0.00000  Uiso   1.00
H359   H     0.66202   0.73943   0.67593   0.00000  Uiso   1.00
O360   O     0.67576   0.20475   0.58734   0.00000  Uiso   1.00
O361   O     0.15010   0.03849   0.55506   0.00000  Uiso   1.00
O362   O     0.72893   0.60719   0.58230   0.00000  Uiso   1.00
N363   N     0.63959   0.10428   0.53244   0.00000  Uiso   1.00
N364   N     0.26498   0.98582   0.50944   0.00000  Uiso   1.00
N365   N     0.67744   0.67846   0.52885   0.00000  Uiso   1.00
N366   N     0.62148   0.15884   0.63509   0.00000  Uiso   1.00
N367   N     0.24687   0.04038   0.61209   0.00000  Uiso   1.00
N368   N     0.65933   0.73302   0.63150   0.00000  Uiso   1.00
C369   C     0.81478   0.22967   0.82486   0.00000  Uiso   1.00
C370   C     0.76952   0.29025   0.80653   0.00000  Uiso   1.00
C371   C     0.73366   0.36396   0.84774   0.00000  Uiso   1.00
C372   C     0.69515   0.41071   0.82170   0.00000  Uiso   1.00
C373   C     0.62528   0.50876   0.80311   0.00000  Uiso   1.00
C374   C     0.88662   0.19808   0.78929   0.00000  Uiso   1.00
C375   C     0.94922   0.19427   0.81602   0.00000  Uiso   1.00
C376   C     0.00929   0.16341   0.77546   0.00000  Uiso   1.00
C377   C     0.12122   0.11831   0.73011   0.00000  Uiso   1.00
C378   C     0.78504   0.16773   0.79683   0.00000  Uiso   1.00
C379   C     0.76225   0.13840   0.82988   0.00000  Uiso   1.00
C380   C     0.73681   0.08198   0.79566   0.00000  Uiso   1.00
C381   C     0.69103   0.98977   0.76201   0.00000  Uiso   1.00
C382   C     0.81015   0.18160   0.70531   0.00000  Uiso   1.00
C383   C     0.76700   0.26415   0.74160   0.00000  Uiso   1.00
C384   C     0.72853   0.31079   0.71548   0.00000  Uiso   1.00
C385   C     0.69262   0.38456   0.75665   0.00000  Uiso   1.00
C386   C     0.88410   0.17197   0.72436   0.00000  Uiso   1.00
C387   C     0.94409   0.14110   0.68376   0.00000  Uiso   1.00
C388   C     0.00677   0.13726   0.71041   0.00000  Uiso   1.00
C389   C     0.78252   0.14163   0.73189   0.00000  Uiso   1.00
C390   C     0.75712   0.08523   0.69762   0.00000  Uiso   1.00
C391   C     0.73429   0.05583   0.73061   0.00000  Uiso   1.00
H392   H     0.81675   0.24999   0.87541   0.00000  Uiso   1.00
H393   H     0.73563   0.38415   0.89799   0.00000  Uiso   1.00
H394   H     0.95115   0.21447   0.86627   0.00000  Uiso   1.00
H395   H     0.76421   0.15862   0.88012   0.00000  Uiso   1.00
H396   H     0.64460   0.52138   0.89439   0.00000  Uiso   1.00
H397   H     0.09905   0.16360   0.82750   0.00000  Uiso   1.00
H398   H     0.70485   0.04581   0.85672   0.00000  Uiso   1.00
H399   H     0.80819   0.16128   0.65476   0.00000  Uiso   1.00
H400   H     0.72659   0.29057   0.66523   0.00000  Uiso   1.00
H401   H     0.94212   0.12090   0.63351   0.00000  Uiso   1.00
H402   H     0.75518   0.06505   0.64737   0.00000  Uiso   1.00
H403   H     0.63727   0.44543   0.70547   0.00000  Uiso   1.00
H404   H     0.09173   0.08765   0.63858   0.00000  Uiso   1.00
H405   H     0.69752   0.96986   0.66781   0.00000  Uiso   1.00
O406   O     0.58744   0.57006   0.81080   0.00000  Uiso   1.00
O407   O     0.18366   0.10065   0.72304   0.00000  Uiso   1.00
O408   O     0.66647   0.94613   0.76138   0.00000  Uiso   1.00
N409   N     0.65406   0.48576   0.84849   0.00000  Uiso   1.00
N410   N     0.07895   0.15126   0.78595   0.00000  Uiso   1.00
N411   N     0.71042   0.04113   0.81327   0.00000  Uiso   1.00
N412   N     0.65012   0.44489   0.74684   0.00000  Uiso   1.00
N413   N     0.07500   0.11040   0.68430   0.00000  Uiso   1.00
N414   N     0.70647   0.00026   0.71162   0.00000  Uiso   1.00
C415   C     0.47009   0.39779   0.59135   0.00000  Uiso   1.00
C416   C     0.45505   0.44044   0.55185   0.00000  Uiso   1.00
C417   C     0.50459   0.45124   0.52402   0.00000  Uiso   1.00
C418   C     0.48027   0.49186   0.48977   0.00000  Uiso   1.00
C419   C     0.46777   0.55375   0.42941   0.00000  Uiso   1.00
C420   C     0.42661   0.45171   0.65427   0.00000  Uiso   1.00
C421   C     0.45223   0.47196   0.71255   0.00000  Uiso   1.00
C422   C     0.40396   0.52206   0.76452   0.00000  Uiso   1.00
C423   C     0.34729   0.60140   0.86316   0.00000  Uiso   1.00
C424   C     0.43865   0.33751   0.56017   0.00000  Uiso   1.00
C425   C     0.47438   0.26173   0.53933   0.00000  Uiso   1.00
C426   C     0.43625   0.21568   0.51208   0.00000  Uiso   1.00
C427   C     0.39827   0.11770   0.46461   0.00000  Uiso   1.00
C428   C     0.33882   0.45074   0.58003   0.00000  Uiso   1.00
C429   C     0.38375   0.46921   0.54571   0.00000  Uiso   1.00
C430   C     0.35935   0.50982   0.51149   0.00000  Uiso   1.00
C431   C     0.40884   0.52067   0.48361   0.00000  Uiso   1.00
C432   C     0.35531   0.48047   0.64813   0.00000  Uiso   1.00
C433   C     0.30699   0.53054   0.70002   0.00000  Uiso   1.00
C434   C     0.33253   0.55087   0.75836   0.00000  Uiso   1.00
C435   C     0.36735   0.36626   0.55402   0.00000  Uiso   1.00
C436   C     0.32915   0.32032   0.52680   0.00000  Uiso   1.00
C437   C     0.36482   0.24449   0.50592   0.00000  Uiso   1.00
H438   H     0.52560   0.37540   0.59614   0.00000  Uiso   1.00
H439   H     0.55976   0.42898   0.52879   0.00000  Uiso   1.00
H440   H     0.50741   0.44969   0.71729   0.00000  Uiso   1.00
H441   H     0.52956   0.23950   0.54410   0.00000  Uiso   1.00
H442   H     0.56619   0.50109   0.45144   0.00000  Uiso   1.00
H443   H     0.45580   0.54474   0.84890   0.00000  Uiso   1.00
H444   H     0.50251   0.10151   0.48368   0.00000  Uiso   1.00
H445   H     0.28330   0.47313   0.57524   0.00000  Uiso   1.00
H446   H     0.30417   0.53207   0.50674   0.00000  Uiso   1.00
H447   H     0.25182   0.55278   0.69524   0.00000  Uiso   1.00
H448   H     0.27397   0.34259   0.52205   0.00000  Uiso   1.00
H449   H     0.35875   0.58476   0.43354   0.00000  Uiso   1.00
H450   H     0.24835   0.62842   0.83100   0.00000  Uiso   1.00
H451   H     0.29506   0.18518   0.46579   0.00000  Uiso   1.00
O452   O     0.48057   0.57995   0.39782   0.00000  Uiso   1.00
O453   O     0.33574   0.63722   0.91928   0.00000  Uiso   1.00
O454   O     0.39702   0.05571   0.44012   0.00000  Uiso   1.00
N455   N     0.51451   0.51268   0.45661   0.00000  Uiso   1.00
N456   N     0.41130   0.55350   0.82822   0.00000  Uiso   1.00
N457   N     0.45496   0.13912   0.48679   0.00000  Uiso   1.00
N458   N     0.40288   0.55770   0.44698   0.00000  Uiso   1.00
N459   N     0.29967   0.59853   0.81858   0.00000  Uiso   1.00
N460   N     0.34334   0.18414   0.47716   0.00000  Uiso   1.00
C461   C     0.14668   0.81411   0.26093   0.00000  Uiso   1.00
C462   C     0.17922   0.87310   0.29433   0.00000  Uiso   1.00
C463   C     0.14360   0.94660   0.33616   0.00000  Uiso   1.00
C464   C     0.18280   0.99179   0.36169   0.00000  Uiso   1.00
C465   C     0.22234   0.08756   0.41592   0.00000  Uiso   1.00
C466   C     0.16601   0.78435   0.19099   0.00000  Uiso   1.00
C467   C     0.11926   0.78322   0.14593   0.00000  Uiso   1.00
C468   C     0.14734   0.75368   0.08446   0.00000  Uiso   1.00
C469   C     0.16636   0.71162   0.97825   0.00000  Uiso   1.00
C470   C     0.18594   0.75031   0.27757   0.00000  Uiso   1.00
C471   C     0.15596   0.72054   0.30530   0.00000  Uiso   1.00
C472   C     0.20082   0.66233   0.31672   0.00000  Uiso   1.00
C473   C     0.25079   0.56742   0.34495   0.00000  Uiso   1.00
C474   C     0.27966   0.76366   0.23190   0.00000  Uiso   1.00
C475   C     0.25145   0.84570   0.27856   0.00000  Uiso   1.00
C476   C     0.29073   0.89078   0.30403   0.00000  Uiso   1.00
C477   C     0.25516   0.96433   0.34589   0.00000  Uiso   1.00
C478   C     0.23823   0.75695   0.17522   0.00000  Uiso   1.00
C479   C     0.26639   0.72740   0.11380   0.00000  Uiso   1.00
C480   C     0.21970   0.72623   0.06866   0.00000  Uiso   1.00
C481   C     0.25817   0.72291   0.26180   0.00000  Uiso   1.00
C482   C     0.30309   0.66473   0.27318   0.00000  Uiso   1.00
C483   C     0.27318   0.63488   0.30092   0.00000  Uiso   1.00
H484   H     0.09044   0.83544   0.27321   0.00000  Uiso   1.00
H485   H     0.08769   0.96779   0.34835   0.00000  Uiso   1.00
H486   H     0.06337   0.80442   0.15815   0.00000  Uiso   1.00
H487   H     0.10006   0.74176   0.31750   0.00000  Uiso   1.00
H488   H     0.11650   0.10244   0.42468   0.00000  Uiso   1.00
H489   H     0.06520   0.75795   0.02363   0.00000  Uiso   1.00
H490   H     0.14257   0.62581   0.35965   0.00000  Uiso   1.00
H491   H     0.33590   0.74232   0.21961   0.00000  Uiso   1.00
H492   H     0.34662   0.86956   0.29182   0.00000  Uiso   1.00
H493   H     0.32229   0.70620   0.10161   0.00000  Uiso   1.00
H494   H     0.35898   0.64354   0.26097   0.00000  Uiso   1.00
H495   H     0.32665   0.02271   0.37880   0.00000  Uiso   1.00
H496   H     0.27535   0.67822   0.97774   0.00000  Uiso   1.00
H497   H     0.35273   0.54609   0.31377   0.00000  Uiso   1.00
O498   O     0.22419   0.14796   0.45019   0.00000  Uiso   1.00
O499   O     0.15690   0.69599   0.92402   0.00000  Uiso   1.00
O500   O     0.25841   0.52264   0.36488   0.00000  Uiso   1.00
N501   N     0.16449   0.06621   0.40399   0.00000  Uiso   1.00
N502   N     0.11653   0.74414   0.02903   0.00000  Uiso   1.00
N503   N     0.18886   0.62059   0.34316   0.00000  Uiso   1.00
N504   N     0.27757   0.02331   0.37930   0.00000  Uiso   1.00
N505   N     0.22961   0.70125   0.00434   0.00000  Uiso   1.00
N506   N     0.30194   0.57770   0.31847   0.00000  Uiso   1.00
C507   C     0.76335   0.82420   0.87391   0.00000  Uiso   1.00
C508   C     0.73779   0.90585   0.92159   0.00000  Uiso   1.00
C509   C     0.69077   0.96451   0.91203   0.00000  Uiso   1.00
C510   C     0.67405   0.03512   0.96147   0.00000  Uiso   1.00
C511   C     0.62993   0.16015   0.02683   0.00000  Uiso   1.00
C512   C     0.84283   0.79841   0.86624   0.00000  Uiso   1.00
C513   C     0.88412   0.76672   0.81014   0.00000  Uiso   1.00
C514   C     0.95582   0.74687   0.81299   0.00000  Uiso   1.00
C515   C     0.07479   0.70505   0.79242   0.00000  Uiso   1.00
C516   C     0.74638   0.78281   0.90572   0.00000  Uiso   1.00
C517   C     0.70659   0.73799   0.88281   0.00000  Uiso   1.00
C518   C     0.69711   0.70500   0.91890   0.00000  Uiso   1.00
C519   C     0.66632   0.63896   0.95963   0.00000  Uiso   1.00
C520   C     0.81726   0.84529   0.97872   0.00000  Uiso   1.00
C521   C     0.76707   0.91730   0.97851   0.00000  Uiso   1.00
C522   C     0.75041   0.98784   0.02799   0.00000  Uiso   1.00
C523   C     0.70338   0.04659   0.01850   0.00000  Uiso   1.00
C524   C     0.87211   0.80986   0.92317   0.00000  Uiso   1.00
C525   C     0.94377   0.79005   0.92610   0.00000  Uiso   1.00
C526   C     0.98516   0.75835   0.87002   0.00000  Uiso   1.00
C527   C     0.77566   0.79426   0.96265   0.00000  Uiso   1.00
C528   C     0.76624   0.76133   0.99878   0.00000  Uiso   1.00
C529   C     0.72644   0.71647   0.97593   0.00000  Uiso   1.00
H530   H     0.74056   0.81528   0.82958   0.00000  Uiso   1.00
H531   H     0.66813   0.95562   0.86796   0.00000  Uiso   1.00
H532   H     0.86145   0.75785   0.76609   0.00000  Uiso   1.00
H533   H     0.68394   0.72914   0.83876   0.00000  Uiso   1.00
H534   H     0.60076   0.11626   0.93560   0.00000  Uiso   1.00
H535   H     0.00839   0.69924   0.72081   0.00000  Uiso   1.00
H536   H     0.63409   0.63868   0.87403   0.00000  Uiso   1.00
H537   H     0.84006   0.85421   0.02304   0.00000  Uiso   1.00
H538   H     0.77308   0.99669   0.07204   0.00000  Uiso   1.00
H539   H     0.96641   0.79892   0.97017   0.00000  Uiso   1.00
H540   H     0.78890   0.77021   0.04283   0.00000  Uiso   1.00
H541   H     0.68594   0.14960   0.10124   0.00000  Uiso   1.00
H542   H     0.09358   0.73257   0.88644   0.00000  Uiso   1.00
H543   H     0.71928   0.67201   0.03967   0.00000  Uiso   1.00
O544   O     0.59752   0.22596   0.04715   0.00000  Uiso   1.00
O545   O     0.13231   0.67883   0.76534   0.00000  Uiso   1.00
O546   O     0.64124   0.59938   0.96638   0.00000  Uiso   1.00
N547   N     0.62999   0.10456   0.96787   0.00000  Uiso   1.00
N548   N     0.01110   0.71468   0.76704   0.00000  Uiso   1.00
N549   N     0.66117   0.65804   0.91029   0.00000  Uiso   1.00
N550   N     0.67582   0.12249   0.05699   0.00000  Uiso   1.00
N551   N     0.05694   0.73261   0.85617   0.00000  Uiso   1.00
N552   N     0.70701   0.67597   0.99942   0.00000  Uiso   1.00
