data_job_02614
_audit_creation_date              2018-12-19
_audit_creation_method            'Materials Studio'
_symmetry_space_group_name_H-M    'P1'
_symmetry_Int_Tables_number       1
_symmetry_cell_setting            triclinic
loop_
_symmetry_equiv_pos_as_xyz
  x,y,z
_cell_length_a                    21.3217
_cell_length_b                    25.4596
_cell_length_c                    12.2260
_cell_angle_alpha                 90.0000
_cell_angle_beta                  90.0000
_cell_angle_gamma                 90.0000
loop_
_atom_site_label
_atom_site_type_symbol
_atom_site_fract_x
_atom_site_fract_y
_atom_site_fract_z
_atom_site_U_iso_or_equiv
_atom_site_adp_type
_atom_site_occupancy
C1     C     0.83049   0.07561   0.49675   0.00000  Uiso   1.00
C2     C     0.87293   0.11547   0.44027   0.00000  Uiso   1.00
C3     C     0.89461   0.11222   0.33346   0.00000  Uiso   1.00
C4     C     0.93298   0.15266   0.29704   0.00000  Uiso   1.00
C5     C     0.99647   0.20812   0.19902   0.00000  Uiso   1.00
C6     C     0.86538   0.05824   0.59943   0.00000  Uiso   1.00
C7     C     0.88070   0.00687   0.62644   0.00000  Uiso   1.00
C8     C     0.91271   0.99913   0.72401   0.00000  Uiso   1.00
C9     C     0.96443   0.96573   0.87313   0.00000  Uiso   1.00
C10    C     0.77344   0.10631   0.53639   0.00000  Uiso   1.00
C11    C     0.71144   0.09535   0.51042   0.00000  Uiso   1.00
C12    C     0.66604   0.12808   0.55495   0.00000  Uiso   1.00
C13    C     0.57500   0.16932   0.60618   0.00000  Uiso   1.00
C14    C     0.86010   0.15321   0.62203   0.00000  Uiso   1.00
C15    C     0.88902   0.15762   0.50833   0.00000  Uiso   1.00
C16    C     0.92736   0.19807   0.47206   0.00000  Uiso   1.00
C17    C     0.94909   0.19488   0.36521   0.00000  Uiso   1.00
C18    C     0.88147   0.10038   0.66748   0.00000  Uiso   1.00
C19    C     0.91346   0.09272   0.76504   0.00000  Uiso   1.00
C20    C     0.92882   0.04135   0.79218   0.00000  Uiso   1.00
C21    C     0.78952   0.14846   0.60444   0.00000  Uiso   1.00
C22    C     0.74420   0.18121   0.64902   0.00000  Uiso   1.00
C23    C     0.68215   0.17030   0.62312   0.00000  Uiso   1.00
H24    H     0.81797   0.04280   0.44378   0.00000  Uiso   1.00
H25    H     0.88216   0.07959   0.28083   0.00000  Uiso   1.00
H26    H     0.86824   0.97426   0.57377   0.00000  Uiso   1.00
H27    H     0.69901   0.06273   0.45776   0.00000  Uiso   1.00
H28    H     0.96043   0.13896   0.13018   0.00000  Uiso   1.00
H29    H     0.93107   0.91686   0.74788   0.00000  Uiso   1.00
H30    H     0.57422   0.10342   0.50327   0.00000  Uiso   1.00
H31    H     0.87262   0.18603   0.67501   0.00000  Uiso   1.00
H32    H     0.93980   0.23068   0.52474   0.00000  Uiso   1.00
H33    H     0.92589   0.12535   0.81768   0.00000  Uiso   1.00
H34    H     0.75666   0.21382   0.70168   0.00000  Uiso   1.00
H35    H     0.00722   0.26159   0.32815   0.00000  Uiso   1.00
H36    H     0.97786   0.03949   0.94586   0.00000  Uiso   1.00
H37    H     0.62101   0.22605   0.70124   0.00000  Uiso   1.00
O38    O     0.02705   0.22706   0.12616   0.00000  Uiso   1.00
O39    O     0.98853   0.93567   0.93657   0.00000  Uiso   1.00
O40    O     0.52035   0.18043   0.61563   0.00000  Uiso   1.00
N41    N     0.96221   0.16170   0.19739   0.00000  Uiso   1.00
N42    N     0.93477   0.95405   0.77490   0.00000  Uiso   1.00
N43    N     0.60115   0.12846   0.54623   0.00000  Uiso   1.00
N44    N     0.98739   0.22769   0.30392   0.00000  Uiso   1.00
N45    N     0.95995   0.02003   0.88142   0.00000  Uiso   1.00
N46    N     0.62632   0.19444   0.65275   0.00000  Uiso   1.00
C47    C     0.66951   0.92439   0.99675   0.00000  Uiso   1.00
C48    C     0.62707   0.88453   0.94027   0.00000  Uiso   1.00
C49    C     0.60539   0.88778   0.83346   0.00000  Uiso   1.00
C50    C     0.56702   0.84734   0.79704   0.00000  Uiso   1.00
C51    C     0.50353   0.79188   0.69902   0.00000  Uiso   1.00
C52    C     0.63462   0.94176   0.09943   0.00000  Uiso   1.00
C53    C     0.61930   0.99313   0.12644   0.00000  Uiso   1.00
C54    C     0.58729   0.00087   0.22401   0.00000  Uiso   1.00
C55    C     0.53557   0.03427   0.37313   0.00000  Uiso   1.00
C56    C     0.72656   0.89369   0.03639   0.00000  Uiso   1.00
C57    C     0.78856   0.90465   0.01042   0.00000  Uiso   1.00
C58    C     0.83396   0.87192   0.05495   0.00000  Uiso   1.00
C59    C     0.92500   0.83068   0.10618   0.00000  Uiso   1.00
C60    C     0.63990   0.84679   0.12203   0.00000  Uiso   1.00
C61    C     0.61098   0.84238   0.00833   0.00000  Uiso   1.00
C62    C     0.57264   0.80193   0.97206   0.00000  Uiso   1.00
C63    C     0.55091   0.80512   0.86521   0.00000  Uiso   1.00
C64    C     0.61853   0.89962   0.16748   0.00000  Uiso   1.00
C65    C     0.58654   0.90728   0.26504   0.00000  Uiso   1.00
C66    C     0.57118   0.95865   0.29218   0.00000  Uiso   1.00
C67    C     0.71048   0.85154   0.10444   0.00000  Uiso   1.00
C68    C     0.75580   0.81879   0.14902   0.00000  Uiso   1.00
C69    C     0.81785   0.82970   0.12312   0.00000  Uiso   1.00
H70    H     0.68203   0.95720   0.94378   0.00000  Uiso   1.00
H71    H     0.61784   0.92041   0.78083   0.00000  Uiso   1.00
H72    H     0.63176   0.02574   0.07377   0.00000  Uiso   1.00
H73    H     0.80099   0.93727   0.95776   0.00000  Uiso   1.00
H74    H     0.53957   0.86104   0.63018   0.00000  Uiso   1.00
H75    H     0.56893   0.08314   0.24788   0.00000  Uiso   1.00
H76    H     0.92578   0.89658   0.00327   0.00000  Uiso   1.00
H77    H     0.62738   0.81397   0.17501   0.00000  Uiso   1.00
H78    H     0.56020   0.76932   0.02474   0.00000  Uiso   1.00
H79    H     0.57411   0.87465   0.31768   0.00000  Uiso   1.00
H80    H     0.74334   0.78618   0.20168   0.00000  Uiso   1.00
H81    H     0.49278   0.73841   0.82815   0.00000  Uiso   1.00
H82    H     0.52214   0.96051   0.44586   0.00000  Uiso   1.00
H83    H     0.87899   0.77395   0.20124   0.00000  Uiso   1.00
O84    O     0.47295   0.77294   0.62616   0.00000  Uiso   1.00
O85    O     0.51147   0.06433   0.43657   0.00000  Uiso   1.00
O86    O     0.97965   0.81957   0.11563   0.00000  Uiso   1.00
N87    N     0.53779   0.83830   0.69739   0.00000  Uiso   1.00
N88    N     0.56523   0.04595   0.27490   0.00000  Uiso   1.00
N89    N     0.89885   0.87154   0.04623   0.00000  Uiso   1.00
N90    N     0.51261   0.77231   0.80392   0.00000  Uiso   1.00
N91    N     0.54005   0.97997   0.38142   0.00000  Uiso   1.00
N92    N     0.87368   0.80556   0.15275   0.00000  Uiso   1.00
C93    C     0.16951   0.57561   0.00325   0.00000  Uiso   1.00
C94    C     0.12707   0.61547   0.05973   0.00000  Uiso   1.00
C95    C     0.10539   0.61222   0.16654   0.00000  Uiso   1.00
C96    C     0.06702   0.65266   0.20296   0.00000  Uiso   1.00
C97    C     0.00353   0.70812   0.30098   0.00000  Uiso   1.00
C98    C     0.13462   0.55824   0.90057   0.00000  Uiso   1.00
C99    C     0.11930   0.50687   0.87356   0.00000  Uiso   1.00
C100   C     0.08729   0.49913   0.77599   0.00000  Uiso   1.00
C101   C     0.03557   0.46573   0.62687   0.00000  Uiso   1.00
C102   C     0.22656   0.60631   0.96361   0.00000  Uiso   1.00
C103   C     0.28856   0.59535   0.98958   0.00000  Uiso   1.00
C104   C     0.33396   0.62808   0.94505   0.00000  Uiso   1.00
C105   C     0.42500   0.66932   0.89382   0.00000  Uiso   1.00
C106   C     0.13990   0.65321   0.87797   0.00000  Uiso   1.00
C107   C     0.11098   0.65762   0.99167   0.00000  Uiso   1.00
C108   C     0.07264   0.69807   0.02794   0.00000  Uiso   1.00
C109   C     0.05091   0.69488   0.13479   0.00000  Uiso   1.00
C110   C     0.11853   0.60038   0.83252   0.00000  Uiso   1.00
C111   C     0.08654   0.59272   0.73496   0.00000  Uiso   1.00
C112   C     0.07118   0.54135   0.70782   0.00000  Uiso   1.00
C113   C     0.21048   0.64846   0.89556   0.00000  Uiso   1.00
C114   C     0.25580   0.68121   0.85098   0.00000  Uiso   1.00
C115   C     0.31785   0.67030   0.87688   0.00000  Uiso   1.00
H116   H     0.18203   0.54280   0.05622   0.00000  Uiso   1.00
H117   H     0.11784   0.57959   0.21917   0.00000  Uiso   1.00
H118   H     0.13176   0.47426   0.92623   0.00000  Uiso   1.00
H119   H     0.30099   0.56273   0.04224   0.00000  Uiso   1.00
H120   H     0.03957   0.63896   0.36982   0.00000  Uiso   1.00
H121   H     0.06893   0.41686   0.75212   0.00000  Uiso   1.00
H122   H     0.42578   0.60342   0.99673   0.00000  Uiso   1.00
H123   H     0.12738   0.68603   0.82499   0.00000  Uiso   1.00
H124   H     0.06020   0.73068   0.97526   0.00000  Uiso   1.00
H125   H     0.07411   0.62535   0.68232   0.00000  Uiso   1.00
H126   H     0.24334   0.71382   0.79832   0.00000  Uiso   1.00
H127   H     0.99278   0.76159   0.17185   0.00000  Uiso   1.00
H128   H     0.02214   0.53949   0.55414   0.00000  Uiso   1.00
H129   H     0.37899   0.72605   0.79876   0.00000  Uiso   1.00
O130   O     0.97295   0.72706   0.37384   0.00000  Uiso   1.00
O131   O     0.01147   0.43567   0.56343   0.00000  Uiso   1.00
O132   O     0.47965   0.68043   0.88437   0.00000  Uiso   1.00
N133   N     0.03779   0.66170   0.30261   0.00000  Uiso   1.00
N134   N     0.06523   0.45405   0.72510   0.00000  Uiso   1.00
N135   N     0.39885   0.62846   0.95377   0.00000  Uiso   1.00
N136   N     0.01261   0.72769   0.19608   0.00000  Uiso   1.00
N137   N     0.04005   0.52003   0.61858   0.00000  Uiso   1.00
N138   N     0.37368   0.69444   0.84725   0.00000  Uiso   1.00
C139   C     0.33049   0.42439   0.50325   0.00000  Uiso   1.00
C140   C     0.37293   0.38453   0.55973   0.00000  Uiso   1.00
C141   C     0.39461   0.38778   0.66654   0.00000  Uiso   1.00
C142   C     0.43298   0.34734   0.70296   0.00000  Uiso   1.00
C143   C     0.49647   0.29188   0.80098   0.00000  Uiso   1.00
C144   C     0.36538   0.44176   0.40057   0.00000  Uiso   1.00
C145   C     0.38070   0.49313   0.37356   0.00000  Uiso   1.00
C146   C     0.41271   0.50087   0.27599   0.00000  Uiso   1.00
C147   C     0.46443   0.53427   0.12687   0.00000  Uiso   1.00
C148   C     0.27344   0.39369   0.46361   0.00000  Uiso   1.00
C149   C     0.21144   0.40465   0.48958   0.00000  Uiso   1.00
C150   C     0.16604   0.37192   0.44505   0.00000  Uiso   1.00
C151   C     0.07500   0.33068   0.39382   0.00000  Uiso   1.00
C152   C     0.36010   0.34679   0.37797   0.00000  Uiso   1.00
C153   C     0.38902   0.34238   0.49167   0.00000  Uiso   1.00
C154   C     0.42736   0.30193   0.52794   0.00000  Uiso   1.00
C155   C     0.44909   0.30512   0.63479   0.00000  Uiso   1.00
C156   C     0.38147   0.39962   0.33252   0.00000  Uiso   1.00
C157   C     0.41346   0.40728   0.23496   0.00000  Uiso   1.00
C158   C     0.42882   0.45865   0.20782   0.00000  Uiso   1.00
C159   C     0.28952   0.35154   0.39556   0.00000  Uiso   1.00
C160   C     0.24420   0.31879   0.35098   0.00000  Uiso   1.00
C161   C     0.18215   0.32970   0.37688   0.00000  Uiso   1.00
H162   H     0.31797   0.45720   0.55622   0.00000  Uiso   1.00
H163   H     0.38216   0.42041   0.71917   0.00000  Uiso   1.00
H164   H     0.36824   0.52574   0.42623   0.00000  Uiso   1.00
H165   H     0.19901   0.43727   0.54224   0.00000  Uiso   1.00
H166   H     0.46043   0.36104   0.86982   0.00000  Uiso   1.00
H167   H     0.43107   0.58314   0.25212   0.00000  Uiso   1.00
H168   H     0.07422   0.39658   0.49673   0.00000  Uiso   1.00
H169   H     0.37262   0.31397   0.32499   0.00000  Uiso   1.00
H170   H     0.43980   0.26932   0.47526   0.00000  Uiso   1.00
H171   H     0.42589   0.37465   0.18232   0.00000  Uiso   1.00
H172   H     0.25666   0.28618   0.29832   0.00000  Uiso   1.00
H173   H     0.50722   0.23841   0.67185   0.00000  Uiso   1.00
H174   H     0.47786   0.46051   0.05414   0.00000  Uiso   1.00
H175   H     0.12101   0.27395   0.29876   0.00000  Uiso   1.00
O176   O     0.52705   0.27294   0.87384   0.00000  Uiso   1.00
O177   O     0.48853   0.56433   0.06343   0.00000  Uiso   1.00
O178   O     0.02035   0.31957   0.38437   0.00000  Uiso   1.00
N179   N     0.46221   0.33830   0.80261   0.00000  Uiso   1.00
N180   N     0.43477   0.54595   0.22510   0.00000  Uiso   1.00
N181   N     0.10115   0.37154   0.45377   0.00000  Uiso   1.00
N182   N     0.48739   0.27231   0.69608   0.00000  Uiso   1.00
N183   N     0.45995   0.47997   0.11858   0.00000  Uiso   1.00
N184   N     0.12632   0.30556   0.34725   0.00000  Uiso   1.00
C185   C     0.16951   0.92439   0.50325   0.00000  Uiso   1.00
C186   C     0.12707   0.88453   0.55973   0.00000  Uiso   1.00
C187   C     0.10539   0.88778   0.66654   0.00000  Uiso   1.00
C188   C     0.06702   0.84734   0.70296   0.00000  Uiso   1.00
C189   C     0.00353   0.79188   0.80098   0.00000  Uiso   1.00
C190   C     0.13462   0.94176   0.40057   0.00000  Uiso   1.00
C191   C     0.11930   0.99313   0.37356   0.00000  Uiso   1.00
C192   C     0.08729   0.00087   0.27599   0.00000  Uiso   1.00
C193   C     0.03557   0.03427   0.12687   0.00000  Uiso   1.00
C194   C     0.22656   0.89369   0.46361   0.00000  Uiso   1.00
C195   C     0.28856   0.90465   0.48958   0.00000  Uiso   1.00
C196   C     0.33396   0.87192   0.44505   0.00000  Uiso   1.00
C197   C     0.42500   0.83068   0.39382   0.00000  Uiso   1.00
C198   C     0.13990   0.84679   0.37797   0.00000  Uiso   1.00
C199   C     0.11098   0.84238   0.49167   0.00000  Uiso   1.00
C200   C     0.07264   0.80193   0.52794   0.00000  Uiso   1.00
C201   C     0.05091   0.80512   0.63479   0.00000  Uiso   1.00
C202   C     0.11853   0.89962   0.33252   0.00000  Uiso   1.00
C203   C     0.08654   0.90728   0.23496   0.00000  Uiso   1.00
C204   C     0.07118   0.95865   0.20782   0.00000  Uiso   1.00
C205   C     0.21048   0.85154   0.39556   0.00000  Uiso   1.00
C206   C     0.25580   0.81879   0.35098   0.00000  Uiso   1.00
C207   C     0.31785   0.82970   0.37688   0.00000  Uiso   1.00
H208   H     0.18203   0.95720   0.55622   0.00000  Uiso   1.00
H209   H     0.11784   0.92041   0.71917   0.00000  Uiso   1.00
H210   H     0.13176   0.02574   0.42623   0.00000  Uiso   1.00
H211   H     0.30099   0.93727   0.54224   0.00000  Uiso   1.00
H212   H     0.03957   0.86104   0.86982   0.00000  Uiso   1.00
H213   H     0.06893   0.08314   0.25212   0.00000  Uiso   1.00
H214   H     0.42578   0.89658   0.49673   0.00000  Uiso   1.00
H215   H     0.12738   0.81397   0.32499   0.00000  Uiso   1.00
H216   H     0.06020   0.76932   0.47526   0.00000  Uiso   1.00
H217   H     0.07411   0.87465   0.18232   0.00000  Uiso   1.00
H218   H     0.24334   0.78618   0.29832   0.00000  Uiso   1.00
H219   H     0.99278   0.73841   0.67185   0.00000  Uiso   1.00
H220   H     0.02214   0.96051   0.05414   0.00000  Uiso   1.00
H221   H     0.37899   0.77395   0.29876   0.00000  Uiso   1.00
O222   O     0.97295   0.77294   0.87384   0.00000  Uiso   1.00
O223   O     0.01147   0.06433   0.06343   0.00000  Uiso   1.00
O224   O     0.47965   0.81957   0.38437   0.00000  Uiso   1.00
N225   N     0.03779   0.83830   0.80261   0.00000  Uiso   1.00
N226   N     0.06523   0.04595   0.22510   0.00000  Uiso   1.00
N227   N     0.39885   0.87154   0.45377   0.00000  Uiso   1.00
N228   N     0.01261   0.77231   0.69608   0.00000  Uiso   1.00
N229   N     0.04005   0.97997   0.11858   0.00000  Uiso   1.00
N230   N     0.37368   0.80556   0.34725   0.00000  Uiso   1.00
C231   C     0.33049   0.07561   0.00325   0.00000  Uiso   1.00
C232   C     0.37293   0.11547   0.05973   0.00000  Uiso   1.00
C233   C     0.39461   0.11222   0.16654   0.00000  Uiso   1.00
C234   C     0.43298   0.15266   0.20296   0.00000  Uiso   1.00
C235   C     0.49647   0.20812   0.30098   0.00000  Uiso   1.00
C236   C     0.36538   0.05824   0.90057   0.00000  Uiso   1.00
C237   C     0.38070   0.00687   0.87356   0.00000  Uiso   1.00
C238   C     0.41271   0.99913   0.77599   0.00000  Uiso   1.00
C239   C     0.46443   0.96573   0.62687   0.00000  Uiso   1.00
C240   C     0.27344   0.10631   0.96361   0.00000  Uiso   1.00
C241   C     0.21144   0.09535   0.98958   0.00000  Uiso   1.00
C242   C     0.16604   0.12808   0.94505   0.00000  Uiso   1.00
C243   C     0.07500   0.16932   0.89382   0.00000  Uiso   1.00
C244   C     0.36010   0.15321   0.87797   0.00000  Uiso   1.00
C245   C     0.38902   0.15762   0.99167   0.00000  Uiso   1.00
C246   C     0.42736   0.19807   0.02794   0.00000  Uiso   1.00
C247   C     0.44909   0.19488   0.13479   0.00000  Uiso   1.00
C248   C     0.38147   0.10038   0.83252   0.00000  Uiso   1.00
C249   C     0.41346   0.09272   0.73496   0.00000  Uiso   1.00
C250   C     0.42882   0.04135   0.70782   0.00000  Uiso   1.00
C251   C     0.28952   0.14846   0.89556   0.00000  Uiso   1.00
C252   C     0.24420   0.18121   0.85098   0.00000  Uiso   1.00
C253   C     0.18215   0.17030   0.87688   0.00000  Uiso   1.00
H254   H     0.31797   0.04280   0.05622   0.00000  Uiso   1.00
H255   H     0.38216   0.07959   0.21917   0.00000  Uiso   1.00
H256   H     0.36824   0.97426   0.92623   0.00000  Uiso   1.00
H257   H     0.19901   0.06273   0.04224   0.00000  Uiso   1.00
H258   H     0.46043   0.13896   0.36982   0.00000  Uiso   1.00
H259   H     0.43107   0.91686   0.75212   0.00000  Uiso   1.00
H260   H     0.07422   0.10342   0.99673   0.00000  Uiso   1.00
H261   H     0.37262   0.18603   0.82499   0.00000  Uiso   1.00
H262   H     0.43980   0.23068   0.97526   0.00000  Uiso   1.00
H263   H     0.42589   0.12535   0.68232   0.00000  Uiso   1.00
H264   H     0.25666   0.21382   0.79832   0.00000  Uiso   1.00
H265   H     0.50722   0.26159   0.17185   0.00000  Uiso   1.00
H266   H     0.47786   0.03949   0.55414   0.00000  Uiso   1.00
H267   H     0.12101   0.22605   0.79876   0.00000  Uiso   1.00
O268   O     0.52705   0.22706   0.37384   0.00000  Uiso   1.00
O269   O     0.48853   0.93567   0.56343   0.00000  Uiso   1.00
O270   O     0.02035   0.18043   0.88437   0.00000  Uiso   1.00
N271   N     0.46221   0.16170   0.30261   0.00000  Uiso   1.00
N272   N     0.43477   0.95405   0.72510   0.00000  Uiso   1.00
N273   N     0.10115   0.12846   0.95377   0.00000  Uiso   1.00
N274   N     0.48739   0.22769   0.19608   0.00000  Uiso   1.00
N275   N     0.45995   0.02003   0.61858   0.00000  Uiso   1.00
N276   N     0.12632   0.19444   0.84725   0.00000  Uiso   1.00
C277   C     0.83049   0.42439   0.99675   0.00000  Uiso   1.00
C278   C     0.87293   0.38453   0.94027   0.00000  Uiso   1.00
C279   C     0.89461   0.38778   0.83346   0.00000  Uiso   1.00
C280   C     0.93298   0.34734   0.79704   0.00000  Uiso   1.00
C281   C     0.99647   0.29188   0.69902   0.00000  Uiso   1.00
C282   C     0.86538   0.44176   0.09943   0.00000  Uiso   1.00
C283   C     0.88070   0.49313   0.12644   0.00000  Uiso   1.00
C284   C     0.91271   0.50087   0.22401   0.00000  Uiso   1.00
C285   C     0.96443   0.53427   0.37313   0.00000  Uiso   1.00
C286   C     0.77344   0.39369   0.03639   0.00000  Uiso   1.00
C287   C     0.71144   0.40465   0.01042   0.00000  Uiso   1.00
C288   C     0.66604   0.37192   0.05495   0.00000  Uiso   1.00
C289   C     0.57500   0.33068   0.10618   0.00000  Uiso   1.00
C290   C     0.86010   0.34679   0.12203   0.00000  Uiso   1.00
C291   C     0.88902   0.34238   0.00833   0.00000  Uiso   1.00
C292   C     0.92736   0.30193   0.97206   0.00000  Uiso   1.00
C293   C     0.94909   0.30512   0.86521   0.00000  Uiso   1.00
C294   C     0.88147   0.39962   0.16748   0.00000  Uiso   1.00
C295   C     0.91346   0.40728   0.26504   0.00000  Uiso   1.00
C296   C     0.92882   0.45865   0.29218   0.00000  Uiso   1.00
C297   C     0.78952   0.35154   0.10444   0.00000  Uiso   1.00
C298   C     0.74420   0.31879   0.14902   0.00000  Uiso   1.00
C299   C     0.68215   0.32970   0.12312   0.00000  Uiso   1.00
H300   H     0.81797   0.45720   0.94378   0.00000  Uiso   1.00
H301   H     0.88216   0.42041   0.78083   0.00000  Uiso   1.00
H302   H     0.86824   0.52574   0.07377   0.00000  Uiso   1.00
H303   H     0.69901   0.43727   0.95776   0.00000  Uiso   1.00
H304   H     0.96043   0.36104   0.63018   0.00000  Uiso   1.00
H305   H     0.93107   0.58314   0.24788   0.00000  Uiso   1.00
H306   H     0.57422   0.39658   0.00327   0.00000  Uiso   1.00
H307   H     0.87262   0.31397   0.17501   0.00000  Uiso   1.00
H308   H     0.93980   0.26932   0.02474   0.00000  Uiso   1.00
H309   H     0.92589   0.37465   0.31768   0.00000  Uiso   1.00
H310   H     0.75666   0.28618   0.20168   0.00000  Uiso   1.00
H311   H     0.00722   0.23841   0.82815   0.00000  Uiso   1.00
H312   H     0.97786   0.46051   0.44586   0.00000  Uiso   1.00
H313   H     0.62101   0.27395   0.20124   0.00000  Uiso   1.00
O314   O     0.02705   0.27294   0.62616   0.00000  Uiso   1.00
O315   O     0.98853   0.56433   0.43657   0.00000  Uiso   1.00
O316   O     0.52035   0.31957   0.11563   0.00000  Uiso   1.00
N317   N     0.96221   0.33830   0.69739   0.00000  Uiso   1.00
N318   N     0.93477   0.54595   0.27490   0.00000  Uiso   1.00
N319   N     0.60115   0.37154   0.04623   0.00000  Uiso   1.00
N320   N     0.98739   0.27231   0.80392   0.00000  Uiso   1.00
N321   N     0.95995   0.47997   0.38142   0.00000  Uiso   1.00
N322   N     0.62632   0.30556   0.15275   0.00000  Uiso   1.00
C323   C     0.66951   0.57561   0.49675   0.00000  Uiso   1.00
C324   C     0.62707   0.61547   0.44027   0.00000  Uiso   1.00
C325   C     0.60539   0.61222   0.33346   0.00000  Uiso   1.00
C326   C     0.56702   0.65266   0.29704   0.00000  Uiso   1.00
C327   C     0.50353   0.70812   0.19902   0.00000  Uiso   1.00
C328   C     0.63462   0.55824   0.59943   0.00000  Uiso   1.00
C329   C     0.61930   0.50687   0.62644   0.00000  Uiso   1.00
C330   C     0.58729   0.49913   0.72401   0.00000  Uiso   1.00
C331   C     0.53557   0.46573   0.87313   0.00000  Uiso   1.00
C332   C     0.72656   0.60631   0.53639   0.00000  Uiso   1.00
C333   C     0.78856   0.59535   0.51042   0.00000  Uiso   1.00
C334   C     0.83396   0.62808   0.55495   0.00000  Uiso   1.00
C335   C     0.92500   0.66932   0.60618   0.00000  Uiso   1.00
C336   C     0.63990   0.65321   0.62203   0.00000  Uiso   1.00
C337   C     0.61098   0.65762   0.50833   0.00000  Uiso   1.00
C338   C     0.57264   0.69807   0.47206   0.00000  Uiso   1.00
C339   C     0.55091   0.69488   0.36521   0.00000  Uiso   1.00
C340   C     0.61853   0.60038   0.66748   0.00000  Uiso   1.00
C341   C     0.58654   0.59272   0.76504   0.00000  Uiso   1.00
C342   C     0.57118   0.54135   0.79218   0.00000  Uiso   1.00
C343   C     0.71048   0.64846   0.60444   0.00000  Uiso   1.00
C344   C     0.75580   0.68121   0.64902   0.00000  Uiso   1.00
C345   C     0.81785   0.67030   0.62312   0.00000  Uiso   1.00
H346   H     0.68203   0.54280   0.44378   0.00000  Uiso   1.00
H347   H     0.61784   0.57959   0.28083   0.00000  Uiso   1.00
H348   H     0.63176   0.47426   0.57377   0.00000  Uiso   1.00
H349   H     0.80099   0.56273   0.45776   0.00000  Uiso   1.00
H350   H     0.53957   0.63896   0.13018   0.00000  Uiso   1.00
H351   H     0.56893   0.41686   0.74788   0.00000  Uiso   1.00
H352   H     0.92578   0.60342   0.50327   0.00000  Uiso   1.00
H353   H     0.62738   0.68603   0.67501   0.00000  Uiso   1.00
H354   H     0.56020   0.73068   0.52474   0.00000  Uiso   1.00
H355   H     0.57411   0.62535   0.81768   0.00000  Uiso   1.00
H356   H     0.74334   0.71382   0.70168   0.00000  Uiso   1.00
H357   H     0.49278   0.76159   0.32815   0.00000  Uiso   1.00
H358   H     0.52214   0.53949   0.94586   0.00000  Uiso   1.00
H359   H     0.87899   0.72605   0.70124   0.00000  Uiso   1.00
O360   O     0.47295   0.72706   0.12616   0.00000  Uiso   1.00
O361   O     0.51147   0.43567   0.93657   0.00000  Uiso   1.00
O362   O     0.97965   0.68043   0.61563   0.00000  Uiso   1.00
N363   N     0.53779   0.66170   0.19739   0.00000  Uiso   1.00
N364   N     0.56523   0.45405   0.77490   0.00000  Uiso   1.00
N365   N     0.89885   0.62846   0.54623   0.00000  Uiso   1.00
N366   N     0.51261   0.72769   0.30392   0.00000  Uiso   1.00
N367   N     0.54005   0.52003   0.88142   0.00000  Uiso   1.00
N368   N     0.87368   0.69444   0.65275   0.00000  Uiso   1.00
