data_job_00253
_audit_creation_date              2018-12-19
_audit_creation_method            'Materials Studio'
_symmetry_space_group_name_H-M    'P1'
_symmetry_Int_Tables_number       1
_symmetry_cell_setting            triclinic
loop_
_symmetry_equiv_pos_as_xyz
  x,y,z
_cell_length_a                    10.0854
_cell_length_b                    17.6547
_cell_length_c                    12.4634
_cell_angle_alpha                 90.0000
_cell_angle_beta                  90.0000
_cell_angle_gamma                 90.0000
loop_
_atom_site_label
_atom_site_type_symbol
_atom_site_fract_x
_atom_site_fract_y
_atom_site_fract_z
_atom_site_U_iso_or_equiv
_atom_site_adp_type
_atom_site_occupancy
C1     C     0.31280   0.07429   0.21809   0.00000  Uiso   1.00
C2     C     0.36364   0.10667   0.32380   0.00000  Uiso   1.00
C3     C     0.46314   0.07556   0.38684   0.00000  Uiso   1.00
C4     C     0.49529   0.11374   0.48069   0.00000  Uiso   1.00
C5     C     0.58410   0.15382   0.64035   0.00000  Uiso   1.00
C6     C     0.16388   0.06337   0.23259   0.00000  Uiso   1.00
C7     C     0.09542   0.99586   0.21893   0.00000  Uiso   1.00
C8     C     0.95941   0.99760   0.23599   0.00000  Uiso   1.00
C9     C     0.73807   0.97046   0.25397   0.00000  Uiso   1.00
C10    C     0.32873   0.13721   0.13527   0.00000  Uiso   1.00
C11    C     0.39886   0.13179   0.03977   0.00000  Uiso   1.00
C12    C     0.40161   0.19570   0.97487   0.00000  Uiso   1.00
C13    C     0.43624   0.28321   0.84175   0.00000  Uiso   1.00
C14    C     0.19297   0.19741   0.27264   0.00000  Uiso   1.00
C15    C     0.29855   0.17354   0.35343   0.00000  Uiso   1.00
C16    C     0.33057   0.21178   0.44720   0.00000  Uiso   1.00
C17    C     0.43010   0.18074   0.51037   0.00000  Uiso   1.00
C18    C     0.09879   0.13024   0.26222   0.00000  Uiso   1.00
C19    C     0.96285   0.13208   0.27929   0.00000  Uiso   1.00
C20    C     0.89421   0.06459   0.26567   0.00000  Uiso   1.00
C21    C     0.26365   0.20409   0.16490   0.00000  Uiso   1.00
C22    C     0.26629   0.26801   0.10013   0.00000  Uiso   1.00
C23    C     0.33641   0.26269   0.00456   0.00000  Uiso   1.00
H24    H     0.36346   0.02223   0.19502   0.00000  Uiso   1.00
H25    H     0.51348   0.02380   0.36389   0.00000  Uiso   1.00
H26    H     0.14581   0.94412   0.19599   0.00000  Uiso   1.00
H27    H     0.44921   0.08003   0.01686   0.00000  Uiso   1.00
H28    H     0.65106   0.05503   0.56420   0.00000  Uiso   1.00
H29    H     0.87582   0.88701   0.21015   0.00000  Uiso   1.00
H30    H     0.51559   0.17361   0.83241   0.00000  Uiso   1.00
H31    H     0.14229   0.24948   0.29571   0.00000  Uiso   1.00
H32    H     0.28018   0.26353   0.47011   0.00000  Uiso   1.00
H33    H     0.91252   0.18384   0.30222   0.00000  Uiso   1.00
H34    H     0.21591   0.31975   0.12309   0.00000  Uiso   1.00
H35    H     0.46171   0.24960   0.65042   0.00000  Uiso   1.00
H36    H     0.68647   0.08158   0.29636   0.00000  Uiso   1.00
H37    H     0.32623   0.36818   0.91863   0.00000  Uiso   1.00
O38    O     0.65105   0.15744   0.72023   0.00000  Uiso   1.00
O39    O     0.63397   0.93702   0.25571   0.00000  Uiso   1.00
O40    O     0.47333   0.31302   0.76014   0.00000  Uiso   1.00
N41    N     0.58759   0.09890   0.56055   0.00000  Uiso   1.00
N42    N     0.86279   0.94181   0.22955   0.00000  Uiso   1.00
N43    N     0.46089   0.20975   0.87638   0.00000  Uiso   1.00
N44    N     0.48570   0.20360   0.60694   0.00000  Uiso   1.00
N45    N     0.76090   0.04651   0.27594   0.00000  Uiso   1.00
N46    N     0.35900   0.31444   0.92278   0.00000  Uiso   1.00
C47    C     0.68720   0.92571   0.71809   0.00000  Uiso   1.00
C48    C     0.63636   0.89333   0.82380   0.00000  Uiso   1.00
C49    C     0.53686   0.92444   0.88684   0.00000  Uiso   1.00
C50    C     0.50471   0.88626   0.98069   0.00000  Uiso   1.00
C51    C     0.41590   0.84618   0.14035   0.00000  Uiso   1.00
C52    C     0.83612   0.93663   0.73259   0.00000  Uiso   1.00
C53    C     0.90458   0.00414   0.71893   0.00000  Uiso   1.00
C54    C     0.04059   0.00240   0.73599   0.00000  Uiso   1.00
C55    C     0.26193   0.02954   0.75397   0.00000  Uiso   1.00
C56    C     0.67127   0.86279   0.63527   0.00000  Uiso   1.00
C57    C     0.60114   0.86821   0.53977   0.00000  Uiso   1.00
C58    C     0.59839   0.80430   0.47487   0.00000  Uiso   1.00
C59    C     0.56376   0.71679   0.34175   0.00000  Uiso   1.00
C60    C     0.80703   0.80259   0.77264   0.00000  Uiso   1.00
C61    C     0.70145   0.82646   0.85343   0.00000  Uiso   1.00
C62    C     0.66943   0.78822   0.94720   0.00000  Uiso   1.00
C63    C     0.56990   0.81926   0.01037   0.00000  Uiso   1.00
C64    C     0.90121   0.86976   0.76222   0.00000  Uiso   1.00
C65    C     0.03715   0.86792   0.77929   0.00000  Uiso   1.00
C66    C     0.10579   0.93541   0.76567   0.00000  Uiso   1.00
C67    C     0.73635   0.79591   0.66490   0.00000  Uiso   1.00
C68    C     0.73371   0.73199   0.60013   0.00000  Uiso   1.00
C69    C     0.66359   0.73731   0.50456   0.00000  Uiso   1.00
H70    H     0.63654   0.97777   0.69502   0.00000  Uiso   1.00
H71    H     0.48652   0.97620   0.86389   0.00000  Uiso   1.00
H72    H     0.85419   0.05588   0.69599   0.00000  Uiso   1.00
H73    H     0.55079   0.91997   0.51686   0.00000  Uiso   1.00
H74    H     0.34894   0.94497   0.06420   0.00000  Uiso   1.00
H75    H     0.12418   0.11299   0.71015   0.00000  Uiso   1.00
H76    H     0.48441   0.82639   0.33241   0.00000  Uiso   1.00
H77    H     0.85771   0.75052   0.79571   0.00000  Uiso   1.00
H78    H     0.71982   0.73647   0.97011   0.00000  Uiso   1.00
H79    H     0.08748   0.81616   0.80222   0.00000  Uiso   1.00
H80    H     0.78409   0.68025   0.62309   0.00000  Uiso   1.00
H81    H     0.53829   0.75040   0.15042   0.00000  Uiso   1.00
H82    H     0.31353   0.91842   0.79636   0.00000  Uiso   1.00
H83    H     0.67377   0.63182   0.41863   0.00000  Uiso   1.00
O84    O     0.34895   0.84256   0.22023   0.00000  Uiso   1.00
O85    O     0.36603   0.06298   0.75571   0.00000  Uiso   1.00
O86    O     0.52667   0.68698   0.26014   0.00000  Uiso   1.00
N87    N     0.41241   0.90110   0.06055   0.00000  Uiso   1.00
N88    N     0.13721   0.05819   0.72955   0.00000  Uiso   1.00
N89    N     0.53911   0.79025   0.37638   0.00000  Uiso   1.00
N90    N     0.51430   0.79640   0.10694   0.00000  Uiso   1.00
N91    N     0.23910   0.95349   0.77594   0.00000  Uiso   1.00
N92    N     0.64100   0.68556   0.42278   0.00000  Uiso   1.00
C93    C     0.81280   0.42571   0.21809   0.00000  Uiso   1.00
C94    C     0.86364   0.39333   0.32380   0.00000  Uiso   1.00
C95    C     0.96314   0.42444   0.38684   0.00000  Uiso   1.00
C96    C     0.99529   0.38626   0.48069   0.00000  Uiso   1.00
C97    C     0.08410   0.34618   0.64035   0.00000  Uiso   1.00
C98    C     0.66388   0.43663   0.23259   0.00000  Uiso   1.00
C99    C     0.59542   0.50414   0.21893   0.00000  Uiso   1.00
C100   C     0.45941   0.50240   0.23599   0.00000  Uiso   1.00
C101   C     0.23807   0.52954   0.25397   0.00000  Uiso   1.00
C102   C     0.82873   0.36279   0.13527   0.00000  Uiso   1.00
C103   C     0.89886   0.36821   0.03977   0.00000  Uiso   1.00
C104   C     0.90161   0.30430   0.97487   0.00000  Uiso   1.00
C105   C     0.93624   0.21679   0.84175   0.00000  Uiso   1.00
C106   C     0.69297   0.30259   0.27264   0.00000  Uiso   1.00
C107   C     0.79855   0.32646   0.35343   0.00000  Uiso   1.00
C108   C     0.83057   0.28822   0.44720   0.00000  Uiso   1.00
C109   C     0.93010   0.31926   0.51037   0.00000  Uiso   1.00
C110   C     0.59879   0.36976   0.26222   0.00000  Uiso   1.00
C111   C     0.46285   0.36792   0.27929   0.00000  Uiso   1.00
C112   C     0.39421   0.43541   0.26567   0.00000  Uiso   1.00
C113   C     0.76365   0.29591   0.16490   0.00000  Uiso   1.00
C114   C     0.76629   0.23199   0.10013   0.00000  Uiso   1.00
C115   C     0.83641   0.23731   0.00456   0.00000  Uiso   1.00
H116   H     0.86346   0.47777   0.19502   0.00000  Uiso   1.00
H117   H     0.01348   0.47620   0.36389   0.00000  Uiso   1.00
H118   H     0.64581   0.55588   0.19599   0.00000  Uiso   1.00
H119   H     0.94921   0.41997   0.01686   0.00000  Uiso   1.00
H120   H     0.15106   0.44497   0.56420   0.00000  Uiso   1.00
H121   H     0.37582   0.61299   0.21015   0.00000  Uiso   1.00
H122   H     0.01559   0.32639   0.83241   0.00000  Uiso   1.00
H123   H     0.64229   0.25052   0.29571   0.00000  Uiso   1.00
H124   H     0.78018   0.23647   0.47011   0.00000  Uiso   1.00
H125   H     0.41252   0.31616   0.30222   0.00000  Uiso   1.00
H126   H     0.71591   0.18025   0.12309   0.00000  Uiso   1.00
H127   H     0.96171   0.25040   0.65042   0.00000  Uiso   1.00
H128   H     0.18647   0.41842   0.29636   0.00000  Uiso   1.00
H129   H     0.82623   0.13182   0.91863   0.00000  Uiso   1.00
O130   O     0.15105   0.34256   0.72023   0.00000  Uiso   1.00
O131   O     0.13397   0.56298   0.25571   0.00000  Uiso   1.00
O132   O     0.97333   0.18698   0.76014   0.00000  Uiso   1.00
N133   N     0.08759   0.40110   0.56055   0.00000  Uiso   1.00
N134   N     0.36279   0.55819   0.22955   0.00000  Uiso   1.00
N135   N     0.96089   0.29025   0.87638   0.00000  Uiso   1.00
N136   N     0.98570   0.29640   0.60694   0.00000  Uiso   1.00
N137   N     0.26090   0.45349   0.27594   0.00000  Uiso   1.00
N138   N     0.85900   0.18556   0.92278   0.00000  Uiso   1.00
C139   C     0.18720   0.57429   0.71809   0.00000  Uiso   1.00
C140   C     0.13636   0.60667   0.82380   0.00000  Uiso   1.00
C141   C     0.03686   0.57556   0.88684   0.00000  Uiso   1.00
C142   C     0.00471   0.61374   0.98069   0.00000  Uiso   1.00
C143   C     0.91590   0.65382   0.14035   0.00000  Uiso   1.00
C144   C     0.33612   0.56337   0.73259   0.00000  Uiso   1.00
C145   C     0.40458   0.49586   0.71893   0.00000  Uiso   1.00
C146   C     0.54059   0.49760   0.73599   0.00000  Uiso   1.00
C147   C     0.76193   0.47046   0.75397   0.00000  Uiso   1.00
C148   C     0.17127   0.63721   0.63527   0.00000  Uiso   1.00
C149   C     0.10114   0.63179   0.53977   0.00000  Uiso   1.00
C150   C     0.09839   0.69570   0.47487   0.00000  Uiso   1.00
C151   C     0.06376   0.78321   0.34175   0.00000  Uiso   1.00
C152   C     0.30703   0.69741   0.77264   0.00000  Uiso   1.00
C153   C     0.20145   0.67354   0.85343   0.00000  Uiso   1.00
C154   C     0.16943   0.71178   0.94720   0.00000  Uiso   1.00
C155   C     0.06990   0.68074   0.01037   0.00000  Uiso   1.00
C156   C     0.40121   0.63024   0.76222   0.00000  Uiso   1.00
C157   C     0.53715   0.63208   0.77929   0.00000  Uiso   1.00
C158   C     0.60579   0.56459   0.76567   0.00000  Uiso   1.00
C159   C     0.23635   0.70409   0.66490   0.00000  Uiso   1.00
C160   C     0.23371   0.76801   0.60013   0.00000  Uiso   1.00
C161   C     0.16359   0.76269   0.50456   0.00000  Uiso   1.00
H162   H     0.13654   0.52223   0.69502   0.00000  Uiso   1.00
H163   H     0.98652   0.52380   0.86389   0.00000  Uiso   1.00
H164   H     0.35419   0.44412   0.69599   0.00000  Uiso   1.00
H165   H     0.05079   0.58003   0.51686   0.00000  Uiso   1.00
H166   H     0.84894   0.55503   0.06420   0.00000  Uiso   1.00
H167   H     0.62418   0.38701   0.71015   0.00000  Uiso   1.00
H168   H     0.98441   0.67361   0.33241   0.00000  Uiso   1.00
H169   H     0.35771   0.74948   0.79571   0.00000  Uiso   1.00
H170   H     0.21982   0.76353   0.97011   0.00000  Uiso   1.00
H171   H     0.58748   0.68384   0.80222   0.00000  Uiso   1.00
H172   H     0.28409   0.81975   0.62309   0.00000  Uiso   1.00
H173   H     0.03829   0.74960   0.15042   0.00000  Uiso   1.00
H174   H     0.81353   0.58158   0.79636   0.00000  Uiso   1.00
H175   H     0.17377   0.86818   0.41863   0.00000  Uiso   1.00
O176   O     0.84895   0.65744   0.22023   0.00000  Uiso   1.00
O177   O     0.86603   0.43702   0.75571   0.00000  Uiso   1.00
O178   O     0.02667   0.81302   0.26014   0.00000  Uiso   1.00
N179   N     0.91241   0.59890   0.06055   0.00000  Uiso   1.00
N180   N     0.63721   0.44181   0.72955   0.00000  Uiso   1.00
N181   N     0.03911   0.70975   0.37638   0.00000  Uiso   1.00
N182   N     0.01430   0.70360   0.10694   0.00000  Uiso   1.00
N183   N     0.73910   0.54651   0.77594   0.00000  Uiso   1.00
N184   N     0.14100   0.81444   0.42278   0.00000  Uiso   1.00
