data_job_01294
_audit_creation_date              2018-12-19
_audit_creation_method            'Materials Studio'
_symmetry_space_group_name_H-M    'P1'
_symmetry_Int_Tables_number       1
_symmetry_cell_setting            triclinic
loop_
_symmetry_equiv_pos_as_xyz
  x,y,z
_cell_length_a                    10.3665
_cell_length_b                    27.5439
_cell_length_c                    9.5278
_cell_angle_alpha                 90.0000
_cell_angle_beta                  77.7128
_cell_angle_gamma                 90.0000
loop_
_atom_site_label
_atom_site_type_symbol
_atom_site_fract_x
_atom_site_fract_y
_atom_site_fract_z
_atom_site_U_iso_or_equiv
_atom_site_adp_type
_atom_site_occupancy
C1     C     0.84228   0.83212   0.42183   0.00000  Uiso   1.00
C2     C     0.77724   0.86709   0.33384   0.00000  Uiso   1.00
C3     C     0.78238   0.86376   0.18741   0.00000  Uiso   1.00
C4     C     0.71644   0.89934   0.12691   0.00000  Uiso   1.00
C5     C     0.62595   0.94793   0.97764   0.00000  Uiso   1.00
C6     C     0.93114   0.86310   0.49437   0.00000  Uiso   1.00
C7     C     0.06567   0.85641   0.48294   0.00000  Uiso   1.00
C8     C     0.12927   0.88863   0.55759   0.00000  Uiso   1.00
C9     C     0.27769   0.93102   0.65763   0.00000  Uiso   1.00
C10    C     0.73194   0.81354   0.54207   0.00000  Uiso   1.00
C11    C     0.69899   0.76518   0.57078   0.00000  Uiso   1.00
C12    C     0.59489   0.75567   0.68562   0.00000  Uiso   1.00
C13    C     0.43401   0.72110   0.85972   0.00000  Uiso   1.00
C14    C     0.71601   0.90123   0.57476   0.00000  Uiso   1.00
C15    C     0.70867   0.90463   0.41691   0.00000  Uiso   1.00
C16    C     0.64269   0.94022   0.35661   0.00000  Uiso   1.00
C17    C     0.64773   0.93694   0.21013   0.00000  Uiso   1.00
C18    C     0.86257   0.90064   0.57744   0.00000  Uiso   1.00
C19    C     0.92598   0.93287   0.65214   0.00000  Uiso   1.00
C20    C     0.06057   0.92624   0.64081   0.00000  Uiso   1.00
C21    C     0.66335   0.85108   0.62514   0.00000  Uiso   1.00
C22    C     0.55929   0.84164   0.73997   0.00000  Uiso   1.00
C23    C     0.52619   0.79327   0.76884   0.00000  Uiso   1.00
H24    H     0.89568   0.80290   0.35716   0.00000  Uiso   1.00
H25    H     0.83548   0.83471   0.12316   0.00000  Uiso   1.00
H26    H     0.11872   0.82736   0.41866   0.00000  Uiso   1.00
H27    H     0.75209   0.73614   0.50647   0.00000  Uiso   1.00
H28    H     0.73854   0.88653   0.90036   0.00000  Uiso   1.00
H29    H     0.33575   0.87103   0.52346   0.00000  Uiso   1.00
H30    H     0.56264   0.67868   0.70864   0.00000  Uiso   1.00
H31    H     0.66262   0.93045   0.63943   0.00000  Uiso   1.00
H32    H     0.58963   0.96926   0.42092   0.00000  Uiso   1.00
H33    H     0.87287   0.96191   0.71641   0.00000  Uiso   1.00
H34    H     0.50624   0.87069   0.80423   0.00000  Uiso   1.00
H35    H     0.53900   0.99574   0.14203   0.00000  Uiso   1.00
H36    H     0.13622   0.98024   0.76513   0.00000  Uiso   1.00
H37    H     0.36310   0.78789   0.95031   0.00000  Uiso   1.00
O38    O     0.59499   0.96437   0.87235   0.00000  Uiso   1.00
O39    O     0.37851   0.94403   0.68985   0.00000  Uiso   1.00
O40    O     0.36420   0.69167   0.93280   0.00000  Uiso   1.00
N41    N     0.70157   0.90690   0.98723   0.00000  Uiso   1.00
N42    N     0.25993   0.89242   0.56977   0.00000  Uiso   1.00
N43    N     0.53716   0.71258   0.74292   0.00000  Uiso   1.00
N44    N     0.59420   0.96567   0.11727   0.00000  Uiso   1.00
N45    N     0.15256   0.95118   0.69981   0.00000  Uiso   1.00
N46    N     0.42979   0.77135   0.87296   0.00000  Uiso   1.00
C47    C     0.15772   0.33212   0.07817   0.00000  Uiso   1.00
C48    C     0.22276   0.36709   0.16616   0.00000  Uiso   1.00
C49    C     0.21762   0.36376   0.31259   0.00000  Uiso   1.00
C50    C     0.28356   0.39934   0.37309   0.00000  Uiso   1.00
C51    C     0.37405   0.44793   0.52236   0.00000  Uiso   1.00
C52    C     0.06886   0.36310   0.00563   0.00000  Uiso   1.00
C53    C     0.93433   0.35641   0.01706   0.00000  Uiso   1.00
C54    C     0.87073   0.38863   0.94241   0.00000  Uiso   1.00
C55    C     0.72231   0.43102   0.84237   0.00000  Uiso   1.00
C56    C     0.26806   0.31354   0.95793   0.00000  Uiso   1.00
C57    C     0.30101   0.26518   0.92922   0.00000  Uiso   1.00
C58    C     0.40511   0.25567   0.81438   0.00000  Uiso   1.00
C59    C     0.56599   0.22110   0.64028   0.00000  Uiso   1.00
C60    C     0.28399   0.40123   0.92524   0.00000  Uiso   1.00
C61    C     0.29133   0.40463   0.08309   0.00000  Uiso   1.00
C62    C     0.35731   0.44022   0.14339   0.00000  Uiso   1.00
C63    C     0.35227   0.43694   0.28987   0.00000  Uiso   1.00
C64    C     0.13743   0.40064   0.92256   0.00000  Uiso   1.00
C65    C     0.07402   0.43287   0.84786   0.00000  Uiso   1.00
C66    C     0.93943   0.42624   0.85919   0.00000  Uiso   1.00
C67    C     0.33665   0.35108   0.87486   0.00000  Uiso   1.00
C68    C     0.44071   0.34164   0.76003   0.00000  Uiso   1.00
C69    C     0.47381   0.29327   0.73116   0.00000  Uiso   1.00
H70    H     0.10432   0.30290   0.14284   0.00000  Uiso   1.00
H71    H     0.16452   0.33471   0.37684   0.00000  Uiso   1.00
H72    H     0.88128   0.32736   0.08134   0.00000  Uiso   1.00
H73    H     0.24791   0.23614   0.99353   0.00000  Uiso   1.00
H74    H     0.26146   0.38653   0.59964   0.00000  Uiso   1.00
H75    H     0.66425   0.37103   0.97654   0.00000  Uiso   1.00
H76    H     0.43736   0.17868   0.79136   0.00000  Uiso   1.00
H77    H     0.33738   0.43045   0.86057   0.00000  Uiso   1.00
H78    H     0.41037   0.46926   0.07908   0.00000  Uiso   1.00
H79    H     0.12713   0.46191   0.78359   0.00000  Uiso   1.00
H80    H     0.49376   0.37069   0.69577   0.00000  Uiso   1.00
H81    H     0.46100   0.49574   0.35797   0.00000  Uiso   1.00
H82    H     0.86378   0.48024   0.73487   0.00000  Uiso   1.00
H83    H     0.63690   0.28789   0.54969   0.00000  Uiso   1.00
O84    O     0.40501   0.46437   0.62765   0.00000  Uiso   1.00
O85    O     0.62149   0.44403   0.81015   0.00000  Uiso   1.00
O86    O     0.63580   0.19167   0.56720   0.00000  Uiso   1.00
N87    N     0.29843   0.40690   0.51277   0.00000  Uiso   1.00
N88    N     0.74007   0.39242   0.93023   0.00000  Uiso   1.00
N89    N     0.46284   0.21258   0.75708   0.00000  Uiso   1.00
N90    N     0.40580   0.46567   0.38273   0.00000  Uiso   1.00
N91    N     0.84744   0.45118   0.80019   0.00000  Uiso   1.00
N92    N     0.57021   0.27135   0.62704   0.00000  Uiso   1.00
C93    C     0.15772   0.16788   0.57817   0.00000  Uiso   1.00
C94    C     0.22276   0.13291   0.66616   0.00000  Uiso   1.00
C95    C     0.21762   0.13624   0.81259   0.00000  Uiso   1.00
C96    C     0.28356   0.10066   0.87309   0.00000  Uiso   1.00
C97    C     0.37405   0.05207   0.02236   0.00000  Uiso   1.00
C98    C     0.06886   0.13690   0.50563   0.00000  Uiso   1.00
C99    C     0.93433   0.14359   0.51706   0.00000  Uiso   1.00
C100   C     0.87073   0.11137   0.44241   0.00000  Uiso   1.00
C101   C     0.72231   0.06898   0.34237   0.00000  Uiso   1.00
C102   C     0.26806   0.18646   0.45793   0.00000  Uiso   1.00
C103   C     0.30101   0.23482   0.42922   0.00000  Uiso   1.00
C104   C     0.40511   0.24433   0.31438   0.00000  Uiso   1.00
C105   C     0.56599   0.27890   0.14028   0.00000  Uiso   1.00
C106   C     0.28399   0.09877   0.42524   0.00000  Uiso   1.00
C107   C     0.29133   0.09537   0.58309   0.00000  Uiso   1.00
C108   C     0.35731   0.05978   0.64339   0.00000  Uiso   1.00
C109   C     0.35227   0.06306   0.78987   0.00000  Uiso   1.00
C110   C     0.13743   0.09936   0.42256   0.00000  Uiso   1.00
C111   C     0.07402   0.06713   0.34786   0.00000  Uiso   1.00
C112   C     0.93943   0.07376   0.35919   0.00000  Uiso   1.00
C113   C     0.33665   0.14892   0.37486   0.00000  Uiso   1.00
C114   C     0.44071   0.15836   0.26003   0.00000  Uiso   1.00
C115   C     0.47381   0.20673   0.23116   0.00000  Uiso   1.00
H116   H     0.10432   0.19710   0.64284   0.00000  Uiso   1.00
H117   H     0.16452   0.16529   0.87684   0.00000  Uiso   1.00
H118   H     0.88128   0.17264   0.58134   0.00000  Uiso   1.00
H119   H     0.24791   0.26386   0.49353   0.00000  Uiso   1.00
H120   H     0.26146   0.11347   0.09964   0.00000  Uiso   1.00
H121   H     0.66425   0.12897   0.47654   0.00000  Uiso   1.00
H122   H     0.43736   0.32132   0.29136   0.00000  Uiso   1.00
H123   H     0.33738   0.06955   0.36057   0.00000  Uiso   1.00
H124   H     0.41037   0.03074   0.57908   0.00000  Uiso   1.00
H125   H     0.12713   0.03809   0.28359   0.00000  Uiso   1.00
H126   H     0.49376   0.12931   0.19577   0.00000  Uiso   1.00
H127   H     0.46100   0.00426   0.85797   0.00000  Uiso   1.00
H128   H     0.86378   0.01976   0.23487   0.00000  Uiso   1.00
H129   H     0.63690   0.21211   0.04969   0.00000  Uiso   1.00
O130   O     0.40501   0.03563   0.12765   0.00000  Uiso   1.00
O131   O     0.62149   0.05597   0.31015   0.00000  Uiso   1.00
O132   O     0.63580   0.30833   0.06720   0.00000  Uiso   1.00
N133   N     0.29843   0.09310   0.01277   0.00000  Uiso   1.00
N134   N     0.74007   0.10758   0.43023   0.00000  Uiso   1.00
N135   N     0.46284   0.28742   0.25708   0.00000  Uiso   1.00
N136   N     0.40580   0.03433   0.88273   0.00000  Uiso   1.00
N137   N     0.84744   0.04882   0.30019   0.00000  Uiso   1.00
N138   N     0.57021   0.22865   0.12704   0.00000  Uiso   1.00
C139   C     0.84228   0.66788   0.92183   0.00000  Uiso   1.00
C140   C     0.77724   0.63291   0.83384   0.00000  Uiso   1.00
C141   C     0.78238   0.63624   0.68741   0.00000  Uiso   1.00
C142   C     0.71644   0.60066   0.62691   0.00000  Uiso   1.00
C143   C     0.62595   0.55207   0.47764   0.00000  Uiso   1.00
C144   C     0.93114   0.63690   0.99437   0.00000  Uiso   1.00
C145   C     0.06567   0.64359   0.98294   0.00000  Uiso   1.00
C146   C     0.12927   0.61137   0.05759   0.00000  Uiso   1.00
C147   C     0.27769   0.56898   0.15763   0.00000  Uiso   1.00
C148   C     0.73194   0.68646   0.04207   0.00000  Uiso   1.00
C149   C     0.69899   0.73482   0.07078   0.00000  Uiso   1.00
C150   C     0.59489   0.74433   0.18562   0.00000  Uiso   1.00
C151   C     0.43401   0.77890   0.35972   0.00000  Uiso   1.00
C152   C     0.71601   0.59877   0.07476   0.00000  Uiso   1.00
C153   C     0.70867   0.59537   0.91691   0.00000  Uiso   1.00
C154   C     0.64269   0.55978   0.85661   0.00000  Uiso   1.00
C155   C     0.64773   0.56306   0.71013   0.00000  Uiso   1.00
C156   C     0.86257   0.59936   0.07744   0.00000  Uiso   1.00
C157   C     0.92598   0.56713   0.15214   0.00000  Uiso   1.00
C158   C     0.06057   0.57376   0.14081   0.00000  Uiso   1.00
C159   C     0.66335   0.64892   0.12514   0.00000  Uiso   1.00
C160   C     0.55929   0.65836   0.23997   0.00000  Uiso   1.00
C161   C     0.52619   0.70673   0.26884   0.00000  Uiso   1.00
H162   H     0.89568   0.69710   0.85716   0.00000  Uiso   1.00
H163   H     0.83548   0.66529   0.62316   0.00000  Uiso   1.00
H164   H     0.11872   0.67264   0.91866   0.00000  Uiso   1.00
H165   H     0.75209   0.76386   0.00647   0.00000  Uiso   1.00
H166   H     0.73854   0.61347   0.40036   0.00000  Uiso   1.00
H167   H     0.33575   0.62897   0.02346   0.00000  Uiso   1.00
H168   H     0.56264   0.82132   0.20864   0.00000  Uiso   1.00
H169   H     0.66262   0.56955   0.13943   0.00000  Uiso   1.00
H170   H     0.58963   0.53074   0.92092   0.00000  Uiso   1.00
H171   H     0.87287   0.53809   0.21641   0.00000  Uiso   1.00
H172   H     0.50624   0.62931   0.30423   0.00000  Uiso   1.00
H173   H     0.53900   0.50426   0.64203   0.00000  Uiso   1.00
H174   H     0.13622   0.51976   0.26513   0.00000  Uiso   1.00
H175   H     0.36310   0.71211   0.45031   0.00000  Uiso   1.00
O176   O     0.59499   0.53563   0.37235   0.00000  Uiso   1.00
O177   O     0.37851   0.55597   0.18985   0.00000  Uiso   1.00
O178   O     0.36420   0.80833   0.43280   0.00000  Uiso   1.00
N179   N     0.70157   0.59310   0.48723   0.00000  Uiso   1.00
N180   N     0.25993   0.60758   0.06977   0.00000  Uiso   1.00
N181   N     0.53716   0.78742   0.24292   0.00000  Uiso   1.00
N182   N     0.59420   0.53433   0.61727   0.00000  Uiso   1.00
N183   N     0.15256   0.54882   0.19981   0.00000  Uiso   1.00
N184   N     0.42979   0.72865   0.37296   0.00000  Uiso   1.00
