data_job_00693
_audit_creation_date              2018-12-19
_audit_creation_method            'Materials Studio'
_symmetry_space_group_name_H-M    'P1'
_symmetry_Int_Tables_number       1
_symmetry_cell_setting            triclinic
loop_
_symmetry_equiv_pos_as_xyz
  x,y,z
_cell_length_a                    42.2789
_cell_length_b                    7.0173
_cell_length_c                    23.0295
_cell_angle_alpha                 90.0000
_cell_angle_beta                  90.0000
_cell_angle_gamma                 90.0000
loop_
_atom_site_label
_atom_site_type_symbol
_atom_site_fract_x
_atom_site_fract_y
_atom_site_fract_z
_atom_site_U_iso_or_equiv
_atom_site_adp_type
_atom_site_occupancy
C1     C     0.59341   0.04705   0.70541   0.00000  Uiso   1.00
C2     C     0.57999   0.18045   0.65930   0.00000  Uiso   1.00
C3     C     0.57119   0.12854   0.60345   0.00000  Uiso   1.00
C4     C     0.55944   0.27161   0.56783   0.00000  Uiso   1.00
C5     C     0.53906   0.45014   0.49324   0.00000  Uiso   1.00
C6     C     0.62501   0.13281   0.72373   0.00000  Uiso   1.00
C7     C     0.65406   0.04083   0.72205   0.00000  Uiso   1.00
C8     C     0.68020   0.14380   0.74068   0.00000  Uiso   1.00
C9     C     0.72970   0.24833   0.76616   0.00000  Uiso   1.00
C10    C     0.57164   0.06527   0.75792   0.00000  Uiso   1.00
C11    C     0.55583   0.91650   0.78500   0.00000  Uiso   1.00
C12    C     0.53704   0.96260   0.83242   0.00000  Uiso   1.00
C13    C     0.50369   0.96226   0.91098   0.00000  Uiso   1.00
C14    C     0.58819   0.39345   0.74149   0.00000  Uiso   1.00
C15    C     0.57716   0.36860   0.67890   0.00000  Uiso   1.00
C16    C     0.56542   0.51179   0.64336   0.00000  Uiso   1.00
C17    C     0.55660   0.46010   0.58746   0.00000  Uiso   1.00
C18    C     0.62218   0.32096   0.74333   0.00000  Uiso   1.00
C19    C     0.64828   0.42408   0.76196   0.00000  Uiso   1.00
C20    C     0.67736   0.33229   0.76031   0.00000  Uiso   1.00
C21    C     0.56881   0.25342   0.77752   0.00000  Uiso   1.00
C22    C     0.55005   0.29976   0.82491   0.00000  Uiso   1.00
C23    C     0.53421   0.15109   0.85205   0.00000  Uiso   1.00
H24    H     0.59562   0.90056   0.69016   0.00000  Uiso   1.00
H25    H     0.57339   0.98291   0.58830   0.00000  Uiso   1.00
H26    H     0.65624   0.89522   0.70689   0.00000  Uiso   1.00
H27    H     0.55803   0.77092   0.76982   0.00000  Uiso   1.00
H28    H     0.54752   0.15721   0.48400   0.00000  Uiso   1.00
H29    H     0.72220   0.97228   0.73408   0.00000  Uiso   1.00
H30    H     0.51510   0.71014   0.86679   0.00000  Uiso   1.00
H31    H     0.58598   0.53994   0.75674   0.00000  Uiso   1.00
H32    H     0.56323   0.65738   0.65853   0.00000  Uiso   1.00
H33    H     0.64608   0.56968   0.77713   0.00000  Uiso   1.00
H34    H     0.54786   0.44538   0.84006   0.00000  Uiso   1.00
H35    H     0.53927   0.70463   0.54100   0.00000  Uiso   1.00
H36    H     0.71396   0.51969   0.79109   0.00000  Uiso   1.00
H37    H     0.50685   0.25757   0.92379   0.00000  Uiso   1.00
O38    O     0.52861   0.49665   0.44669   0.00000  Uiso   1.00
O39    O     0.75779   0.25401   0.77480   0.00000  Uiso   1.00
O40    O     0.48607   0.91011   0.94890   0.00000  Uiso   1.00
N41    N     0.54869   0.26992   0.51090   0.00000  Uiso   1.00
N42    N     0.71202   0.09703   0.74470   0.00000  Uiso   1.00
N43    N     0.51839   0.85195   0.86878   0.00000  Uiso   1.00
N44    N     0.54425   0.56448   0.54157   0.00000  Uiso   1.00
N45    N     0.70758   0.39159   0.77537   0.00000  Uiso   1.00
N46    N     0.51396   0.14651   0.89945   0.00000  Uiso   1.00
C47    C     0.90659   0.95295   0.70541   0.00000  Uiso   1.00
C48    C     0.92001   0.81955   0.65930   0.00000  Uiso   1.00
C49    C     0.92881   0.87146   0.60345   0.00000  Uiso   1.00
C50    C     0.94056   0.72839   0.56783   0.00000  Uiso   1.00
C51    C     0.96094   0.54986   0.49324   0.00000  Uiso   1.00
C52    C     0.87499   0.86719   0.72373   0.00000  Uiso   1.00
C53    C     0.84594   0.95917   0.72205   0.00000  Uiso   1.00
C54    C     0.81980   0.85620   0.74068   0.00000  Uiso   1.00
C55    C     0.77030   0.75167   0.76616   0.00000  Uiso   1.00
C56    C     0.92836   0.93473   0.75792   0.00000  Uiso   1.00
C57    C     0.94417   0.08350   0.78500   0.00000  Uiso   1.00
C58    C     0.96296   0.03740   0.83242   0.00000  Uiso   1.00
C59    C     0.99631   0.03774   0.91098   0.00000  Uiso   1.00
C60    C     0.91181   0.60655   0.74149   0.00000  Uiso   1.00
C61    C     0.92284   0.63140   0.67890   0.00000  Uiso   1.00
C62    C     0.93458   0.48821   0.64336   0.00000  Uiso   1.00
C63    C     0.94340   0.53990   0.58746   0.00000  Uiso   1.00
C64    C     0.87782   0.67904   0.74333   0.00000  Uiso   1.00
C65    C     0.85172   0.57592   0.76196   0.00000  Uiso   1.00
C66    C     0.82264   0.66771   0.76031   0.00000  Uiso   1.00
C67    C     0.93119   0.74658   0.77752   0.00000  Uiso   1.00
C68    C     0.94995   0.70024   0.82491   0.00000  Uiso   1.00
C69    C     0.96579   0.84891   0.85205   0.00000  Uiso   1.00
H70    H     0.90438   0.09944   0.69016   0.00000  Uiso   1.00
H71    H     0.92661   0.01709   0.58830   0.00000  Uiso   1.00
H72    H     0.84376   0.10478   0.70689   0.00000  Uiso   1.00
H73    H     0.94197   0.22908   0.76982   0.00000  Uiso   1.00
H74    H     0.95248   0.84279   0.48400   0.00000  Uiso   1.00
H75    H     0.77780   0.02772   0.73408   0.00000  Uiso   1.00
H76    H     0.98490   0.28986   0.86679   0.00000  Uiso   1.00
H77    H     0.91402   0.46006   0.75674   0.00000  Uiso   1.00
H78    H     0.93677   0.34262   0.65853   0.00000  Uiso   1.00
H79    H     0.85392   0.43032   0.77713   0.00000  Uiso   1.00
H80    H     0.95214   0.55462   0.84006   0.00000  Uiso   1.00
H81    H     0.96073   0.29537   0.54100   0.00000  Uiso   1.00
H82    H     0.78604   0.48031   0.79109   0.00000  Uiso   1.00
H83    H     0.99315   0.74243   0.92379   0.00000  Uiso   1.00
O84    O     0.97139   0.50335   0.44669   0.00000  Uiso   1.00
O85    O     0.74221   0.74599   0.77480   0.00000  Uiso   1.00
O86    O     0.01393   0.08989   0.94890   0.00000  Uiso   1.00
N87    N     0.95131   0.73008   0.51090   0.00000  Uiso   1.00
N88    N     0.78798   0.90297   0.74470   0.00000  Uiso   1.00
N89    N     0.98161   0.14805   0.86878   0.00000  Uiso   1.00
N90    N     0.95575   0.43552   0.54157   0.00000  Uiso   1.00
N91    N     0.79242   0.60841   0.77537   0.00000  Uiso   1.00
N92    N     0.98604   0.85349   0.89945   0.00000  Uiso   1.00
C93    C     0.40659   0.04705   0.79459   0.00000  Uiso   1.00
C94    C     0.42001   0.18045   0.84070   0.00000  Uiso   1.00
C95    C     0.42881   0.12854   0.89655   0.00000  Uiso   1.00
C96    C     0.44056   0.27161   0.93217   0.00000  Uiso   1.00
C97    C     0.46094   0.45014   0.00676   0.00000  Uiso   1.00
C98    C     0.37499   0.13281   0.77627   0.00000  Uiso   1.00
C99    C     0.34594   0.04083   0.77795   0.00000  Uiso   1.00
C100   C     0.31980   0.14380   0.75932   0.00000  Uiso   1.00
C101   C     0.27030   0.24833   0.73384   0.00000  Uiso   1.00
C102   C     0.42836   0.06527   0.74208   0.00000  Uiso   1.00
C103   C     0.44417   0.91650   0.71500   0.00000  Uiso   1.00
C104   C     0.46296   0.96260   0.66758   0.00000  Uiso   1.00
C105   C     0.49631   0.96226   0.58902   0.00000  Uiso   1.00
C106   C     0.41181   0.39345   0.75851   0.00000  Uiso   1.00
C107   C     0.42284   0.36860   0.82110   0.00000  Uiso   1.00
C108   C     0.43458   0.51179   0.85664   0.00000  Uiso   1.00
C109   C     0.44340   0.46010   0.91254   0.00000  Uiso   1.00
C110   C     0.37782   0.32096   0.75667   0.00000  Uiso   1.00
C111   C     0.35172   0.42408   0.73804   0.00000  Uiso   1.00
C112   C     0.32264   0.33229   0.73969   0.00000  Uiso   1.00
C113   C     0.43119   0.25342   0.72248   0.00000  Uiso   1.00
C114   C     0.44995   0.29976   0.67509   0.00000  Uiso   1.00
C115   C     0.46579   0.15109   0.64795   0.00000  Uiso   1.00
H116   H     0.40438   0.90056   0.80984   0.00000  Uiso   1.00
H117   H     0.42661   0.98291   0.91170   0.00000  Uiso   1.00
H118   H     0.34376   0.89522   0.79311   0.00000  Uiso   1.00
H119   H     0.44197   0.77092   0.73018   0.00000  Uiso   1.00
H120   H     0.45248   0.15721   0.01600   0.00000  Uiso   1.00
H121   H     0.27780   0.97228   0.76592   0.00000  Uiso   1.00
H122   H     0.48490   0.71014   0.63321   0.00000  Uiso   1.00
H123   H     0.41402   0.53994   0.74326   0.00000  Uiso   1.00
H124   H     0.43677   0.65738   0.84147   0.00000  Uiso   1.00
H125   H     0.35392   0.56968   0.72287   0.00000  Uiso   1.00
H126   H     0.45214   0.44538   0.65994   0.00000  Uiso   1.00
H127   H     0.46073   0.70463   0.95900   0.00000  Uiso   1.00
H128   H     0.28604   0.51969   0.70891   0.00000  Uiso   1.00
H129   H     0.49315   0.25757   0.57621   0.00000  Uiso   1.00
O130   O     0.47139   0.49665   0.05331   0.00000  Uiso   1.00
O131   O     0.24221   0.25401   0.72520   0.00000  Uiso   1.00
O132   O     0.51393   0.91011   0.55110   0.00000  Uiso   1.00
N133   N     0.45131   0.26992   0.98910   0.00000  Uiso   1.00
N134   N     0.28798   0.09703   0.75530   0.00000  Uiso   1.00
N135   N     0.48161   0.85195   0.63122   0.00000  Uiso   1.00
N136   N     0.45575   0.56448   0.95843   0.00000  Uiso   1.00
N137   N     0.29242   0.39159   0.72463   0.00000  Uiso   1.00
N138   N     0.48604   0.14651   0.60055   0.00000  Uiso   1.00
C139   C     0.09341   0.95295   0.79459   0.00000  Uiso   1.00
C140   C     0.07999   0.81955   0.84070   0.00000  Uiso   1.00
C141   C     0.07119   0.87146   0.89655   0.00000  Uiso   1.00
C142   C     0.05944   0.72839   0.93217   0.00000  Uiso   1.00
C143   C     0.03906   0.54986   0.00676   0.00000  Uiso   1.00
C144   C     0.12501   0.86719   0.77627   0.00000  Uiso   1.00
C145   C     0.15406   0.95917   0.77795   0.00000  Uiso   1.00
C146   C     0.18020   0.85620   0.75932   0.00000  Uiso   1.00
C147   C     0.22970   0.75167   0.73384   0.00000  Uiso   1.00
C148   C     0.07164   0.93473   0.74208   0.00000  Uiso   1.00
C149   C     0.05583   0.08350   0.71500   0.00000  Uiso   1.00
C150   C     0.03704   0.03740   0.66758   0.00000  Uiso   1.00
C151   C     0.00369   0.03774   0.58902   0.00000  Uiso   1.00
C152   C     0.08819   0.60655   0.75851   0.00000  Uiso   1.00
C153   C     0.07716   0.63140   0.82110   0.00000  Uiso   1.00
C154   C     0.06542   0.48821   0.85664   0.00000  Uiso   1.00
C155   C     0.05660   0.53990   0.91254   0.00000  Uiso   1.00
C156   C     0.12218   0.67904   0.75667   0.00000  Uiso   1.00
C157   C     0.14828   0.57592   0.73804   0.00000  Uiso   1.00
C158   C     0.17736   0.66771   0.73969   0.00000  Uiso   1.00
C159   C     0.06881   0.74658   0.72248   0.00000  Uiso   1.00
C160   C     0.05005   0.70024   0.67509   0.00000  Uiso   1.00
C161   C     0.03421   0.84891   0.64795   0.00000  Uiso   1.00
H162   H     0.09562   0.09944   0.80984   0.00000  Uiso   1.00
H163   H     0.07339   0.01709   0.91170   0.00000  Uiso   1.00
H164   H     0.15624   0.10478   0.79311   0.00000  Uiso   1.00
H165   H     0.05803   0.22908   0.73018   0.00000  Uiso   1.00
H166   H     0.04752   0.84279   0.01600   0.00000  Uiso   1.00
H167   H     0.22220   0.02772   0.76592   0.00000  Uiso   1.00
H168   H     0.01510   0.28986   0.63321   0.00000  Uiso   1.00
H169   H     0.08598   0.46006   0.74326   0.00000  Uiso   1.00
H170   H     0.06323   0.34262   0.84147   0.00000  Uiso   1.00
H171   H     0.14608   0.43032   0.72287   0.00000  Uiso   1.00
H172   H     0.04786   0.55462   0.65994   0.00000  Uiso   1.00
H173   H     0.03927   0.29537   0.95900   0.00000  Uiso   1.00
H174   H     0.21396   0.48031   0.70891   0.00000  Uiso   1.00
H175   H     0.00685   0.74243   0.57621   0.00000  Uiso   1.00
O176   O     0.02861   0.50335   0.05331   0.00000  Uiso   1.00
O177   O     0.25779   0.74599   0.72520   0.00000  Uiso   1.00
O178   O     0.98607   0.08989   0.55110   0.00000  Uiso   1.00
N179   N     0.04869   0.73008   0.98910   0.00000  Uiso   1.00
N180   N     0.21202   0.90297   0.75530   0.00000  Uiso   1.00
N181   N     0.01839   0.14805   0.63122   0.00000  Uiso   1.00
N182   N     0.04425   0.43552   0.95843   0.00000  Uiso   1.00
N183   N     0.20758   0.60841   0.72463   0.00000  Uiso   1.00
N184   N     0.01396   0.85349   0.60055   0.00000  Uiso   1.00
C185   C     0.40659   0.95295   0.29459   0.00000  Uiso   1.00
C186   C     0.42001   0.81955   0.34070   0.00000  Uiso   1.00
C187   C     0.42881   0.87146   0.39655   0.00000  Uiso   1.00
C188   C     0.44056   0.72839   0.43217   0.00000  Uiso   1.00
C189   C     0.46094   0.54986   0.50676   0.00000  Uiso   1.00
C190   C     0.37499   0.86719   0.27627   0.00000  Uiso   1.00
C191   C     0.34594   0.95917   0.27795   0.00000  Uiso   1.00
C192   C     0.31980   0.85620   0.25932   0.00000  Uiso   1.00
C193   C     0.27030   0.75167   0.23384   0.00000  Uiso   1.00
C194   C     0.42836   0.93473   0.24208   0.00000  Uiso   1.00
C195   C     0.44417   0.08350   0.21500   0.00000  Uiso   1.00
C196   C     0.46296   0.03740   0.16758   0.00000  Uiso   1.00
C197   C     0.49631   0.03774   0.08902   0.00000  Uiso   1.00
C198   C     0.41181   0.60655   0.25851   0.00000  Uiso   1.00
C199   C     0.42284   0.63140   0.32110   0.00000  Uiso   1.00
C200   C     0.43458   0.48821   0.35664   0.00000  Uiso   1.00
C201   C     0.44340   0.53990   0.41254   0.00000  Uiso   1.00
C202   C     0.37782   0.67904   0.25667   0.00000  Uiso   1.00
C203   C     0.35172   0.57592   0.23804   0.00000  Uiso   1.00
C204   C     0.32264   0.66771   0.23969   0.00000  Uiso   1.00
C205   C     0.43119   0.74658   0.22248   0.00000  Uiso   1.00
C206   C     0.44995   0.70024   0.17509   0.00000  Uiso   1.00
C207   C     0.46579   0.84891   0.14795   0.00000  Uiso   1.00
H208   H     0.40438   0.09944   0.30984   0.00000  Uiso   1.00
H209   H     0.42661   0.01709   0.41170   0.00000  Uiso   1.00
H210   H     0.34376   0.10478   0.29311   0.00000  Uiso   1.00
H211   H     0.44197   0.22908   0.23018   0.00000  Uiso   1.00
H212   H     0.45248   0.84279   0.51600   0.00000  Uiso   1.00
H213   H     0.27780   0.02772   0.26592   0.00000  Uiso   1.00
H214   H     0.48490   0.28986   0.13321   0.00000  Uiso   1.00
H215   H     0.41402   0.46006   0.24326   0.00000  Uiso   1.00
H216   H     0.43677   0.34262   0.34147   0.00000  Uiso   1.00
H217   H     0.35392   0.43032   0.22287   0.00000  Uiso   1.00
H218   H     0.45214   0.55462   0.15994   0.00000  Uiso   1.00
H219   H     0.46073   0.29537   0.45900   0.00000  Uiso   1.00
H220   H     0.28604   0.48031   0.20891   0.00000  Uiso   1.00
H221   H     0.49315   0.74243   0.07621   0.00000  Uiso   1.00
O222   O     0.47139   0.50335   0.55331   0.00000  Uiso   1.00
O223   O     0.24221   0.74599   0.22520   0.00000  Uiso   1.00
O224   O     0.51393   0.08989   0.05110   0.00000  Uiso   1.00
N225   N     0.45131   0.73008   0.48910   0.00000  Uiso   1.00
N226   N     0.28798   0.90297   0.25530   0.00000  Uiso   1.00
N227   N     0.48161   0.14805   0.13122   0.00000  Uiso   1.00
N228   N     0.45575   0.43552   0.45843   0.00000  Uiso   1.00
N229   N     0.29242   0.60841   0.22463   0.00000  Uiso   1.00
N230   N     0.48604   0.85349   0.10055   0.00000  Uiso   1.00
C231   C     0.09341   0.04705   0.29459   0.00000  Uiso   1.00
C232   C     0.07999   0.18045   0.34070   0.00000  Uiso   1.00
C233   C     0.07119   0.12854   0.39655   0.00000  Uiso   1.00
C234   C     0.05944   0.27161   0.43217   0.00000  Uiso   1.00
C235   C     0.03906   0.45014   0.50676   0.00000  Uiso   1.00
C236   C     0.12501   0.13281   0.27627   0.00000  Uiso   1.00
C237   C     0.15406   0.04083   0.27795   0.00000  Uiso   1.00
C238   C     0.18020   0.14380   0.25932   0.00000  Uiso   1.00
C239   C     0.22970   0.24833   0.23384   0.00000  Uiso   1.00
C240   C     0.07164   0.06527   0.24208   0.00000  Uiso   1.00
C241   C     0.05583   0.91650   0.21500   0.00000  Uiso   1.00
C242   C     0.03704   0.96260   0.16758   0.00000  Uiso   1.00
C243   C     0.00369   0.96226   0.08902   0.00000  Uiso   1.00
C244   C     0.08819   0.39345   0.25851   0.00000  Uiso   1.00
C245   C     0.07716   0.36860   0.32110   0.00000  Uiso   1.00
C246   C     0.06542   0.51179   0.35664   0.00000  Uiso   1.00
C247   C     0.05660   0.46010   0.41254   0.00000  Uiso   1.00
C248   C     0.12218   0.32096   0.25667   0.00000  Uiso   1.00
C249   C     0.14828   0.42408   0.23804   0.00000  Uiso   1.00
C250   C     0.17736   0.33229   0.23969   0.00000  Uiso   1.00
C251   C     0.06881   0.25342   0.22248   0.00000  Uiso   1.00
C252   C     0.05005   0.29976   0.17509   0.00000  Uiso   1.00
C253   C     0.03421   0.15109   0.14795   0.00000  Uiso   1.00
H254   H     0.09562   0.90056   0.30984   0.00000  Uiso   1.00
H255   H     0.07339   0.98291   0.41170   0.00000  Uiso   1.00
H256   H     0.15624   0.89522   0.29311   0.00000  Uiso   1.00
H257   H     0.05803   0.77092   0.23018   0.00000  Uiso   1.00
H258   H     0.04752   0.15721   0.51600   0.00000  Uiso   1.00
H259   H     0.22220   0.97228   0.26592   0.00000  Uiso   1.00
H260   H     0.01510   0.71014   0.13321   0.00000  Uiso   1.00
H261   H     0.08598   0.53994   0.24326   0.00000  Uiso   1.00
H262   H     0.06323   0.65738   0.34147   0.00000  Uiso   1.00
H263   H     0.14608   0.56968   0.22287   0.00000  Uiso   1.00
H264   H     0.04786   0.44538   0.15994   0.00000  Uiso   1.00
H265   H     0.03927   0.70463   0.45900   0.00000  Uiso   1.00
H266   H     0.21396   0.51969   0.20891   0.00000  Uiso   1.00
H267   H     0.00685   0.25757   0.07621   0.00000  Uiso   1.00
O268   O     0.02861   0.49665   0.55331   0.00000  Uiso   1.00
O269   O     0.25779   0.25401   0.22520   0.00000  Uiso   1.00
O270   O     0.98607   0.91011   0.05110   0.00000  Uiso   1.00
N271   N     0.04869   0.26992   0.48910   0.00000  Uiso   1.00
N272   N     0.21202   0.09703   0.25530   0.00000  Uiso   1.00
N273   N     0.01839   0.85195   0.13122   0.00000  Uiso   1.00
N274   N     0.04425   0.56448   0.45843   0.00000  Uiso   1.00
N275   N     0.20758   0.39159   0.22463   0.00000  Uiso   1.00
N276   N     0.01396   0.14651   0.10055   0.00000  Uiso   1.00
C277   C     0.59341   0.95295   0.20541   0.00000  Uiso   1.00
C278   C     0.57999   0.81955   0.15930   0.00000  Uiso   1.00
C279   C     0.57119   0.87146   0.10345   0.00000  Uiso   1.00
C280   C     0.55944   0.72839   0.06783   0.00000  Uiso   1.00
C281   C     0.53906   0.54986   0.99324   0.00000  Uiso   1.00
C282   C     0.62501   0.86719   0.22373   0.00000  Uiso   1.00
C283   C     0.65406   0.95917   0.22205   0.00000  Uiso   1.00
C284   C     0.68020   0.85620   0.24068   0.00000  Uiso   1.00
C285   C     0.72970   0.75167   0.26616   0.00000  Uiso   1.00
C286   C     0.57164   0.93473   0.25792   0.00000  Uiso   1.00
C287   C     0.55583   0.08350   0.28500   0.00000  Uiso   1.00
C288   C     0.53704   0.03740   0.33242   0.00000  Uiso   1.00
C289   C     0.50369   0.03774   0.41098   0.00000  Uiso   1.00
C290   C     0.58819   0.60655   0.24149   0.00000  Uiso   1.00
C291   C     0.57716   0.63140   0.17890   0.00000  Uiso   1.00
C292   C     0.56542   0.48821   0.14336   0.00000  Uiso   1.00
C293   C     0.55660   0.53990   0.08746   0.00000  Uiso   1.00
C294   C     0.62218   0.67904   0.24333   0.00000  Uiso   1.00
C295   C     0.64828   0.57592   0.26196   0.00000  Uiso   1.00
C296   C     0.67736   0.66771   0.26031   0.00000  Uiso   1.00
C297   C     0.56881   0.74658   0.27752   0.00000  Uiso   1.00
C298   C     0.55005   0.70024   0.32491   0.00000  Uiso   1.00
C299   C     0.53421   0.84891   0.35205   0.00000  Uiso   1.00
H300   H     0.59562   0.09944   0.19016   0.00000  Uiso   1.00
H301   H     0.57339   0.01709   0.08830   0.00000  Uiso   1.00
H302   H     0.65624   0.10478   0.20689   0.00000  Uiso   1.00
H303   H     0.55803   0.22908   0.26982   0.00000  Uiso   1.00
H304   H     0.54752   0.84279   0.98400   0.00000  Uiso   1.00
H305   H     0.72220   0.02772   0.23408   0.00000  Uiso   1.00
H306   H     0.51510   0.28986   0.36679   0.00000  Uiso   1.00
H307   H     0.58598   0.46006   0.25674   0.00000  Uiso   1.00
H308   H     0.56323   0.34262   0.15853   0.00000  Uiso   1.00
H309   H     0.64608   0.43032   0.27713   0.00000  Uiso   1.00
H310   H     0.54786   0.55462   0.34006   0.00000  Uiso   1.00
H311   H     0.53927   0.29537   0.04100   0.00000  Uiso   1.00
H312   H     0.71396   0.48031   0.29109   0.00000  Uiso   1.00
H313   H     0.50685   0.74243   0.42379   0.00000  Uiso   1.00
O314   O     0.52861   0.50335   0.94669   0.00000  Uiso   1.00
O315   O     0.75779   0.74599   0.27480   0.00000  Uiso   1.00
O316   O     0.48607   0.08989   0.44890   0.00000  Uiso   1.00
N317   N     0.54869   0.73008   0.01090   0.00000  Uiso   1.00
N318   N     0.71202   0.90297   0.24470   0.00000  Uiso   1.00
N319   N     0.51839   0.14805   0.36878   0.00000  Uiso   1.00
N320   N     0.54425   0.43552   0.04157   0.00000  Uiso   1.00
N321   N     0.70758   0.60841   0.27537   0.00000  Uiso   1.00
N322   N     0.51396   0.85349   0.39945   0.00000  Uiso   1.00
C323   C     0.90659   0.04705   0.20541   0.00000  Uiso   1.00
C324   C     0.92001   0.18045   0.15930   0.00000  Uiso   1.00
C325   C     0.92881   0.12854   0.10345   0.00000  Uiso   1.00
C326   C     0.94056   0.27161   0.06783   0.00000  Uiso   1.00
C327   C     0.96094   0.45014   0.99324   0.00000  Uiso   1.00
C328   C     0.87499   0.13281   0.22373   0.00000  Uiso   1.00
C329   C     0.84594   0.04083   0.22205   0.00000  Uiso   1.00
C330   C     0.81980   0.14380   0.24068   0.00000  Uiso   1.00
C331   C     0.77030   0.24833   0.26616   0.00000  Uiso   1.00
C332   C     0.92836   0.06527   0.25792   0.00000  Uiso   1.00
C333   C     0.94417   0.91650   0.28500   0.00000  Uiso   1.00
C334   C     0.96296   0.96260   0.33242   0.00000  Uiso   1.00
C335   C     0.99631   0.96226   0.41098   0.00000  Uiso   1.00
C336   C     0.91181   0.39345   0.24149   0.00000  Uiso   1.00
C337   C     0.92284   0.36860   0.17890   0.00000  Uiso   1.00
C338   C     0.93458   0.51179   0.14336   0.00000  Uiso   1.00
C339   C     0.94340   0.46010   0.08746   0.00000  Uiso   1.00
C340   C     0.87782   0.32096   0.24333   0.00000  Uiso   1.00
C341   C     0.85172   0.42408   0.26196   0.00000  Uiso   1.00
C342   C     0.82264   0.33229   0.26031   0.00000  Uiso   1.00
C343   C     0.93119   0.25342   0.27752   0.00000  Uiso   1.00
C344   C     0.94995   0.29976   0.32491   0.00000  Uiso   1.00
C345   C     0.96579   0.15109   0.35205   0.00000  Uiso   1.00
H346   H     0.90438   0.90056   0.19016   0.00000  Uiso   1.00
H347   H     0.92661   0.98291   0.08830   0.00000  Uiso   1.00
H348   H     0.84376   0.89522   0.20689   0.00000  Uiso   1.00
H349   H     0.94197   0.77092   0.26982   0.00000  Uiso   1.00
H350   H     0.95248   0.15721   0.98400   0.00000  Uiso   1.00
H351   H     0.77780   0.97228   0.23408   0.00000  Uiso   1.00
H352   H     0.98490   0.71014   0.36679   0.00000  Uiso   1.00
H353   H     0.91402   0.53994   0.25674   0.00000  Uiso   1.00
H354   H     0.93677   0.65738   0.15853   0.00000  Uiso   1.00
H355   H     0.85392   0.56968   0.27713   0.00000  Uiso   1.00
H356   H     0.95214   0.44538   0.34006   0.00000  Uiso   1.00
H357   H     0.96073   0.70463   0.04100   0.00000  Uiso   1.00
H358   H     0.78604   0.51969   0.29109   0.00000  Uiso   1.00
H359   H     0.99315   0.25757   0.42379   0.00000  Uiso   1.00
O360   O     0.97139   0.49665   0.94669   0.00000  Uiso   1.00
O361   O     0.74221   0.25401   0.27480   0.00000  Uiso   1.00
O362   O     0.01393   0.91011   0.44890   0.00000  Uiso   1.00
N363   N     0.95131   0.26992   0.01090   0.00000  Uiso   1.00
N364   N     0.78798   0.09703   0.24470   0.00000  Uiso   1.00
N365   N     0.98161   0.85195   0.36878   0.00000  Uiso   1.00
N366   N     0.95575   0.56448   0.04157   0.00000  Uiso   1.00
N367   N     0.79242   0.39159   0.27537   0.00000  Uiso   1.00
N368   N     0.98604   0.14651   0.39945   0.00000  Uiso   1.00
