data_job_06815
_audit_creation_date              2018-12-19
_audit_creation_method            'Materials Studio'
_symmetry_space_group_name_H-M    'P1'
_symmetry_Int_Tables_number       1
_symmetry_cell_setting            triclinic
loop_
_symmetry_equiv_pos_as_xyz
  x,y,z
_cell_length_a                    22.6079
_cell_length_b                    22.9173
_cell_length_c                    23.7454
_cell_angle_alpha                 113.3575
_cell_angle_beta                  115.4900
_cell_angle_gamma                 60.4462
loop_
_atom_site_label
_atom_site_type_symbol
_atom_site_fract_x
_atom_site_fract_y
_atom_site_fract_z
_atom_site_U_iso_or_equiv
_atom_site_adp_type
_atom_site_occupancy
C1     C     0.30394   0.97224   0.26150   0.00000  Uiso   1.00
C2     C     0.31072   0.93292   0.19415   0.00000  Uiso   1.00
C3     C     0.25461   0.93246   0.13820   0.00000  Uiso   1.00
C4     C     0.27191   0.89322   0.08137   0.00000  Uiso   1.00
C5     C     0.27166   0.83782   0.97692   0.00000  Uiso   1.00
C6     C     0.34502   0.91856   0.30164   0.00000  Uiso   1.00
C7     C     0.31774   0.90604   0.33608   0.00000  Uiso   1.00
C8     C     0.36391   0.85473   0.36975   0.00000  Uiso   1.00
C9     C     0.41692   0.77707   0.43221   0.00000  Uiso   1.00
C10    C     0.34552   0.01806   0.28773   0.00000  Uiso   1.00
C11    C     0.31866   0.08921   0.31049   0.00000  Uiso   1.00
C12    C     0.36526   0.12167   0.33246   0.00000  Uiso   1.00
C13    C     0.41904   0.19851   0.37333   0.00000  Uiso   1.00
C14    C     0.43445   0.90339   0.26007   0.00000  Uiso   1.00
C15    C     0.38161   0.89552   0.19337   0.00000  Uiso   1.00
C16    C     0.39900   0.85628   0.13661   0.00000  Uiso   1.00
C17    C     0.34292   0.85576   0.08059   0.00000  Uiso   1.00
C18    C     0.41590   0.88116   0.30087   0.00000  Uiso   1.00
C19    C     0.46213   0.82986   0.33449   0.00000  Uiso   1.00
C20    C     0.43493   0.81726   0.36897   0.00000  Uiso   1.00
C21    C     0.41640   0.98067   0.28695   0.00000  Uiso   1.00
C22    C     0.46305   0.01302   0.30890   0.00000  Uiso   1.00
C23    C     0.43628   0.08420   0.33168   0.00000  Uiso   1.00
H24    H     0.24876   0.00136   0.26211   0.00000  Uiso   1.00
H25    H     0.19976   0.96140   0.13883   0.00000  Uiso   1.00
H26    H     0.26288   0.93499   0.33668   0.00000  Uiso   1.00
H27    H     0.26381   0.11813   0.31109   0.00000  Uiso   1.00
H28    H     0.17670   0.90059   0.00180   0.00000  Uiso   1.00
H29    H     0.30980   0.84492   0.41900   0.00000  Uiso   1.00
H30    H     0.31175   0.23110   0.36504   0.00000  Uiso   1.00
H31    H     0.48964   0.87427   0.25946   0.00000  Uiso   1.00
H32    H     0.45386   0.82734   0.13603   0.00000  Uiso   1.00
H33    H     0.51698   0.80093   0.33388   0.00000  Uiso   1.00
H34    H     0.51791   0.98407   0.30829   0.00000  Uiso   1.00
H35    H     0.38294   0.79178   0.99953   0.00000  Uiso   1.00
H36    H     0.51604   0.73611   0.41673   0.00000  Uiso   1.00
H37    H     0.51799   0.12229   0.36276   0.00000  Uiso   1.00
O38    O     0.25194   0.81758   0.91951   0.00000  Uiso   1.00
O39    O     0.42656   0.74456   0.46688   0.00000  Uiso   1.00
O40    O     0.42912   0.25122   0.39607   0.00000  Uiso   1.00
N41    N     0.23015   0.88143   0.01820   0.00000  Uiso   1.00
N42    N     0.35459   0.82938   0.40825   0.00000  Uiso   1.00
N43    N     0.35641   0.19042   0.35782   0.00000  Uiso   1.00
N44    N     0.34113   0.82288   0.01698   0.00000  Uiso   1.00
N45    N     0.46556   0.77083   0.40703   0.00000  Uiso   1.00
N46    N     0.46739   0.13187   0.35659   0.00000  Uiso   1.00
C47    C     0.03167   0.80621   0.70398   0.00000  Uiso   1.00
C48    C     0.99239   0.75856   0.66006   0.00000  Uiso   1.00
C49    C     0.97290   0.72290   0.67995   0.00000  Uiso   1.00
C50    C     0.93730   0.68195   0.63233   0.00000  Uiso   1.00
C51    C     0.87870   0.60870   0.57404   0.00000  Uiso   1.00
C52    C     0.09820   0.77809   0.68382   0.00000  Uiso   1.00
C53    C     0.16768   0.75885   0.72370   0.00000  Uiso   1.00
C54    C     0.22115   0.73435   0.69608   0.00000  Uiso   1.00
C55    C     0.32682   0.69146   0.67470   0.00000  Uiso   1.00
C56    C     0.98485   0.87561   0.68584   0.00000  Uiso   1.00
C57    C     0.95904   0.93837   0.72742   0.00000  Uiso   1.00
C58    C     0.91709   0.99598   0.70150   0.00000  Uiso   1.00
C59    C     0.84677   0.10451   0.68326   0.00000  Uiso   1.00
C60    C     0.00309   0.79692   0.58401   0.00000  Uiso   1.00
C61    C     0.97687   0.75351   0.59490   0.00000  Uiso   1.00
C62    C     0.94128   0.71261   0.54723   0.00000  Uiso   1.00
C63    C     0.92175   0.67689   0.56705   0.00000  Uiso   1.00
C64    C     0.08268   0.77304   0.61866   0.00000  Uiso   1.00
C65    C     0.13606   0.74856   0.59098   0.00000  Uiso   1.00
C66    C     0.20560   0.72929   0.63080   0.00000  Uiso   1.00
C67    C     0.96933   0.87056   0.62068   0.00000  Uiso   1.00
C68    C     0.92742   0.92808   0.59470   0.00000  Uiso   1.00
C69    C     0.90154   0.99092   0.63623   0.00000  Uiso   1.00
H70    H     0.04376   0.81014   0.75471   0.00000  Uiso   1.00
H71    H     0.98493   0.72681   0.73039   0.00000  Uiso   1.00
H72    H     0.17968   0.76277   0.77412   0.00000  Uiso   1.00
H73    H     0.97106   0.94226   0.77784   0.00000  Uiso   1.00
H74    H     0.91288   0.63218   0.67468   0.00000  Uiso   1.00
H75    H     0.32352   0.70802   0.76692   0.00000  Uiso   1.00
H76    H     0.88361   0.08651   0.77476   0.00000  Uiso   1.00
H77    H     0.99101   0.79298   0.53328   0.00000  Uiso   1.00
H78    H     0.92928   0.70871   0.49681   0.00000  Uiso   1.00
H79    H     0.12403   0.74467   0.54055   0.00000  Uiso   1.00
H80    H     0.91541   0.92416   0.54427   0.00000  Uiso   1.00
H81    H     0.86772   0.61748   0.48511   0.00000  Uiso   1.00
H82    H     0.27835   0.69332   0.57734   0.00000  Uiso   1.00
H83    H     0.83845   0.07181   0.58518   0.00000  Uiso   1.00
O84    O     0.85067   0.56968   0.55990   0.00000  Uiso   1.00
O85    O     0.38940   0.66919   0.68091   0.00000  Uiso   1.00
O86    O     0.81225   0.16576   0.69120   0.00000  Uiso   1.00
N87    N     0.91071   0.64030   0.63507   0.00000  Uiso   1.00
N88    N     0.29463   0.71119   0.72130   0.00000  Uiso   1.00
N89    N     0.88338   0.06505   0.72864   0.00000  Uiso   1.00
N90    N     0.88641   0.63239   0.53306   0.00000  Uiso   1.00
N91    N     0.27033   0.70328   0.61929   0.00000  Uiso   1.00
N92    N     0.85907   0.05715   0.62663   0.00000  Uiso   1.00
C93    C     0.76645   0.84301   0.96004   0.00000  Uiso   1.00
C94    C     0.82216   0.79986   0.00872   0.00000  Uiso   1.00
C95    C     0.89333   0.79051   0.03458   0.00000  Uiso   1.00
C96    C     0.93568   0.74913   0.07839   0.00000  Uiso   1.00
C97    C     0.02643   0.68680   0.15133   0.00000  Uiso   1.00
C98    C     0.73512   0.79463   0.90295   0.00000  Uiso   1.00
C99    C     0.73310   0.78089   0.83987   0.00000  Uiso   1.00
C100   C     0.70216   0.73511   0.79463   0.00000  Uiso   1.00
C101   C     0.65773   0.66469   0.70335   0.00000  Uiso   1.00
C102   C     0.70687   0.89557   0.99024   0.00000  Uiso   1.00
C103   C     0.68109   0.96670   0.00054   0.00000  Uiso   1.00
C104   C     0.62636   0.00589   0.02878   0.00000  Uiso   1.00
C105   C     0.53808   0.09219   0.07303   0.00000  Uiso   1.00
C106   C     0.71508   0.78614   0.99186   0.00000  Uiso   1.00
C107   C     0.79426   0.76897   0.02600   0.00000  Uiso   1.00
C108   C     0.83650   0.72759   0.06979   0.00000  Uiso   1.00
C109   C     0.90773   0.71818   0.09571   0.00000  Uiso   1.00
C110   C     0.70722   0.76374   0.92023   0.00000  Uiso   1.00
C111   C     0.67627   0.71797   0.87507   0.00000  Uiso   1.00
C112   C     0.67421   0.70416   0.81194   0.00000  Uiso   1.00
C113   C     0.67897   0.86468   0.00752   0.00000  Uiso   1.00
C114   C     0.62426   0.90377   0.03575   0.00000  Uiso   1.00
C115   C     0.59841   0.97494   0.04609   0.00000  Uiso   1.00
H116   H     0.78817   0.86706   0.94658   0.00000  Uiso   1.00
H117   H     0.91491   0.81443   0.02119   0.00000  Uiso   1.00
H118   H     0.75469   0.80481   0.82651   0.00000  Uiso   1.00
H119   H     0.70269   0.99058   0.98716   0.00000  Uiso   1.00
H120   H     0.04312   0.74242   0.11152   0.00000  Uiso   1.00
H121   H     0.70527   0.72217   0.70101   0.00000  Uiso   1.00
H122   H     0.59562   0.11391   0.03977   0.00000  Uiso   1.00
H123   H     0.69336   0.76209   0.00531   0.00000  Uiso   1.00
H124   H     0.81490   0.70369   0.08315   0.00000  Uiso   1.00
H125   H     0.65468   0.69407   0.88846   0.00000  Uiso   1.00
H126   H     0.60269   0.87985   0.04912   0.00000  Uiso   1.00
H127   H     0.96195   0.65254   0.16180   0.00000  Uiso   1.00
H128   H     0.62409   0.63229   0.75130   0.00000  Uiso   1.00
H129   H     0.51446   0.02403   0.09006   0.00000  Uiso   1.00
O130   O     0.08420   0.66094   0.18679   0.00000  Uiso   1.00
O131   O     0.64094   0.63438   0.64822   0.00000  Uiso   1.00
O132   O     0.49710   0.14833   0.09267   0.00000  Uiso   1.00
N133   N     0.00733   0.72930   0.11268   0.00000  Uiso   1.00
N134   N     0.69147   0.71035   0.72888   0.00000  Uiso   1.00
N135   N     0.58895   0.07659   0.04558   0.00000  Uiso   1.00
N136   N     0.96366   0.68093   0.13974   0.00000  Uiso   1.00
N137   N     0.64779   0.66199   0.75594   0.00000  Uiso   1.00
N138   N     0.54528   0.02823   0.07264   0.00000  Uiso   1.00
C139   C     0.26902   0.34166   0.02957   0.00000  Uiso   1.00
C140   C     0.30575   0.30023   0.97698   0.00000  Uiso   1.00
C141   C     0.37810   0.26120   0.98641   0.00000  Uiso   1.00
C142   C     0.40124   0.22710   0.93207   0.00000  Uiso   1.00
C143   C     0.46550   0.16200   0.85975   0.00000  Uiso   1.00
C144   C     0.21199   0.31522   0.01278   0.00000  Uiso   1.00
C145   C     0.20550   0.28881   0.05233   0.00000  Uiso   1.00
C146   C     0.14971   0.26733   0.02813   0.00000  Uiso   1.00
C147   C     0.06838   0.22556   0.01143   0.00000  Uiso   1.00
C148   C     0.22933   0.41558   0.02134   0.00000  Uiso   1.00
C149   C     0.23740   0.47356   0.06808   0.00000  Uiso   1.00
C150   C     0.19620   0.53658   0.05108   0.00000  Uiso   1.00
C151   C     0.14178   0.65063   0.04766   0.00000  Uiso   1.00
C152   C     0.18147   0.35049   0.91630   0.00000  Uiso   1.00
C153   C     0.25819   0.30502   0.91545   0.00000  Uiso   1.00
C154   C     0.28123   0.27097   0.86108   0.00000  Uiso   1.00
C155   C     0.35361   0.23190   0.87043   0.00000  Uiso   1.00
C156   C     0.16444   0.32002   0.95126   0.00000  Uiso   1.00
C157   C     0.10864   0.29858   0.92700   0.00000  Uiso   1.00
C158   C     0.10207   0.27214   0.96649   0.00000  Uiso   1.00
C159   C     0.18177   0.42038   0.95981   0.00000  Uiso   1.00
C160   C     0.14054   0.48332   0.94275   0.00000  Uiso   1.00
C161   C     0.14855   0.54138   0.98945   0.00000  Uiso   1.00
H162   H     0.30604   0.33793   0.07748   0.00000  Uiso   1.00
H163   H     0.41489   0.25750   0.03403   0.00000  Uiso   1.00
H164   H     0.24231   0.28511   0.09994   0.00000  Uiso   1.00
H165   H     0.27421   0.46983   0.11568   0.00000  Uiso   1.00
H166   H     0.51458   0.17043   0.95872   0.00000  Uiso   1.00
H167   H     0.15068   0.22867   0.09771   0.00000  Uiso   1.00
H168   H     0.21794   0.61818   0.13091   0.00000  Uiso   1.00
H169   H     0.14444   0.35422   0.86840   0.00000  Uiso   1.00
H170   H     0.24442   0.27469   0.81348   0.00000  Uiso   1.00
H171   H     0.07184   0.30230   0.87939   0.00000  Uiso   1.00
H172   H     0.10374   0.48701   0.89513   0.00000  Uiso   1.00
H173   H     0.37622   0.18437   0.77971   0.00000  Uiso   1.00
H174   H     0.01232   0.24262   0.91870   0.00000  Uiso   1.00
H175   H     0.07959   0.63213   0.95190   0.00000  Uiso   1.00
O176   O     0.51408   0.12477   0.83686   0.00000  Uiso   1.00
O177   O     0.03666   0.20119   0.01921   0.00000  Uiso   1.00
O178   O     0.12491   0.71222   0.06276   0.00000  Uiso   1.00
N179   N     0.46830   0.18464   0.92413   0.00000  Uiso   1.00
N180   N     0.12808   0.23908   0.05407   0.00000  Uiso   1.00
N181   N     0.19095   0.60324   0.08512   0.00000  Uiso   1.00
N182   N     0.39385   0.19214   0.82781   0.00000  Uiso   1.00
N183   N     0.05364   0.24658   0.95775   0.00000  Uiso   1.00
N184   N     0.11651   0.61074   0.98879   0.00000  Uiso   1.00
C185   C     0.74230   0.33544   0.42251   0.00000  Uiso   1.00
C186   C     0.77203   0.26379   0.43381   0.00000  Uiso   1.00
C187   C     0.73215   0.23054   0.42898   0.00000  Uiso   1.00
C188   C     0.76934   0.16515   0.44117   0.00000  Uiso   1.00
C189   C     0.80417   0.05860   0.45618   0.00000  Uiso   1.00
C190   C     0.77092   0.32628   0.37065   0.00000  Uiso   1.00
C191   C     0.73012   0.34557   0.31273   0.00000  Uiso   1.00
C192   C     0.76638   0.33280   0.27176   0.00000  Uiso   1.00
C193   C     0.79950   0.32329   0.18875   0.00000  Uiso   1.00
C194   C     0.77780   0.37720   0.48378   0.00000  Uiso   1.00
C195   C     0.74279   0.43932   0.52096   0.00000  Uiso   1.00
C196   C     0.78484   0.46942   0.57522   0.00000  Uiso   1.00
C197   C     0.82865   0.53898   0.66785   0.00000  Uiso   1.00
C198   C     0.87924   0.27846   0.45275   0.00000  Uiso   1.00
C199   C     0.84641   0.23284   0.45023   0.00000  Uiso   1.00
C200   C     0.88366   0.16749   0.46243   0.00000  Uiso   1.00
C201   C     0.84385   0.13415   0.45762   0.00000  Uiso   1.00
C202   C     0.84530   0.29533   0.38708   0.00000  Uiso   1.00
C203   C     0.88163   0.28252   0.34619   0.00000  Uiso   1.00
C204   C     0.84089   0.30179   0.28821   0.00000  Uiso   1.00
C205   C     0.85219   0.34625   0.50020   0.00000  Uiso   1.00
C206   C     0.89430   0.37626   0.55442   0.00000  Uiso   1.00
C207   C     0.85936   0.43841   0.59168   0.00000  Uiso   1.00
H208   H     0.68440   0.35954   0.40972   0.00000  Uiso   1.00
H209   H     0.67459   0.25451   0.41626   0.00000  Uiso   1.00
H210   H     0.67256   0.36953   0.30003   0.00000  Uiso   1.00
H211   H     0.68523   0.46325   0.50823   0.00000  Uiso   1.00
H212   H     0.69652   0.12440   0.43073   0.00000  Uiso   1.00
H213   H     0.69224   0.36695   0.18568   0.00000  Uiso   1.00
H214   H     0.71895   0.56459   0.62470   0.00000  Uiso   1.00
H215   H     0.93716   0.25436   0.46553   0.00000  Uiso   1.00
H216   H     0.94122   0.14355   0.47514   0.00000  Uiso   1.00
H217   H     0.93919   0.25857   0.35891   0.00000  Uiso   1.00
H218   H     0.95186   0.35230   0.56711   0.00000  Uiso   1.00
H219   H     0.91293   0.03434   0.47852   0.00000  Uiso   1.00
H220   H     0.90865   0.27690   0.23346   0.00000  Uiso   1.00
H221   H     0.93536   0.47454   0.67249   0.00000  Uiso   1.00
O222   O     0.80284   0.00837   0.45992   0.00000  Uiso   1.00
O223   O     0.79722   0.32660   0.13842   0.00000  Uiso   1.00
O224   O     0.83227   0.58590   0.71441   0.00000  Uiso   1.00
N225   N     0.74690   0.11842   0.44067   0.00000  Uiso   1.00
N226   N     0.74289   0.34518   0.21156   0.00000  Uiso   1.00
N227   N     0.76787   0.52997   0.62200   0.00000  Uiso   1.00
N228   N     0.86334   0.06996   0.46639   0.00000  Uiso   1.00
N229   N     0.85934   0.29672   0.23727   0.00000  Uiso   1.00
N230   N     0.88431   0.48151   0.64771   0.00000  Uiso   1.00
C231   C     0.45428   0.34852   0.60633   0.00000  Uiso   1.00
C232   C     0.38426   0.33861   0.57000   0.00000  Uiso   1.00
C233   C     0.34648   0.34075   0.50629   0.00000  Uiso   1.00
C234   C     0.28359   0.33043   0.48193   0.00000  Uiso   1.00
C235   C     0.17857   0.31683   0.41973   0.00000  Uiso   1.00
C236   C     0.50675   0.28406   0.63203   0.00000  Uiso   1.00
C237   C     0.57197   0.24033   0.62047   0.00000  Uiso   1.00
C238   C     0.61220   0.18409   0.64833   0.00000  Uiso   1.00
C239   C     0.69737   0.08582   0.68246   0.00000  Uiso   1.00
C240   C     0.44131   0.40773   0.66493   0.00000  Uiso   1.00
C241   C     0.45152   0.46799   0.68106   0.00000  Uiso   1.00
C242   C     0.43667   0.51587   0.73663   0.00000  Uiso   1.00
C243   C     0.42023   0.60963   0.82186   0.00000  Uiso   1.00
C244   C     0.40976   0.32640   0.67635   0.00000  Uiso   1.00
C245   C     0.36008   0.32659   0.60804   0.00000  Uiso   1.00
C246   C     0.29723   0.31627   0.58377   0.00000  Uiso   1.00
C247   C     0.25936   0.31839   0.52003   0.00000  Uiso   1.00
C248   C     0.48257   0.27204   0.67006   0.00000  Uiso   1.00
C249   C     0.52272   0.21585   0.69794   0.00000  Uiso   1.00
C250   C     0.58797   0.17205   0.68643   0.00000  Uiso   1.00
C251   C     0.41713   0.39571   0.70297   0.00000  Uiso   1.00
C252   C     0.40226   0.44351   0.75853   0.00000  Uiso   1.00
C253   C     0.41244   0.50383   0.77473   0.00000  Uiso   1.00
H254   H     0.47311   0.35788   0.57672   0.00000  Uiso   1.00
H255   H     0.36522   0.35005   0.47687   0.00000  Uiso   1.00
H256   H     0.59067   0.24965   0.59104   0.00000  Uiso   1.00
H257   H     0.47024   0.47727   0.65162   0.00000  Uiso   1.00
H258   H     0.23495   0.33604   0.38294   0.00000  Uiso   1.00
H259   H     0.71035   0.12436   0.62369   0.00000  Uiso   1.00
H260   H     0.45639   0.60435   0.75143   0.00000  Uiso   1.00
H261   H     0.39093   0.31704   0.70597   0.00000  Uiso   1.00
H262   H     0.27853   0.30697   0.61321   0.00000  Uiso   1.00
H263   H     0.50399   0.20657   0.72738   0.00000  Uiso   1.00
H264   H     0.38355   0.43419   0.78795   0.00000  Uiso   1.00
H265   H     0.16459   0.30107   0.49360   0.00000  Uiso   1.00
H266   H     0.63999   0.08939   0.73435   0.00000  Uiso   1.00
H267   H     0.38603   0.56938   0.86208   0.00000  Uiso   1.00
O268   O     0.12733   0.31264   0.37492   0.00000  Uiso   1.00
O269   O     0.75103   0.03494   0.69078   0.00000  Uiso   1.00
O270   O     0.41784   0.66467   0.85836   0.00000  Uiso   1.00
N271   N     0.23381   0.32920   0.42172   0.00000  Uiso   1.00
N272   N     0.67828   0.13129   0.64679   0.00000  Uiso   1.00
N273   N     0.44086   0.58003   0.76623   0.00000  Uiso   1.00
N274   N     0.19595   0.31039   0.48126   0.00000  Uiso   1.00
N275   N     0.64042   0.11247   0.70634   0.00000  Uiso   1.00
N276   N     0.40300   0.56121   0.82577   0.00000  Uiso   1.00
C277   C     0.72851   0.87786   0.62880   0.00000  Uiso   1.00
C278   C     0.71331   0.92061   0.69282   0.00000  Uiso   1.00
C279   C     0.76411   0.92644   0.75202   0.00000  Uiso   1.00
C280   C     0.73940   0.96809   0.80491   0.00000  Uiso   1.00
C281   C     0.72689   0.02925   0.90526   0.00000  Uiso   1.00
C282   C     0.68997   0.92778   0.58508   0.00000  Uiso   1.00
C283   C     0.72113   0.93963   0.55371   0.00000  Uiso   1.00
C284   C     0.67677   0.98731   0.51590   0.00000  Uiso   1.00
C285   C     0.62801   0.05956   0.44895   0.00000  Uiso   1.00
C286   C     0.69027   0.82878   0.60070   0.00000  Uiso   1.00
C287   C     0.72169   0.75738   0.58243   0.00000  Uiso   1.00
C288   C     0.67757   0.72170   0.55776   0.00000  Uiso   1.00
C289   C     0.62929   0.64023   0.51505   0.00000  Uiso   1.00
C290   C     0.59430   0.94147   0.61744   0.00000  Uiso   1.00
C291   C     0.64042   0.95517   0.68664   0.00000  Uiso   1.00
C292   C     0.61563   0.99682   0.73946   0.00000  Uiso   1.00
C293   C     0.66637   0.00270   0.79873   0.00000  Uiso   1.00
C294   C     0.61708   0.96234   0.57891   0.00000  Uiso   1.00
C295   C     0.57265   0.01001   0.54114   0.00000  Uiso   1.00
C296   C     0.60374   0.02192   0.50971   0.00000  Uiso   1.00
C297   C     0.61738   0.86333   0.59453   0.00000  Uiso   1.00
C298   C     0.57321   0.82776   0.56987   0.00000  Uiso   1.00
C299   C     0.60455   0.75632   0.55157   0.00000  Uiso   1.00
H300   H     0.78526   0.85096   0.63360   0.00000  Uiso   1.00
H301   H     0.82051   0.89970   0.75678   0.00000  Uiso   1.00
H302   H     0.77754   0.91288   0.55849   0.00000  Uiso   1.00
H303   H     0.77810   0.73066   0.58721   0.00000  Uiso   1.00
H304   H     0.82745   0.96898   0.89063   0.00000  Uiso   1.00
H305   H     0.73684   0.99676   0.47250   0.00000  Uiso   1.00
H306   H     0.73802   0.61251   0.53307   0.00000  Uiso   1.00
H307   H     0.53755   0.96837   0.61263   0.00000  Uiso   1.00
H308   H     0.55921   0.02355   0.73467   0.00000  Uiso   1.00
H309   H     0.51624   0.03673   0.53637   0.00000  Uiso   1.00
H310   H     0.51680   0.85451   0.56510   0.00000  Uiso   1.00
H311   H     0.61537   0.06951   0.87268   0.00000  Uiso   1.00
H312   H     0.52476   0.09729   0.45454   0.00000  Uiso   1.00
H313   H     0.52594   0.71304   0.51512   0.00000  Uiso   1.00
O314   O     0.74013   0.05344   0.96231   0.00000  Uiso   1.00
O315   O     0.62126   0.08988   0.41373   0.00000  Uiso   1.00
O316   O     0.62280   0.58575   0.49321   0.00000  Uiso   1.00
N317   N     0.77457   0.98506   0.86966   0.00000  Uiso   1.00
N318   N     0.68986   0.01104   0.47874   0.00000  Uiso   1.00
N319   N     0.69095   0.65180   0.53535   0.00000  Uiso   1.00
N320   N     0.66045   0.03915   0.86000   0.00000  Uiso   1.00
N321   N     0.57574   0.06513   0.46908   0.00000  Uiso   1.00
N322   N     0.57683   0.70589   0.52570   0.00000  Uiso   1.00
C323   C     0.95526   0.05164   0.14831   0.00000  Uiso   1.00
C324   C     0.98275   0.10844   0.17096   0.00000  Uiso   1.00
C325   C     0.98684   0.13693   0.13160   0.00000  Uiso   1.00
C326   C     0.01353   0.18837   0.16161   0.00000  Uiso   1.00
C327   C     0.05287   0.27324   0.18659   0.00000  Uiso   1.00
C328   C     0.89537   0.08065   0.17783   0.00000  Uiso   1.00
C329   C     0.82599   0.08576   0.14424   0.00000  Uiso   1.00
C330   C     0.77914   0.11380   0.18003   0.00000  Uiso   1.00
C331   C     0.68283   0.15546   0.21567   0.00000  Uiso   1.00
C332   C     0.01516   0.99373   0.18065   0.00000  Uiso   1.00
C333   C     0.04650   0.92574   0.14944   0.00000  Uiso   1.00
C334   C     0.10049   0.88059   0.18761   0.00000  Uiso   1.00
C335   C     0.19018   0.78729   0.22764   0.00000  Uiso   1.00
C336   C     0.99541   0.09234   0.27161   0.00000  Uiso   1.00
C337   C     0.00456   0.13055   0.23793   0.00000  Uiso   1.00
C338   C     0.03126   0.18196   0.26801   0.00000  Uiso   1.00
C339   C     0.03539   0.21052   0.22870   0.00000  Uiso   1.00
C340   C     0.91718   0.10276   0.24479   0.00000  Uiso   1.00
C341   C     0.87042   0.13079   0.28064   0.00000  Uiso   1.00
C342   C     0.80099   0.13595   0.24712   0.00000  Uiso   1.00
C343   C     0.03698   0.01583   0.24762   0.00000  Uiso   1.00
C344   C     0.09093   0.97077   0.28585   0.00000  Uiso   1.00
C345   C     0.12234   0.90273   0.25470   0.00000  Uiso   1.00
H346   H     0.93828   0.03443   0.09618   0.00000  Uiso   1.00
H347   H     0.96995   0.11981   0.07978   0.00000  Uiso   1.00
H348   H     0.80913   0.06864   0.09241   0.00000  Uiso   1.00
H349   H     0.02961   0.90865   0.09762   0.00000  Uiso   1.00
H350   H     0.01465   0.22424   0.09112   0.00000  Uiso   1.00
H351   H     0.67558   0.11633   0.11777   0.00000  Uiso   1.00
H352   H     0.14049   0.77895   0.12874   0.00000  Uiso   1.00
H353   H     0.01239   0.10955   0.32375   0.00000  Uiso   1.00
H354   H     0.04813   0.19906   0.31983   0.00000  Uiso   1.00
H355   H     0.88732   0.14789   0.33247   0.00000  Uiso   1.00
H356   H     0.10779   0.98790   0.33767   0.00000  Uiso   1.00
H357   H     0.07811   0.28856   0.28596   0.00000  Uiso   1.00
H358   H     0.73903   0.18064   0.31261   0.00000  Uiso   1.00
H359   H     0.20394   0.84327   0.32358   0.00000  Uiso   1.00
O360   O     0.06853   0.31394   0.18186   0.00000  Uiso   1.00
O361   O     0.62368   0.17235   0.21682   0.00000  Uiso   1.00
O362   O     0.23364   0.72972   0.23121   0.00000  Uiso   1.00
N363   N     0.02470   0.22709   0.13752   0.00000  Uiso   1.00
N364   N     0.70767   0.12620   0.16243   0.00000  Uiso   1.00
N365   N     0.14232   0.81078   0.17269   0.00000  Uiso   1.00
N366   N     0.05884   0.26170   0.24236   0.00000  Uiso   1.00
N367   N     0.74182   0.16081   0.26727   0.00000  Uiso   1.00
N368   N     0.17646   0.84539   0.27753   0.00000  Uiso   1.00
C369   C     0.26588   0.98722   0.92319   0.00000  Uiso   1.00
C370   C     0.21143   0.03195   0.87547   0.00000  Uiso   1.00
C371   C     0.13978   0.04319   0.84930   0.00000  Uiso   1.00
C372   C     0.09879   0.08579   0.80652   0.00000  Uiso   1.00
C373   C     0.00973   0.15067   0.73488   0.00000  Uiso   1.00
C374   C     0.29862   0.03385   0.98129   0.00000  Uiso   1.00
C375   C     0.30027   0.04668   0.04408   0.00000  Uiso   1.00
C376   C     0.33269   0.09088   0.09038   0.00000  Uiso   1.00
C377   C     0.37904   0.15867   0.18302   0.00000  Uiso   1.00
C378   C     0.32502   0.93404   0.89266   0.00000  Uiso   1.00
C379   C     0.34889   0.86294   0.88094   0.00000  Uiso   1.00
C380   C     0.40355   0.82310   0.85263   0.00000  Uiso   1.00
C381   C     0.49089   0.73591   0.80766   0.00000  Uiso   1.00
C382   C     0.32052   0.04291   0.89377   0.00000  Uiso   1.00
C383   C     0.24111   0.06220   0.85950   0.00000  Uiso   1.00
C384   C     0.20023   0.10480   0.81675   0.00000  Uiso   1.00
C385   C     0.12852   0.11609   0.79051   0.00000  Uiso   1.00
C386   C     0.32830   0.06410   0.96531   0.00000  Uiso   1.00
C387   C     0.36072   0.10829   0.01153   0.00000  Uiso   1.00
C388   C     0.36242   0.12118   0.07437   0.00000  Uiso   1.00
C389   C     0.35470   0.96428   0.87667   0.00000  Uiso   1.00
C390   C     0.40934   0.92455   0.84838   0.00000  Uiso   1.00
C391   C     0.43328   0.85340   0.83662   0.00000  Uiso   1.00
H392   H     0.24277   0.96368   0.93564   0.00000  Uiso   1.00
H393   H     0.11683   0.01977   0.86168   0.00000  Uiso   1.00
H394   H     0.27731   0.02326   0.05643   0.00000  Uiso   1.00
H395   H     0.32591   0.83955   0.89331   0.00000  Uiso   1.00
H396   H     0.99027   0.09533   0.77266   0.00000  Uiso   1.00
H397   H     0.32868   0.10266   0.18330   0.00000  Uiso   1.00
H398   H     0.43117   0.71526   0.83934   0.00000  Uiso   1.00
H399   H     0.34362   0.06646   0.88133   0.00000  Uiso   1.00
H400   H     0.22321   0.12820   0.80439   0.00000  Uiso   1.00
H401   H     0.38369   0.13168   0.99914   0.00000  Uiso   1.00
H402   H     0.43229   0.94797   0.83602   0.00000  Uiso   1.00
H403   H     0.07662   0.18333   0.72616   0.00000  Uiso   1.00
H404   H     0.41502   0.19066   0.13681   0.00000  Uiso   1.00
H405   H     0.51751   0.80327   0.79284   0.00000  Uiso   1.00
O406   O     0.95241   0.17810   0.69979   0.00000  Uiso   1.00
O407   O     0.39639   0.18771   0.23854   0.00000  Uiso   1.00
O408   O     0.53085   0.67946   0.78726   0.00000  Uiso   1.00
N409   N     0.02712   0.10755   0.77226   0.00000  Uiso   1.00
N410   N     0.34350   0.11442   0.15619   0.00000  Uiso   1.00
N411   N     0.43933   0.75224   0.83463   0.00000  Uiso   1.00
N412   N     0.07358   0.15491   0.74724   0.00000  Uiso   1.00
N413   N     0.38996   0.16177   0.13117   0.00000  Uiso   1.00
N414   N     0.48580   0.79959   0.80961   0.00000  Uiso   1.00
C415   C     0.75336   0.50057   0.86636   0.00000  Uiso   1.00
C416   C     0.71164   0.54350   0.91522   0.00000  Uiso   1.00
C417   C     0.63860   0.58054   0.90110   0.00000  Uiso   1.00
C418   C     0.61060   0.61652   0.95259   0.00000  Uiso   1.00
C419   C     0.53920   0.68337   0.01883   0.00000  Uiso   1.00
C420   C     0.80967   0.52881   0.88564   0.00000  Uiso   1.00
C421   C     0.81906   0.55350   0.84663   0.00000  Uiso   1.00
C422   C     0.87359   0.57710   0.87322   0.00000  Uiso   1.00
C423   C     0.95442   0.62110   0.89352   0.00000  Uiso   1.00
C424   C     0.79369   0.42804   0.87809   0.00000  Uiso   1.00
C425   C     0.78966   0.36799   0.83273   0.00000  Uiso   1.00
C426   C     0.83075   0.30674   0.85295   0.00000  Uiso   1.00
C427   C     0.88676   0.19428   0.86153   0.00000  Uiso   1.00
C428   C     0.83350   0.49858   0.98292   0.00000  Uiso   1.00
C429   C     0.75517   0.54242   0.97853   0.00000  Uiso   1.00
C430   C     0.72726   0.57834   0.03006   0.00000  Uiso   1.00
C431   C     0.65420   0.61544   0.01601   0.00000  Uiso   1.00
C432   C     0.85320   0.52773   0.94895   0.00000  Uiso   1.00
C433   C     0.90772   0.55130   0.97560   0.00000  Uiso   1.00
C434   C     0.91719   0.57602   0.93665   0.00000  Uiso   1.00
C435   C     0.83722   0.42696   0.94140   0.00000  Uiso   1.00
C436   C     0.87832   0.36579   0.96169   0.00000  Uiso   1.00
C437   C     0.87435   0.30566   0.91638   0.00000  Uiso   1.00
H438   H     0.71948   0.50141   0.81707   0.00000  Uiso   1.00
H439   H     0.60494   0.58137   0.85209   0.00000  Uiso   1.00
H440   H     0.78538   0.55432   0.79764   0.00000  Uiso   1.00
H441   H     0.75598   0.36884   0.78374   0.00000  Uiso   1.00
H442   H     0.49715   0.66957   0.91885   0.00000  Uiso   1.00
H443   H     0.87763   0.61251   0.80403   0.00000  Uiso   1.00
H444   H     0.81563   0.22139   0.77471   0.00000  Uiso   1.00
H445   H     0.86739   0.49774   0.03221   0.00000  Uiso   1.00
H446   H     0.76096   0.57750   0.07905   0.00000  Uiso   1.00
H447   H     0.94140   0.55045   0.02459   0.00000  Uiso   1.00
H448   H     0.91200   0.36498   0.01069   0.00000  Uiso   1.00
H449   H     0.62378   0.66643   0.10306   0.00000  Uiso   1.00
H450   H     0.00426   0.60937   0.98823   0.00000  Uiso   1.00
H451   H     0.94226   0.21826   0.95892   0.00000  Uiso   1.00
O452   O     0.48779   0.72055   0.03789   0.00000  Uiso   1.00
O453   O     0.98697   0.64568   0.88723   0.00000  Uiso   1.00
O454   O     0.90563   0.13255   0.84878   0.00000  Uiso   1.00
N455   N     0.54156   0.65787   0.95578   0.00000  Uiso   1.00
N456   N     0.89727   0.60453   0.84842   0.00000  Uiso   1.00
N457   N     0.83933   0.23887   0.82101   0.00000  Uiso   1.00
N458   N     0.60970   0.65618   0.05490   0.00000  Uiso   1.00
N459   N     0.96541   0.60285   0.94754   0.00000  Uiso   1.00
N460   N     0.90747   0.23718   0.92013   0.00000  Uiso   1.00
C461   C     0.28232   0.52826   0.46552   0.00000  Uiso   1.00
C462   C     0.25487   0.59631   0.44808   0.00000  Uiso   1.00
C463   C     0.29645   0.62912   0.45564   0.00000  Uiso   1.00
C464   C     0.26122   0.69100   0.43680   0.00000  Uiso   1.00
C465   C     0.22987   0.79243   0.41362   0.00000  Uiso   1.00
C466   C     0.24377   0.54324   0.51197   0.00000  Uiso   1.00
C467   C     0.27601   0.53141   0.57323   0.00000  Uiso   1.00
C468   C     0.23144   0.54861   0.60817   0.00000  Uiso   1.00
C469   C     0.18285   0.56759   0.68415   0.00000  Uiso   1.00
C470   C     0.25478   0.48055   0.40440   0.00000  Uiso   1.00
C471   C     0.29628   0.41600   0.37522   0.00000  Uiso   1.00
C472   C     0.26097   0.38041   0.31960   0.00000  Uiso   1.00
C473   C     0.22948   0.30206   0.22856   0.00000  Uiso   1.00
C474   C     0.14583   0.57981   0.41863   0.00000  Uiso   1.00
C475   C     0.18073   0.62432   0.42261   0.00000  Uiso   1.00
C476   C     0.14543   0.68616   0.40375   0.00000  Uiso   1.00
C477   C     0.18694   0.71905   0.41128   0.00000  Uiso   1.00
C478   C     0.16963   0.57124   0.48650   0.00000  Uiso   1.00
C479   C     0.12500   0.58845   0.52135   0.00000  Uiso   1.00
C480   C     0.15716   0.57666   0.58265   0.00000  Uiso   1.00
C481   C     0.18064   0.50855   0.37892   0.00000  Uiso   1.00
C482   C     0.14526   0.47305   0.32334   0.00000  Uiso   1.00
C483   C     0.18669   0.40846   0.29408   0.00000  Uiso   1.00
H484   H     0.34004   0.50646   0.48536   0.00000  Uiso   1.00
H485   H     0.35382   0.60744   0.47536   0.00000  Uiso   1.00
H486   H     0.33339   0.50974   0.59293   0.00000  Uiso   1.00
H487   H     0.35365   0.39435   0.39495   0.00000  Uiso   1.00
H488   H     0.33640   0.73176   0.45306   0.00000  Uiso   1.00
H489   H     0.29332   0.52573   0.70095   0.00000  Uiso   1.00
H490   H     0.33604   0.28241   0.28347   0.00000  Uiso   1.00
H491   H     0.08810   0.60161   0.39880   0.00000  Uiso   1.00
H492   H     0.08805   0.70782   0.38404   0.00000  Uiso   1.00
H493   H     0.06763   0.61012   0.50162   0.00000  Uiso   1.00
H494   H     0.08789   0.49473   0.30364   0.00000  Uiso   1.00
H495   H     0.12069   0.81323   0.37895   0.00000  Uiso   1.00
H496   H     0.07761   0.60720   0.62685   0.00000  Uiso   1.00
H497   H     0.12034   0.36388   0.20936   0.00000  Uiso   1.00
O498   O     0.23306   0.84065   0.40788   0.00000  Uiso   1.00
O499   O     0.17654   0.57034   0.73310   0.00000  Uiso   1.00
O500   O     0.23260   0.25111   0.18538   0.00000  Uiso   1.00
N501   N     0.28564   0.73635   0.43763   0.00000  Uiso   1.00
N502   N     0.24536   0.54374   0.66940   0.00000  Uiso   1.00
N503   N     0.28531   0.31624   0.27910   0.00000  Uiso   1.00
N504   N     0.16957   0.78019   0.39775   0.00000  Uiso   1.00
N505   N     0.12929   0.58758   0.62952   0.00000  Uiso   1.00
N506   N     0.16924   0.36008   0.23922   0.00000  Uiso   1.00
C507   C     0.54287   0.51305   0.21557   0.00000  Uiso   1.00
C508   C     0.60886   0.52963   0.24236   0.00000  Uiso   1.00
C509   C     0.64786   0.54153   0.30655   0.00000  Uiso   1.00
C510   C     0.70649   0.55589   0.32129   0.00000  Uiso   1.00
C511   C     0.80606   0.58132   0.37015   0.00000  Uiso   1.00
C512   C     0.48435   0.56761   0.17854   0.00000  Uiso   1.00
C513   C     0.41865   0.61142   0.18907   0.00000  Uiso   1.00
C514   C     0.37247   0.65773   0.15008   0.00000  Uiso   1.00
C515   C     0.27870   0.74207   0.09984   0.00000  Uiso   1.00
C516   C     0.55925   0.44490   0.16553   0.00000  Uiso   1.00
C517   C     0.55652   0.38554   0.16511   0.00000  Uiso   1.00
C518   C     0.57338   0.32854   0.11516   0.00000  Uiso   1.00
C519   C     0.59591   0.22235   0.04472   0.00000  Uiso   1.00
C520   C     0.57766   0.51739   0.12760   0.00000  Uiso   1.00
C521   C     0.62775   0.53199   0.19457   0.00000  Uiso   1.00
C522   C     0.68635   0.54633   0.20922   0.00000  Uiso   1.00
C523   C     0.72543   0.55825   0.27342   0.00000  Uiso   1.00
C524   C     0.50324   0.56996   0.13076   0.00000  Uiso   1.00
C525   C     0.45714   0.61622   0.09174   0.00000  Uiso   1.00
C526   C     0.39139   0.66009   0.10221   0.00000  Uiso   1.00
C527   C     0.57815   0.44725   0.11775   0.00000  Uiso   1.00
C528   C     0.59501   0.39033   0.06778   0.00000  Uiso   1.00
C529   C     0.59231   0.33090   0.06729   0.00000  Uiso   1.00
H530   H     0.52816   0.51122   0.25277   0.00000  Uiso   1.00
H531   H     0.63321   0.53971   0.34351   0.00000  Uiso   1.00
H532   H     0.40404   0.60958   0.22605   0.00000  Uiso   1.00
H533   H     0.54189   0.38373   0.20209   0.00000  Uiso   1.00
H534   H     0.75800   0.57236   0.42305   0.00000  Uiso   1.00
H535   H     0.27477   0.71967   0.17535   0.00000  Uiso   1.00
H536   H     0.56545   0.24343   0.12484   0.00000  Uiso   1.00
H537   H     0.59237   0.51922   0.09040   0.00000  Uiso   1.00
H538   H     0.70096   0.54815   0.17223   0.00000  Uiso   1.00
H539   H     0.47178   0.61802   0.05477   0.00000  Uiso   1.00
H540   H     0.60963   0.39217   0.03081   0.00000  Uiso   1.00
H541   H     0.81298   0.57922   0.28403   0.00000  Uiso   1.00
H542   H     0.32975   0.72652   0.03633   0.00000  Uiso   1.00
H543   H     0.62043   0.25028   0.98582   0.00000  Uiso   1.00
O544   O     0.85575   0.59470   0.41031   0.00000  Uiso   1.00
O545   O     0.22176   0.78795   0.08533   0.00000  Uiso   1.00
O546   O     0.60313   0.16313   0.01907   0.00000  Uiso   1.00
N547   N     0.75605   0.56999   0.37910   0.00000  Uiso   1.00
N548   N     0.30426   0.70772   0.14752   0.00000  Uiso   1.00
N549   N     0.57600   0.26248   0.10029   0.00000  Uiso   1.00
N550   N     0.78564   0.57368   0.30429   0.00000  Uiso   1.00
N551   N     0.33384   0.71141   0.07272   0.00000  Uiso   1.00
N552   N     0.60559   0.26617   0.02549   0.00000  Uiso   1.00
