data_job_02908
_audit_creation_date              2018-12-19
_audit_creation_method            'Materials Studio'
_symmetry_space_group_name_H-M    'P1'
_symmetry_Int_Tables_number       1
_symmetry_cell_setting            triclinic
loop_
_symmetry_equiv_pos_as_xyz
  x,y,z
_cell_length_a                    12.4585
_cell_length_b                    14.4147
_cell_length_c                    31.3277
_cell_angle_alpha                 90.0000
_cell_angle_beta                  105.4773
_cell_angle_gamma                 90.0000
loop_
_atom_site_label
_atom_site_type_symbol
_atom_site_fract_x
_atom_site_fract_y
_atom_site_fract_z
_atom_site_U_iso_or_equiv
_atom_site_adp_type
_atom_site_occupancy
C1     C     0.49755   0.19676   0.15824   0.00000  Uiso   1.00
C2     C     0.39351   0.15793   0.12574   0.00000  Uiso   1.00
C3     C     0.28960   0.20006   0.11388   0.00000  Uiso   1.00
C4     C     0.20509   0.15336   0.08363   0.00000  Uiso   1.00
C5     C     0.04067   0.10610   0.03588   0.00000  Uiso   1.00
C6     C     0.53647   0.12241   0.19362   0.00000  Uiso   1.00
C7     C     0.55277   0.13468   0.23884   0.00000  Uiso   1.00
C8     C     0.58862   0.05806   0.26573   0.00000  Uiso   1.00
C9     C     0.64623   0.95567   0.32337   0.00000  Uiso   1.00
C10    C     0.58643   0.20174   0.13298   0.00000  Uiso   1.00
C11    C     0.64477   0.28069   0.12722   0.00000  Uiso   1.00
C12    C     0.72270   0.27086   0.10306   0.00000  Uiso   1.00
C13    C     0.85787   0.29164   0.06655   0.00000  Uiso   1.00
C14    C     0.53224   0.03889   0.12558   0.00000  Uiso   1.00
C15    C     0.41236   0.07219   0.10800   0.00000  Uiso   1.00
C16    C     0.32798   0.02541   0.07775   0.00000  Uiso   1.00
C17    C     0.22397   0.06746   0.06585   0.00000  Uiso   1.00
C18    C     0.55531   0.03667   0.17588   0.00000  Uiso   1.00
C19    C     0.59115   0.96002   0.20271   0.00000  Uiso   1.00
C20    C     0.60750   0.97216   0.24796   0.00000  Uiso   1.00
C21    C     0.60527   0.11599   0.11524   0.00000  Uiso   1.00
C22    C     0.68314   0.10604   0.09108   0.00000  Uiso   1.00
C23    C     0.74158   0.18496   0.08529   0.00000  Uiso   1.00
H24    H     0.48288   0.26351   0.17205   0.00000  Uiso   1.00
H25    H     0.27505   0.26642   0.12762   0.00000  Uiso   1.00
H26    H     0.53820   0.20104   0.25256   0.00000  Uiso   1.00
H27    H     0.63016   0.34703   0.14095   0.00000  Uiso   1.00
H28    H     0.05294   0.23181   0.07056   0.00000  Uiso   1.00
H29    H     0.60782   0.09397   0.33400   0.00000  Uiso   1.00
H30    H     0.80176   0.40183   0.09865   0.00000  Uiso   1.00
H31    H     0.54691   0.97213   0.11177   0.00000  Uiso   1.00
H32    H     0.34259   0.95905   0.06403   0.00000  Uiso   1.00
H33    H     0.60573   0.89368   0.18897   0.00000  Uiso   1.00
H34    H     0.69770   0.03967   0.07736   0.00000  Uiso   1.00
H35    H     0.10775   0.98234   0.01894   0.00000  Uiso   1.00
H36    H     0.66264   0.84450   0.28239   0.00000  Uiso   1.00
H37    H     0.85657   0.15236   0.04704   0.00000  Uiso   1.00
O38    O     0.94477   0.10371   0.01445   0.00000  Uiso   1.00
O39    O     0.67278   0.92288   0.36007   0.00000  Uiso   1.00
O40    O     0.92721   0.32678   0.05130   0.00000  Uiso   1.00
N41    N     0.09388   0.17490   0.06495   0.00000  Uiso   1.00
N42    N     0.61265   0.04603   0.31126   0.00000  Uiso   1.00
N43    N     0.79399   0.33384   0.09124   0.00000  Uiso   1.00
N44    N     0.12338   0.04067   0.03718   0.00000  Uiso   1.00
N45    N     0.64215   0.91179   0.28348   0.00000  Uiso   1.00
N46    N     0.82348   0.19961   0.06347   0.00000  Uiso   1.00
C47    C     0.99444   0.79609   0.64428   0.00000  Uiso   1.00
C48    C     0.88996   0.75722   0.61208   0.00000  Uiso   1.00
C49    C     0.78569   0.79876   0.60097   0.00000  Uiso   1.00
C50    C     0.70080   0.75211   0.57087   0.00000  Uiso   1.00
C51    C     0.53568   0.70468   0.52366   0.00000  Uiso   1.00
C52    C     0.03510   0.72118   0.67923   0.00000  Uiso   1.00
C53    C     0.05288   0.73243   0.72459   0.00000  Uiso   1.00
C54    C     0.09019   0.65544   0.75102   0.00000  Uiso   1.00
C55    C     0.15049   0.55208   0.80808   0.00000  Uiso   1.00
C56    C     0.08202   0.80247   0.61844   0.00000  Uiso   1.00
C57    C     0.13927   0.88206   0.61270   0.00000  Uiso   1.00
C58    C     0.21610   0.87351   0.58796   0.00000  Uiso   1.00
C59    C     0.34924   0.89636   0.55064   0.00000  Uiso   1.00
C60    C     0.02910   0.63937   0.61058   0.00000  Uiso   1.00
C61    C     0.90878   0.67209   0.59377   0.00000  Uiso   1.00
C62    C     0.82403   0.62537   0.56368   0.00000  Uiso   1.00
C63    C     0.71965   0.66684   0.55253   0.00000  Uiso   1.00
C64    C     0.05392   0.63606   0.66093   0.00000  Uiso   1.00
C65    C     0.09122   0.55904   0.68730   0.00000  Uiso   1.00
C66    C     0.10905   0.57017   0.73268   0.00000  Uiso   1.00
C67    C     0.10084   0.71735   0.60014   0.00000  Uiso   1.00
C68    C     0.17760   0.70867   0.57541   0.00000  Uiso   1.00
C69    C     0.23495   0.78823   0.56962   0.00000  Uiso   1.00
H70    H     0.97979   0.86236   0.65853   0.00000  Uiso   1.00
H71    H     0.77116   0.86464   0.61514   0.00000  Uiso   1.00
H72    H     0.03832   0.79831   0.73874   0.00000  Uiso   1.00
H73    H     0.12468   0.94792   0.62687   0.00000  Uiso   1.00
H74    H     0.54813   0.82960   0.55897   0.00000  Uiso   1.00
H75    H     0.11150   0.68977   0.81959   0.00000  Uiso   1.00
H76    H     0.29362   0.00525   0.58368   0.00000  Uiso   1.00
H77    H     0.04375   0.57310   0.59633   0.00000  Uiso   1.00
H78    H     0.83862   0.55950   0.54952   0.00000  Uiso   1.00
H79    H     0.10578   0.49318   0.67312   0.00000  Uiso   1.00
H80    H     0.19215   0.64279   0.56125   0.00000  Uiso   1.00
H81    H     0.60289   0.58194   0.50571   0.00000  Uiso   1.00
H82    H     0.16626   0.44211   0.76633   0.00000  Uiso   1.00
H83    H     0.34837   0.75759   0.53042   0.00000  Uiso   1.00
O84    O     0.43941   0.70203   0.50269   0.00000  Uiso   1.00
O85    O     0.17854   0.51858   0.84461   0.00000  Uiso   1.00
O86    O     0.41746   0.93248   0.53510   0.00000  Uiso   1.00
N87    N     0.58918   0.77319   0.55286   0.00000  Uiso   1.00
N88    N     0.11587   0.64245   0.79652   0.00000  Uiso   1.00
N89    N     0.28616   0.93739   0.57597   0.00000  Uiso   1.00
N90    N     0.61864   0.63992   0.52420   0.00000  Uiso   1.00
N91    N     0.14534   0.50919   0.76786   0.00000  Uiso   1.00
N92    N     0.31562   0.80413   0.54732   0.00000  Uiso   1.00
C93    C     0.50245   0.69676   0.34176   0.00000  Uiso   1.00
C94    C     0.60649   0.65793   0.37426   0.00000  Uiso   1.00
C95    C     0.71040   0.70006   0.38612   0.00000  Uiso   1.00
C96    C     0.79491   0.65336   0.41637   0.00000  Uiso   1.00
C97    C     0.95933   0.60610   0.46412   0.00000  Uiso   1.00
C98    C     0.46353   0.62241   0.30638   0.00000  Uiso   1.00
C99    C     0.44723   0.63468   0.26116   0.00000  Uiso   1.00
C100   C     0.41138   0.55806   0.23427   0.00000  Uiso   1.00
C101   C     0.35377   0.45567   0.17663   0.00000  Uiso   1.00
C102   C     0.41357   0.70174   0.36702   0.00000  Uiso   1.00
C103   C     0.35523   0.78069   0.37278   0.00000  Uiso   1.00
C104   C     0.27730   0.77086   0.39694   0.00000  Uiso   1.00
C105   C     0.14213   0.79164   0.43345   0.00000  Uiso   1.00
C106   C     0.46776   0.53889   0.37442   0.00000  Uiso   1.00
C107   C     0.58764   0.57219   0.39200   0.00000  Uiso   1.00
C108   C     0.67202   0.52541   0.42225   0.00000  Uiso   1.00
C109   C     0.77603   0.56746   0.43415   0.00000  Uiso   1.00
C110   C     0.44469   0.53667   0.32412   0.00000  Uiso   1.00
C111   C     0.40885   0.46002   0.29729   0.00000  Uiso   1.00
C112   C     0.39250   0.47216   0.25204   0.00000  Uiso   1.00
C113   C     0.39473   0.61599   0.38476   0.00000  Uiso   1.00
C114   C     0.31686   0.60604   0.40892   0.00000  Uiso   1.00
C115   C     0.25842   0.68496   0.41471   0.00000  Uiso   1.00
H116   H     0.51712   0.76351   0.32795   0.00000  Uiso   1.00
H117   H     0.72495   0.76642   0.37238   0.00000  Uiso   1.00
H118   H     0.46180   0.70104   0.24744   0.00000  Uiso   1.00
H119   H     0.36984   0.84703   0.35905   0.00000  Uiso   1.00
H120   H     0.94706   0.73181   0.42944   0.00000  Uiso   1.00
H121   H     0.39218   0.59397   0.16600   0.00000  Uiso   1.00
H122   H     0.19824   0.90183   0.40135   0.00000  Uiso   1.00
H123   H     0.45309   0.47213   0.38823   0.00000  Uiso   1.00
H124   H     0.65741   0.45905   0.43597   0.00000  Uiso   1.00
H125   H     0.39427   0.39368   0.31103   0.00000  Uiso   1.00
H126   H     0.30230   0.53967   0.42264   0.00000  Uiso   1.00
H127   H     0.89225   0.48234   0.48106   0.00000  Uiso   1.00
H128   H     0.33736   0.34450   0.21761   0.00000  Uiso   1.00
H129   H     0.14343   0.65236   0.45296   0.00000  Uiso   1.00
O130   O     0.05523   0.60371   0.48555   0.00000  Uiso   1.00
O131   O     0.32722   0.42288   0.13993   0.00000  Uiso   1.00
O132   O     0.07279   0.82678   0.44870   0.00000  Uiso   1.00
N133   N     0.90612   0.67490   0.43505   0.00000  Uiso   1.00
N134   N     0.38735   0.54603   0.18874   0.00000  Uiso   1.00
N135   N     0.20601   0.83384   0.40876   0.00000  Uiso   1.00
N136   N     0.87662   0.54067   0.46282   0.00000  Uiso   1.00
N137   N     0.35785   0.41179   0.21652   0.00000  Uiso   1.00
N138   N     0.17652   0.69961   0.43653   0.00000  Uiso   1.00
C139   C     0.00556   0.29609   0.85572   0.00000  Uiso   1.00
C140   C     0.11004   0.25722   0.88792   0.00000  Uiso   1.00
C141   C     0.21431   0.29876   0.89903   0.00000  Uiso   1.00
C142   C     0.29920   0.25211   0.92913   0.00000  Uiso   1.00
C143   C     0.46432   0.20468   0.97634   0.00000  Uiso   1.00
C144   C     0.96490   0.22118   0.82077   0.00000  Uiso   1.00
C145   C     0.94712   0.23243   0.77541   0.00000  Uiso   1.00
C146   C     0.90981   0.15544   0.74898   0.00000  Uiso   1.00
C147   C     0.84951   0.05208   0.69192   0.00000  Uiso   1.00
C148   C     0.91798   0.30247   0.88156   0.00000  Uiso   1.00
C149   C     0.86073   0.38206   0.88730   0.00000  Uiso   1.00
C150   C     0.78390   0.37351   0.91204   0.00000  Uiso   1.00
C151   C     0.65076   0.39636   0.94936   0.00000  Uiso   1.00
C152   C     0.97090   0.13937   0.88942   0.00000  Uiso   1.00
C153   C     0.09122   0.17209   0.90623   0.00000  Uiso   1.00
C154   C     0.17597   0.12537   0.93632   0.00000  Uiso   1.00
C155   C     0.28035   0.16684   0.94747   0.00000  Uiso   1.00
C156   C     0.94608   0.13606   0.83907   0.00000  Uiso   1.00
C157   C     0.90878   0.05904   0.81270   0.00000  Uiso   1.00
C158   C     0.89095   0.07017   0.76732   0.00000  Uiso   1.00
C159   C     0.89916   0.21735   0.89986   0.00000  Uiso   1.00
C160   C     0.82240   0.20867   0.92459   0.00000  Uiso   1.00
C161   C     0.76505   0.28823   0.93038   0.00000  Uiso   1.00
H162   H     0.02021   0.36236   0.84147   0.00000  Uiso   1.00
H163   H     0.22884   0.36464   0.88486   0.00000  Uiso   1.00
H164   H     0.96168   0.29831   0.76126   0.00000  Uiso   1.00
H165   H     0.87532   0.44792   0.87313   0.00000  Uiso   1.00
H166   H     0.45187   0.32960   0.94103   0.00000  Uiso   1.00
H167   H     0.88850   0.18977   0.68041   0.00000  Uiso   1.00
H168   H     0.70638   0.50525   0.91632   0.00000  Uiso   1.00
H169   H     0.95625   0.07310   0.90367   0.00000  Uiso   1.00
H170   H     0.16138   0.05950   0.95048   0.00000  Uiso   1.00
H171   H     0.89422   0.99318   0.82688   0.00000  Uiso   1.00
H172   H     0.80785   0.14279   0.93875   0.00000  Uiso   1.00
H173   H     0.39711   0.08194   0.99429   0.00000  Uiso   1.00
H174   H     0.83374   0.94211   0.73367   0.00000  Uiso   1.00
H175   H     0.65163   0.25759   0.96958   0.00000  Uiso   1.00
O176   O     0.56059   0.20203   0.99731   0.00000  Uiso   1.00
O177   O     0.82146   0.01858   0.65539   0.00000  Uiso   1.00
O178   O     0.58254   0.43248   0.96490   0.00000  Uiso   1.00
N179   N     0.41082   0.27319   0.94714   0.00000  Uiso   1.00
N180   N     0.88413   0.14245   0.70348   0.00000  Uiso   1.00
N181   N     0.71384   0.43739   0.92403   0.00000  Uiso   1.00
N182   N     0.38136   0.13992   0.97580   0.00000  Uiso   1.00
N183   N     0.85466   0.00919   0.73214   0.00000  Uiso   1.00
N184   N     0.68438   0.30413   0.95268   0.00000  Uiso   1.00
C185   C     0.50245   0.80324   0.84176   0.00000  Uiso   1.00
C186   C     0.60649   0.84207   0.87426   0.00000  Uiso   1.00
C187   C     0.71040   0.79994   0.88612   0.00000  Uiso   1.00
C188   C     0.79491   0.84664   0.91637   0.00000  Uiso   1.00
C189   C     0.95933   0.89390   0.96412   0.00000  Uiso   1.00
C190   C     0.46353   0.87759   0.80638   0.00000  Uiso   1.00
C191   C     0.44723   0.86532   0.76116   0.00000  Uiso   1.00
C192   C     0.41138   0.94194   0.73427   0.00000  Uiso   1.00
C193   C     0.35377   0.04433   0.67663   0.00000  Uiso   1.00
C194   C     0.41357   0.79826   0.86702   0.00000  Uiso   1.00
C195   C     0.35523   0.71931   0.87278   0.00000  Uiso   1.00
C196   C     0.27730   0.72914   0.89694   0.00000  Uiso   1.00
C197   C     0.14213   0.70836   0.93345   0.00000  Uiso   1.00
C198   C     0.46776   0.96111   0.87442   0.00000  Uiso   1.00
C199   C     0.58764   0.92781   0.89200   0.00000  Uiso   1.00
C200   C     0.67202   0.97459   0.92225   0.00000  Uiso   1.00
C201   C     0.77603   0.93254   0.93415   0.00000  Uiso   1.00
C202   C     0.44469   0.96333   0.82412   0.00000  Uiso   1.00
C203   C     0.40885   0.03998   0.79729   0.00000  Uiso   1.00
C204   C     0.39250   0.02784   0.75204   0.00000  Uiso   1.00
C205   C     0.39473   0.88401   0.88476   0.00000  Uiso   1.00
C206   C     0.31686   0.89396   0.90892   0.00000  Uiso   1.00
C207   C     0.25842   0.81504   0.91471   0.00000  Uiso   1.00
H208   H     0.51712   0.73649   0.82795   0.00000  Uiso   1.00
H209   H     0.72495   0.73358   0.87238   0.00000  Uiso   1.00
H210   H     0.46180   0.79896   0.74744   0.00000  Uiso   1.00
H211   H     0.36984   0.65297   0.85905   0.00000  Uiso   1.00
H212   H     0.94706   0.76819   0.92944   0.00000  Uiso   1.00
H213   H     0.39218   0.90603   0.66600   0.00000  Uiso   1.00
H214   H     0.19824   0.59817   0.90135   0.00000  Uiso   1.00
H215   H     0.45309   0.02787   0.88823   0.00000  Uiso   1.00
H216   H     0.65741   0.04095   0.93597   0.00000  Uiso   1.00
H217   H     0.39427   0.10632   0.81103   0.00000  Uiso   1.00
H218   H     0.30230   0.96033   0.92264   0.00000  Uiso   1.00
H219   H     0.89225   0.01766   0.98106   0.00000  Uiso   1.00
H220   H     0.33736   0.15550   0.71761   0.00000  Uiso   1.00
H221   H     0.14343   0.84764   0.95296   0.00000  Uiso   1.00
O222   O     0.05523   0.89629   0.98555   0.00000  Uiso   1.00
O223   O     0.32722   0.07712   0.63993   0.00000  Uiso   1.00
O224   O     0.07279   0.67322   0.94870   0.00000  Uiso   1.00
N225   N     0.90612   0.82510   0.93505   0.00000  Uiso   1.00
N226   N     0.38735   0.95397   0.68874   0.00000  Uiso   1.00
N227   N     0.20601   0.66616   0.90876   0.00000  Uiso   1.00
N228   N     0.87662   0.95933   0.96282   0.00000  Uiso   1.00
N229   N     0.35785   0.08821   0.71652   0.00000  Uiso   1.00
N230   N     0.17652   0.80039   0.93653   0.00000  Uiso   1.00
C231   C     0.00556   0.20391   0.35572   0.00000  Uiso   1.00
C232   C     0.11004   0.24278   0.38792   0.00000  Uiso   1.00
C233   C     0.21431   0.20124   0.39903   0.00000  Uiso   1.00
C234   C     0.29920   0.24789   0.42913   0.00000  Uiso   1.00
C235   C     0.46432   0.29532   0.47634   0.00000  Uiso   1.00
C236   C     0.96490   0.27882   0.32077   0.00000  Uiso   1.00
C237   C     0.94712   0.26757   0.27541   0.00000  Uiso   1.00
C238   C     0.90981   0.34456   0.24898   0.00000  Uiso   1.00
C239   C     0.84951   0.44792   0.19192   0.00000  Uiso   1.00
C240   C     0.91798   0.19753   0.38156   0.00000  Uiso   1.00
C241   C     0.86073   0.11794   0.38730   0.00000  Uiso   1.00
C242   C     0.78390   0.12649   0.41204   0.00000  Uiso   1.00
C243   C     0.65076   0.10364   0.44936   0.00000  Uiso   1.00
C244   C     0.97090   0.36063   0.38942   0.00000  Uiso   1.00
C245   C     0.09122   0.32791   0.40623   0.00000  Uiso   1.00
C246   C     0.17597   0.37463   0.43632   0.00000  Uiso   1.00
C247   C     0.28035   0.33316   0.44747   0.00000  Uiso   1.00
C248   C     0.94608   0.36394   0.33907   0.00000  Uiso   1.00
C249   C     0.90878   0.44096   0.31270   0.00000  Uiso   1.00
C250   C     0.89095   0.42983   0.26732   0.00000  Uiso   1.00
C251   C     0.89916   0.28265   0.39986   0.00000  Uiso   1.00
C252   C     0.82240   0.29133   0.42459   0.00000  Uiso   1.00
C253   C     0.76505   0.21177   0.43038   0.00000  Uiso   1.00
H254   H     0.02021   0.13764   0.34147   0.00000  Uiso   1.00
H255   H     0.22884   0.13536   0.38486   0.00000  Uiso   1.00
H256   H     0.96168   0.20169   0.26126   0.00000  Uiso   1.00
H257   H     0.87532   0.05208   0.37313   0.00000  Uiso   1.00
H258   H     0.45187   0.17040   0.44103   0.00000  Uiso   1.00
H259   H     0.88850   0.31023   0.18041   0.00000  Uiso   1.00
H260   H     0.70638   0.99475   0.41632   0.00000  Uiso   1.00
H261   H     0.95625   0.42690   0.40367   0.00000  Uiso   1.00
H262   H     0.16138   0.44050   0.45048   0.00000  Uiso   1.00
H263   H     0.89422   0.50682   0.32688   0.00000  Uiso   1.00
H264   H     0.80785   0.35721   0.43875   0.00000  Uiso   1.00
H265   H     0.39711   0.41806   0.49429   0.00000  Uiso   1.00
H266   H     0.83374   0.55789   0.23367   0.00000  Uiso   1.00
H267   H     0.65163   0.24241   0.46958   0.00000  Uiso   1.00
O268   O     0.56059   0.29797   0.49731   0.00000  Uiso   1.00
O269   O     0.82146   0.48142   0.15539   0.00000  Uiso   1.00
O270   O     0.58254   0.06752   0.46490   0.00000  Uiso   1.00
N271   N     0.41082   0.22681   0.44714   0.00000  Uiso   1.00
N272   N     0.88413   0.35755   0.20348   0.00000  Uiso   1.00
N273   N     0.71384   0.06261   0.42403   0.00000  Uiso   1.00
N274   N     0.38136   0.36008   0.47580   0.00000  Uiso   1.00
N275   N     0.85466   0.49081   0.23214   0.00000  Uiso   1.00
N276   N     0.68438   0.19587   0.45268   0.00000  Uiso   1.00
C277   C     0.49755   0.30324   0.65824   0.00000  Uiso   1.00
C278   C     0.39351   0.34207   0.62574   0.00000  Uiso   1.00
C279   C     0.28960   0.29994   0.61388   0.00000  Uiso   1.00
C280   C     0.20509   0.34664   0.58363   0.00000  Uiso   1.00
C281   C     0.04067   0.39390   0.53588   0.00000  Uiso   1.00
C282   C     0.53647   0.37759   0.69362   0.00000  Uiso   1.00
C283   C     0.55277   0.36532   0.73884   0.00000  Uiso   1.00
C284   C     0.58862   0.44194   0.76573   0.00000  Uiso   1.00
C285   C     0.64623   0.54433   0.82337   0.00000  Uiso   1.00
C286   C     0.58643   0.29826   0.63298   0.00000  Uiso   1.00
C287   C     0.64477   0.21931   0.62722   0.00000  Uiso   1.00
C288   C     0.72270   0.22914   0.60306   0.00000  Uiso   1.00
C289   C     0.85787   0.20836   0.56655   0.00000  Uiso   1.00
C290   C     0.53224   0.46111   0.62558   0.00000  Uiso   1.00
C291   C     0.41236   0.42781   0.60800   0.00000  Uiso   1.00
C292   C     0.32798   0.47459   0.57775   0.00000  Uiso   1.00
C293   C     0.22397   0.43254   0.56585   0.00000  Uiso   1.00
C294   C     0.55531   0.46333   0.67588   0.00000  Uiso   1.00
C295   C     0.59115   0.53998   0.70271   0.00000  Uiso   1.00
C296   C     0.60750   0.52784   0.74796   0.00000  Uiso   1.00
C297   C     0.60527   0.38401   0.61524   0.00000  Uiso   1.00
C298   C     0.68314   0.39396   0.59108   0.00000  Uiso   1.00
C299   C     0.74158   0.31504   0.58529   0.00000  Uiso   1.00
H300   H     0.48288   0.23649   0.67205   0.00000  Uiso   1.00
H301   H     0.27505   0.23358   0.62762   0.00000  Uiso   1.00
H302   H     0.53820   0.29896   0.75256   0.00000  Uiso   1.00
H303   H     0.63016   0.15297   0.64095   0.00000  Uiso   1.00
H304   H     0.05294   0.26819   0.57056   0.00000  Uiso   1.00
H305   H     0.60782   0.40603   0.83400   0.00000  Uiso   1.00
H306   H     0.80176   0.09817   0.59865   0.00000  Uiso   1.00
H307   H     0.54691   0.52787   0.61177   0.00000  Uiso   1.00
H308   H     0.34259   0.54095   0.56403   0.00000  Uiso   1.00
H309   H     0.60573   0.60632   0.68897   0.00000  Uiso   1.00
H310   H     0.69770   0.46033   0.57736   0.00000  Uiso   1.00
H311   H     0.10775   0.51766   0.51894   0.00000  Uiso   1.00
H312   H     0.66264   0.65550   0.78239   0.00000  Uiso   1.00
H313   H     0.85657   0.34764   0.54704   0.00000  Uiso   1.00
O314   O     0.94477   0.39629   0.51445   0.00000  Uiso   1.00
O315   O     0.67278   0.57712   0.86007   0.00000  Uiso   1.00
O316   O     0.92721   0.17322   0.55130   0.00000  Uiso   1.00
N317   N     0.09388   0.32510   0.56495   0.00000  Uiso   1.00
N318   N     0.61265   0.45397   0.81126   0.00000  Uiso   1.00
N319   N     0.79399   0.16616   0.59124   0.00000  Uiso   1.00
N320   N     0.12338   0.45933   0.53718   0.00000  Uiso   1.00
N321   N     0.64215   0.58821   0.78348   0.00000  Uiso   1.00
N322   N     0.82348   0.30039   0.56347   0.00000  Uiso   1.00
C323   C     0.99444   0.70391   0.14428   0.00000  Uiso   1.00
C324   C     0.88996   0.74278   0.11208   0.00000  Uiso   1.00
C325   C     0.78569   0.70124   0.10097   0.00000  Uiso   1.00
C326   C     0.70080   0.74789   0.07087   0.00000  Uiso   1.00
C327   C     0.53568   0.79532   0.02366   0.00000  Uiso   1.00
C328   C     0.03510   0.77882   0.17923   0.00000  Uiso   1.00
C329   C     0.05288   0.76757   0.22459   0.00000  Uiso   1.00
C330   C     0.09019   0.84456   0.25102   0.00000  Uiso   1.00
C331   C     0.15049   0.94792   0.30808   0.00000  Uiso   1.00
C332   C     0.08202   0.69753   0.11844   0.00000  Uiso   1.00
C333   C     0.13927   0.61794   0.11270   0.00000  Uiso   1.00
C334   C     0.21610   0.62649   0.08796   0.00000  Uiso   1.00
C335   C     0.34924   0.60364   0.05064   0.00000  Uiso   1.00
C336   C     0.02910   0.86063   0.11058   0.00000  Uiso   1.00
C337   C     0.90878   0.82791   0.09377   0.00000  Uiso   1.00
C338   C     0.82403   0.87463   0.06368   0.00000  Uiso   1.00
C339   C     0.71965   0.83316   0.05253   0.00000  Uiso   1.00
C340   C     0.05392   0.86394   0.16093   0.00000  Uiso   1.00
C341   C     0.09122   0.94096   0.18730   0.00000  Uiso   1.00
C342   C     0.10905   0.92983   0.23268   0.00000  Uiso   1.00
C343   C     0.10084   0.78265   0.10014   0.00000  Uiso   1.00
C344   C     0.17760   0.79133   0.07541   0.00000  Uiso   1.00
C345   C     0.23495   0.71177   0.06962   0.00000  Uiso   1.00
H346   H     0.97979   0.63764   0.15853   0.00000  Uiso   1.00
H347   H     0.77116   0.63536   0.11514   0.00000  Uiso   1.00
H348   H     0.03832   0.70169   0.23874   0.00000  Uiso   1.00
H349   H     0.12468   0.55208   0.12687   0.00000  Uiso   1.00
H350   H     0.54813   0.67040   0.05897   0.00000  Uiso   1.00
H351   H     0.11150   0.81023   0.31959   0.00000  Uiso   1.00
H352   H     0.29362   0.49475   0.08368   0.00000  Uiso   1.00
H353   H     0.04375   0.92690   0.09633   0.00000  Uiso   1.00
H354   H     0.83862   0.94050   0.04952   0.00000  Uiso   1.00
H355   H     0.10578   0.00682   0.17312   0.00000  Uiso   1.00
H356   H     0.19215   0.85721   0.06125   0.00000  Uiso   1.00
H357   H     0.60289   0.91806   0.00571   0.00000  Uiso   1.00
H358   H     0.16626   0.05789   0.26633   0.00000  Uiso   1.00
H359   H     0.34837   0.74241   0.03042   0.00000  Uiso   1.00
O360   O     0.43941   0.79797   0.00269   0.00000  Uiso   1.00
O361   O     0.17854   0.98142   0.34461   0.00000  Uiso   1.00
O362   O     0.41746   0.56752   0.03510   0.00000  Uiso   1.00
N363   N     0.58918   0.72681   0.05286   0.00000  Uiso   1.00
N364   N     0.11587   0.85755   0.29652   0.00000  Uiso   1.00
N365   N     0.28616   0.56261   0.07597   0.00000  Uiso   1.00
N366   N     0.61864   0.86008   0.02420   0.00000  Uiso   1.00
N367   N     0.14534   0.99081   0.26786   0.00000  Uiso   1.00
N368   N     0.31562   0.69587   0.04732   0.00000  Uiso   1.00
