data_job_03878
_audit_creation_date              2018-12-19
_audit_creation_method            'Materials Studio'
_symmetry_space_group_name_H-M    'P1'
_symmetry_Int_Tables_number       1
_symmetry_cell_setting            triclinic
loop_
_symmetry_equiv_pos_as_xyz
  x,y,z
_cell_length_a                    11.2207
_cell_length_b                    24.0991
_cell_length_c                    19.8841
_cell_angle_alpha                 90.0000
_cell_angle_beta                  144.2375
_cell_angle_gamma                 90.0000
loop_
_atom_site_label
_atom_site_type_symbol
_atom_site_fract_x
_atom_site_fract_y
_atom_site_fract_z
_atom_site_U_iso_or_equiv
_atom_site_adp_type
_atom_site_occupancy
C1     C     0.07643   0.08247   0.87782   0.00000  Uiso   1.00
C2     C     0.26076   0.10243   0.00223   0.00000  Uiso   1.00
C3     C     0.43960   0.07282   0.09434   0.00000  Uiso   1.00
C4     C     0.59029   0.09832   0.20143   0.00000  Uiso   1.00
C5     C     0.88063   0.12121   0.39244   0.00000  Uiso   1.00
C6     C     0.89507   0.08581   0.84260   0.00000  Uiso   1.00
C7     C     0.76643   0.04223   0.80048   0.00000  Uiso   1.00
C8     C     0.60927   0.05374   0.77317   0.00000  Uiso   1.00
C9     C     0.33178   0.05083   0.71628   0.00000  Uiso   1.00
C10    C     0.03891   0.12628   0.80671   0.00000  Uiso   1.00
C11    C     0.03116   0.11673   0.73438   0.00000  Uiso   1.00
C12    C     0.99506   0.16231   0.67683   0.00000  Uiso   1.00
C13    C     0.94091   0.22224   0.56420   0.00000  Uiso   1.00
C14    C     0.02602   0.18041   0.90421   0.00000  Uiso   1.00
C15    C     0.23337   0.15563   0.01656   0.00000  Uiso   1.00
C16    C     0.38383   0.18118   0.12354   0.00000  Uiso   1.00
C17    C     0.56287   0.15161   0.21579   0.00000  Uiso   1.00
C18    C     0.86769   0.13901   0.85693   0.00000  Uiso   1.00
C19    C     0.71067   0.15058   0.82968   0.00000  Uiso   1.00
C20    C     0.58184   0.10703   0.78753   0.00000  Uiso   1.00
C21    C     0.01154   0.17948   0.82104   0.00000  Uiso   1.00
C22    C     0.97541   0.22509   0.76358   0.00000  Uiso   1.00
C23    C     0.96763   0.21560   0.69119   0.00000  Uiso   1.00
H24    H     0.09773   0.04105   0.86665   0.00000  Uiso   1.00
H25    H     0.46072   0.03165   0.08321   0.00000  Uiso   1.00
H26    H     0.78765   0.00107   0.78938   0.00000  Uiso   1.00
H27    H     0.05235   0.07555   0.72331   0.00000  Uiso   1.00
H28    H     0.85106   0.04468   0.32964   0.00000  Uiso   1.00
H29    H     0.43181   0.98019   0.71005   0.00000  Uiso   1.00
H30    H     0.98998   0.13726   0.57070   0.00000  Uiso   1.00
H31    H     0.00470   0.22183   0.91536   0.00000  Uiso   1.00
H32    H     0.36260   0.22235   0.13460   0.00000  Uiso   1.00
H33    H     0.68952   0.19176   0.84077   0.00000  Uiso   1.00
H34    H     0.95423   0.26625   0.77470   0.00000  Uiso   1.00
H35    H     0.77142   0.19946   0.37135   0.00000  Uiso   1.00
H36    H     0.35216   0.13496   0.75175   0.00000  Uiso   1.00
H37    H     0.91034   0.29204   0.61241   0.00000  Uiso   1.00
O38    O     0.04832   0.11914   0.49384   0.00000  Uiso   1.00
O39    O     0.18630   0.03453   0.68095   0.00000  Uiso   1.00
O40    O     0.91863   0.24061   0.49813   0.00000  Uiso   1.00
N41    N     0.78321   0.08104   0.30936   0.00000  Uiso   1.00
N42    N     0.45632   0.02074   0.73010   0.00000  Uiso   1.00
N43    N     0.97811   0.16759   0.59980   0.00000  Uiso   1.00
N44    N     0.74036   0.16432   0.33181   0.00000  Uiso   1.00
N45    N     0.41347   0.10403   0.75255   0.00000  Uiso   1.00
N46    N     0.93526   0.25087   0.62224   0.00000  Uiso   1.00
C47    C     0.92357   0.58247   0.62218   0.00000  Uiso   1.00
C48    C     0.73924   0.60243   0.49777   0.00000  Uiso   1.00
C49    C     0.56040   0.57282   0.40566   0.00000  Uiso   1.00
C50    C     0.40971   0.59832   0.29857   0.00000  Uiso   1.00
C51    C     0.11937   0.62121   0.10756   0.00000  Uiso   1.00
C52    C     0.10493   0.58581   0.65740   0.00000  Uiso   1.00
C53    C     0.23357   0.54223   0.69952   0.00000  Uiso   1.00
C54    C     0.39073   0.55374   0.72683   0.00000  Uiso   1.00
C55    C     0.66822   0.55083   0.78372   0.00000  Uiso   1.00
C56    C     0.96109   0.62628   0.69329   0.00000  Uiso   1.00
C57    C     0.96884   0.61673   0.76562   0.00000  Uiso   1.00
C58    C     0.00494   0.66231   0.82317   0.00000  Uiso   1.00
C59    C     0.05909   0.72224   0.93580   0.00000  Uiso   1.00
C60    C     0.97398   0.68041   0.59579   0.00000  Uiso   1.00
C61    C     0.76663   0.65563   0.48344   0.00000  Uiso   1.00
C62    C     0.61617   0.68118   0.37646   0.00000  Uiso   1.00
C63    C     0.43713   0.65161   0.28421   0.00000  Uiso   1.00
C64    C     0.13231   0.63901   0.64307   0.00000  Uiso   1.00
C65    C     0.28933   0.65058   0.67032   0.00000  Uiso   1.00
C66    C     0.41816   0.60703   0.71247   0.00000  Uiso   1.00
C67    C     0.98846   0.67948   0.67896   0.00000  Uiso   1.00
C68    C     0.02459   0.72509   0.73642   0.00000  Uiso   1.00
C69    C     0.03237   0.71560   0.80881   0.00000  Uiso   1.00
H70    H     0.90227   0.54105   0.63335   0.00000  Uiso   1.00
H71    H     0.53928   0.53165   0.41679   0.00000  Uiso   1.00
H72    H     0.21235   0.50107   0.71062   0.00000  Uiso   1.00
H73    H     0.94765   0.57555   0.77669   0.00000  Uiso   1.00
H74    H     0.14894   0.54468   0.17036   0.00000  Uiso   1.00
H75    H     0.56819   0.48019   0.78995   0.00000  Uiso   1.00
H76    H     0.01002   0.63726   0.92930   0.00000  Uiso   1.00
H77    H     0.99530   0.72183   0.58464   0.00000  Uiso   1.00
H78    H     0.63740   0.72235   0.36540   0.00000  Uiso   1.00
H79    H     0.31048   0.69176   0.65923   0.00000  Uiso   1.00
H80    H     0.04577   0.76625   0.72530   0.00000  Uiso   1.00
H81    H     0.22858   0.69946   0.12865   0.00000  Uiso   1.00
H82    H     0.64784   0.63496   0.74825   0.00000  Uiso   1.00
H83    H     0.08966   0.79204   0.88759   0.00000  Uiso   1.00
O84    O     0.95168   0.61914   0.00616   0.00000  Uiso   1.00
O85    O     0.81370   0.53453   0.81905   0.00000  Uiso   1.00
O86    O     0.08137   0.74061   0.00187   0.00000  Uiso   1.00
N87    N     0.21679   0.58104   0.19064   0.00000  Uiso   1.00
N88    N     0.54368   0.52074   0.76990   0.00000  Uiso   1.00
N89    N     0.02189   0.66759   0.90020   0.00000  Uiso   1.00
N90    N     0.25964   0.66432   0.16819   0.00000  Uiso   1.00
N91    N     0.58653   0.60403   0.74745   0.00000  Uiso   1.00
N92    N     0.06474   0.75087   0.87776   0.00000  Uiso   1.00
C93    C     0.92357   0.91753   0.12218   0.00000  Uiso   1.00
C94    C     0.73924   0.89757   0.99777   0.00000  Uiso   1.00
C95    C     0.56040   0.92718   0.90566   0.00000  Uiso   1.00
C96    C     0.40971   0.90168   0.79857   0.00000  Uiso   1.00
C97    C     0.11937   0.87879   0.60756   0.00000  Uiso   1.00
C98    C     0.10493   0.91419   0.15740   0.00000  Uiso   1.00
C99    C     0.23357   0.95777   0.19952   0.00000  Uiso   1.00
C100   C     0.39073   0.94626   0.22683   0.00000  Uiso   1.00
C101   C     0.66822   0.94917   0.28372   0.00000  Uiso   1.00
C102   C     0.96109   0.87372   0.19329   0.00000  Uiso   1.00
C103   C     0.96884   0.88327   0.26562   0.00000  Uiso   1.00
C104   C     0.00494   0.83769   0.32317   0.00000  Uiso   1.00
C105   C     0.05909   0.77776   0.43580   0.00000  Uiso   1.00
C106   C     0.97398   0.81959   0.09579   0.00000  Uiso   1.00
C107   C     0.76663   0.84437   0.98344   0.00000  Uiso   1.00
C108   C     0.61617   0.81882   0.87646   0.00000  Uiso   1.00
C109   C     0.43713   0.84839   0.78421   0.00000  Uiso   1.00
C110   C     0.13231   0.86099   0.14307   0.00000  Uiso   1.00
C111   C     0.28933   0.84942   0.17032   0.00000  Uiso   1.00
C112   C     0.41816   0.89297   0.21247   0.00000  Uiso   1.00
C113   C     0.98846   0.82052   0.17896   0.00000  Uiso   1.00
C114   C     0.02459   0.77491   0.23642   0.00000  Uiso   1.00
C115   C     0.03237   0.78440   0.30881   0.00000  Uiso   1.00
H116   H     0.90227   0.95895   0.13335   0.00000  Uiso   1.00
H117   H     0.53928   0.96835   0.91679   0.00000  Uiso   1.00
H118   H     0.21235   0.99893   0.21062   0.00000  Uiso   1.00
H119   H     0.94765   0.92445   0.27669   0.00000  Uiso   1.00
H120   H     0.14894   0.95532   0.67036   0.00000  Uiso   1.00
H121   H     0.56819   0.01981   0.28995   0.00000  Uiso   1.00
H122   H     0.01002   0.86274   0.42930   0.00000  Uiso   1.00
H123   H     0.99530   0.77817   0.08464   0.00000  Uiso   1.00
H124   H     0.63740   0.77765   0.86540   0.00000  Uiso   1.00
H125   H     0.31048   0.80824   0.15923   0.00000  Uiso   1.00
H126   H     0.04577   0.73375   0.22530   0.00000  Uiso   1.00
H127   H     0.22858   0.80054   0.62865   0.00000  Uiso   1.00
H128   H     0.64784   0.86504   0.24825   0.00000  Uiso   1.00
H129   H     0.08966   0.70796   0.38759   0.00000  Uiso   1.00
O130   O     0.95168   0.88086   0.50616   0.00000  Uiso   1.00
O131   O     0.81370   0.96547   0.31905   0.00000  Uiso   1.00
O132   O     0.08137   0.75939   0.50187   0.00000  Uiso   1.00
N133   N     0.21679   0.91896   0.69064   0.00000  Uiso   1.00
N134   N     0.54368   0.97926   0.26990   0.00000  Uiso   1.00
N135   N     0.02189   0.83241   0.40020   0.00000  Uiso   1.00
N136   N     0.25964   0.83568   0.66819   0.00000  Uiso   1.00
N137   N     0.58653   0.89597   0.24745   0.00000  Uiso   1.00
N138   N     0.06474   0.74913   0.37776   0.00000  Uiso   1.00
C139   C     0.07643   0.41753   0.37782   0.00000  Uiso   1.00
C140   C     0.26076   0.39757   0.50223   0.00000  Uiso   1.00
C141   C     0.43960   0.42718   0.59434   0.00000  Uiso   1.00
C142   C     0.59029   0.40168   0.70143   0.00000  Uiso   1.00
C143   C     0.88063   0.37879   0.89244   0.00000  Uiso   1.00
C144   C     0.89507   0.41419   0.34260   0.00000  Uiso   1.00
C145   C     0.76643   0.45777   0.30048   0.00000  Uiso   1.00
C146   C     0.60927   0.44626   0.27317   0.00000  Uiso   1.00
C147   C     0.33178   0.44917   0.21628   0.00000  Uiso   1.00
C148   C     0.03891   0.37372   0.30671   0.00000  Uiso   1.00
C149   C     0.03116   0.38327   0.23438   0.00000  Uiso   1.00
C150   C     0.99506   0.33769   0.17683   0.00000  Uiso   1.00
C151   C     0.94091   0.27776   0.06420   0.00000  Uiso   1.00
C152   C     0.02602   0.31959   0.40421   0.00000  Uiso   1.00
C153   C     0.23337   0.34437   0.51656   0.00000  Uiso   1.00
C154   C     0.38383   0.31882   0.62354   0.00000  Uiso   1.00
C155   C     0.56287   0.34839   0.71579   0.00000  Uiso   1.00
C156   C     0.86769   0.36099   0.35693   0.00000  Uiso   1.00
C157   C     0.71067   0.34942   0.32968   0.00000  Uiso   1.00
C158   C     0.58184   0.39297   0.28753   0.00000  Uiso   1.00
C159   C     0.01154   0.32052   0.32104   0.00000  Uiso   1.00
C160   C     0.97541   0.27491   0.26358   0.00000  Uiso   1.00
C161   C     0.96763   0.28440   0.19119   0.00000  Uiso   1.00
H162   H     0.09773   0.45895   0.36665   0.00000  Uiso   1.00
H163   H     0.46072   0.46835   0.58321   0.00000  Uiso   1.00
H164   H     0.78765   0.49893   0.28938   0.00000  Uiso   1.00
H165   H     0.05235   0.42445   0.22331   0.00000  Uiso   1.00
H166   H     0.85106   0.45532   0.82964   0.00000  Uiso   1.00
H167   H     0.43181   0.51981   0.21005   0.00000  Uiso   1.00
H168   H     0.98998   0.36274   0.07070   0.00000  Uiso   1.00
H169   H     0.00470   0.27817   0.41536   0.00000  Uiso   1.00
H170   H     0.36260   0.27765   0.63460   0.00000  Uiso   1.00
H171   H     0.68952   0.30824   0.34077   0.00000  Uiso   1.00
H172   H     0.95423   0.23375   0.27470   0.00000  Uiso   1.00
H173   H     0.77142   0.30054   0.87135   0.00000  Uiso   1.00
H174   H     0.35216   0.36504   0.25175   0.00000  Uiso   1.00
H175   H     0.91034   0.20796   0.11241   0.00000  Uiso   1.00
O176   O     0.04832   0.38086   0.99384   0.00000  Uiso   1.00
O177   O     0.18630   0.46547   0.18095   0.00000  Uiso   1.00
O178   O     0.91863   0.25939   0.99813   0.00000  Uiso   1.00
N179   N     0.78321   0.41896   0.80936   0.00000  Uiso   1.00
N180   N     0.45632   0.47926   0.23010   0.00000  Uiso   1.00
N181   N     0.97811   0.33241   0.09980   0.00000  Uiso   1.00
N182   N     0.74036   0.33568   0.83181   0.00000  Uiso   1.00
N183   N     0.41347   0.39597   0.25255   0.00000  Uiso   1.00
N184   N     0.93526   0.24913   0.12224   0.00000  Uiso   1.00
