data_job_06611
_audit_creation_date              2018-12-19
_audit_creation_method            'Materials Studio'
_symmetry_space_group_name_H-M    'P1'
_symmetry_Int_Tables_number       1
_symmetry_cell_setting            triclinic
loop_
_symmetry_equiv_pos_as_xyz
  x,y,z
_cell_length_a                    20.2787
_cell_length_b                    20.9594
_cell_length_c                    21.4709
_cell_angle_alpha                 80.5962
_cell_angle_beta                  89.2050
_cell_angle_gamma                 64.6557
loop_
_atom_site_label
_atom_site_type_symbol
_atom_site_fract_x
_atom_site_fract_y
_atom_site_fract_z
_atom_site_U_iso_or_equiv
_atom_site_adp_type
_atom_site_occupancy
C1     C     0.35619   0.67800   0.06393   0.00000  Uiso   1.00
C2     C     0.29436   0.72494   0.01402   0.00000  Uiso   1.00
C3     C     0.29996   0.73137   0.94902   0.00000  Uiso   1.00
C4     C     0.23712   0.77710   0.91131   0.00000  Uiso   1.00
C5     C     0.15117   0.84426   0.82979   0.00000  Uiso   1.00
C6     C     0.36175   0.72800   0.10567   0.00000  Uiso   1.00
C7     C     0.42402   0.73700   0.11775   0.00000  Uiso   1.00
C8     C     0.41790   0.78530   0.15720   0.00000  Uiso   1.00
C9     C     0.43658   0.85717   0.21801   0.00000  Uiso   1.00
C10    C     0.32914   0.62886   0.10543   0.00000  Uiso   1.00
C11    C     0.36401   0.55449   0.11731   0.00000  Uiso   1.00
C12    C     0.33045   0.51932   0.15658   0.00000  Uiso   1.00
C13    C     0.29851   0.43725   0.21701   0.00000  Uiso   1.00
C14    C     0.23461   0.74777   0.11255   0.00000  Uiso   1.00
C15    C     0.22832   0.76284   0.04043   0.00000  Uiso   1.00
C16    C     0.16545   0.80857   0.00281   0.00000  Uiso   1.00
C17    C     0.17096   0.81506   0.93777   0.00000  Uiso   1.00
C18    C     0.29571   0.76590   0.13208   0.00000  Uiso   1.00
C19    C     0.28950   0.81419   0.17153   0.00000  Uiso   1.00
C20    C     0.35174   0.82327   0.18366   0.00000  Uiso   1.00
C21    C     0.26310   0.66676   0.13184   0.00000  Uiso   1.00
C22    C     0.22949   0.63169   0.17110   0.00000  Uiso   1.00
C23    C     0.26429   0.55728   0.18303   0.00000  Uiso   1.00
H24    H     0.40761   0.64849   0.04338   0.00000  Uiso   1.00
H25    H     0.35108   0.70204   0.92860   0.00000  Uiso   1.00
H26    H     0.47512   0.70766   0.09731   0.00000  Uiso   1.00
H27    H     0.41511   0.52519   0.09687   0.00000  Uiso   1.00
H28    H     0.25930   0.77814   0.81300   0.00000  Uiso   1.00
H29    H     0.52084   0.78998   0.16874   0.00000  Uiso   1.00
H30    H     0.39431   0.40518   0.16781   0.00000  Uiso   1.00
H31    H     0.18319   0.77727   0.13311   0.00000  Uiso   1.00
H32    H     0.11435   0.83789   0.02326   0.00000  Uiso   1.00
H33    H     0.23839   0.84351   0.19196   0.00000  Uiso   1.00
H34    H     0.17838   0.66103   0.19152   0.00000  Uiso   1.00
H35    H     0.06716   0.88840   0.88982   0.00000  Uiso   1.00
H36    H     0.32870   0.90023   0.24557   0.00000  Uiso   1.00
H37    H     0.20218   0.51545   0.24464   0.00000  Uiso   1.00
O38    O     0.12200   0.87084   0.77752   0.00000  Uiso   1.00
O39    O     0.46513   0.88635   0.24425   0.00000  Uiso   1.00
O40    O     0.29913   0.38152   0.24304   0.00000  Uiso   1.00
N41    N     0.22353   0.79576   0.84615   0.00000  Uiso   1.00
N42    N     0.46804   0.80683   0.17874   0.00000  Uiso   1.00
N43    N     0.34976   0.44709   0.17789   0.00000  Uiso   1.00
N44    N     0.12014   0.85509   0.88749   0.00000  Uiso   1.00
N45    N     0.36466   0.86616   0.22008   0.00000  Uiso   1.00
N46    N     0.24638   0.50642   0.21923   0.00000  Uiso   1.00
C47    C     0.68060   0.03034   0.59887   0.00000  Uiso   1.00
C48    C     0.75800   0.01102   0.62396   0.00000  Uiso   1.00
C49    C     0.80140   0.04459   0.60047   0.00000  Uiso   1.00
C50    C     0.87062   0.01898   0.62994   0.00000  Uiso   1.00
C51    C     0.98703   0.99766   0.66111   0.00000  Uiso   1.00
C52    C     0.68224   0.96177   0.58204   0.00000  Uiso   1.00
C53    C     0.66193   0.95394   0.52332   0.00000  Uiso   1.00
C54    C     0.66737   0.88687   0.51751   0.00000  Uiso   1.00
C55    C     0.66610   0.78910   0.48361   0.00000  Uiso   1.00
C56    C     0.63294   0.04614   0.65508   0.00000  Uiso   1.00
C57    C     0.57116   0.10923   0.65777   0.00000  Uiso   1.00
C58    C     0.53508   0.11319   0.71346   0.00000  Uiso   1.00
C59    C     0.45727   0.14641   0.79297   0.00000  Uiso   1.00
C60    C     0.72635   0.92516   0.69297   0.00000  Uiso   1.00
C61    C     0.78285   0.95389   0.67507   0.00000  Uiso   1.00
C62    C     0.85202   0.92823   0.70458   0.00000  Uiso   1.00
C63    C     0.89552   0.96176   0.68115   0.00000  Uiso   1.00
C64    C     0.70708   0.90465   0.63315   0.00000  Uiso   1.00
C65    C     0.71255   0.83758   0.62743   0.00000  Uiso   1.00
C66    C     0.69226   0.82964   0.56871   0.00000  Uiso   1.00
C67    C     0.65778   0.98901   0.70620   0.00000  Uiso   1.00
C68    C     0.62179   0.99287   0.76189   0.00000  Uiso   1.00
C69    C     0.55998   0.05596   0.76466   0.00000  Uiso   1.00
H70    H     0.66126   0.07481   0.55907   0.00000  Uiso   1.00
H71    H     0.78215   0.08879   0.56091   0.00000  Uiso   1.00
H72    H     0.64270   0.99816   0.48377   0.00000  Uiso   1.00
H73    H     0.55195   0.15343   0.61821   0.00000  Uiso   1.00
H74    H     0.92716   0.07909   0.58548   0.00000  Uiso   1.00
H75    H     0.63308   0.88799   0.42283   0.00000  Uiso   1.00
H76    H     0.44172   0.21540   0.70632   0.00000  Uiso   1.00
H77    H     0.74570   0.88069   0.73276   0.00000  Uiso   1.00
H78    H     0.87123   0.88402   0.74414   0.00000  Uiso   1.00
H79    H     0.73178   0.79339   0.66699   0.00000  Uiso   1.00
H80    H     0.64103   0.94865   0.80143   0.00000  Uiso   1.00
H81    H     0.99946   0.91289   0.73419   0.00000  Uiso   1.00
H82    H     0.70538   0.72179   0.57154   0.00000  Uiso   1.00
H83    H     0.51402   0.04920   0.85503   0.00000  Uiso   1.00
O84    O     0.04438   0.00167   0.66417   0.00000  Uiso   1.00
O85    O     0.65854   0.75096   0.45078   0.00000  Uiso   1.00
O86    O     0.40749   0.18052   0.82271   0.00000  Uiso   1.00
N87    N     0.92694   0.03952   0.61893   0.00000  Uiso   1.00
N88    N     0.65201   0.86085   0.46686   0.00000  Uiso   1.00
N89    N     0.47309   0.16695   0.73189   0.00000  Uiso   1.00
N90    N     0.96585   0.95009   0.69895   0.00000  Uiso   1.00
N91    N     0.69091   0.77142   0.54687   0.00000  Uiso   1.00
N92    N     0.51200   0.07752   0.81191   0.00000  Uiso   1.00
C93    C     0.03628   0.40148   0.85925   0.00000  Uiso   1.00
C94    C     0.08684   0.32419   0.85383   0.00000  Uiso   1.00
C95    C     0.15799   0.29988   0.83504   0.00000  Uiso   1.00
C96    C     0.19519   0.22719   0.83313   0.00000  Uiso   1.00
C97    C     0.27868   0.11428   0.82220   0.00000  Uiso   1.00
C98    C     0.96767   0.42184   0.81742   0.00000  Uiso   1.00
C99    C     0.93863   0.47965   0.76802   0.00000  Uiso   1.00
C100   C     0.87549   0.48917   0.73547   0.00000  Uiso   1.00
C101   C     0.77395   0.52790   0.66805   0.00000  Uiso   1.00
C102   C     0.01288   0.39955   0.92707   0.00000  Uiso   1.00
C103   C     0.02182   0.43864   0.96987   0.00000  Uiso   1.00
C104   C     0.99673   0.42940   0.02963   0.00000  Uiso   1.00
C105   C     0.96538   0.43353   0.13246   0.00000  Uiso   1.00
C106   C     0.97580   0.31560   0.88927   0.00000  Uiso   1.00
C107   C     0.05399   0.27755   0.87013   0.00000  Uiso   1.00
C108   C     0.09108   0.20487   0.86826   0.00000  Uiso   1.00
C109   C     0.16228   0.18046   0.84947   0.00000  Uiso   1.00
C110   C     0.93482   0.37520   0.83372   0.00000  Uiso   1.00
C111   C     0.87172   0.38464   0.80124   0.00000  Uiso   1.00
C112   C     0.84259   0.44244   0.75181   0.00000  Uiso   1.00
C113   C     0.98003   0.35291   0.94338   0.00000  Uiso   1.00
C114   C     0.95492   0.34362   0.00309   0.00000  Uiso   1.00
C115   C     0.96382   0.38268   0.04597   0.00000  Uiso   1.00
H116   H     0.06185   0.43779   0.84655   0.00000  Uiso   1.00
H117   H     0.18339   0.33599   0.82241   0.00000  Uiso   1.00
H118   H     0.96405   0.51574   0.75541   0.00000  Uiso   1.00
H119   H     0.04724   0.47473   0.95723   0.00000  Uiso   1.00
H120   H     0.30365   0.20257   0.80283   0.00000  Uiso   1.00
H121   H     0.84115   0.58159   0.66157   0.00000  Uiso   1.00
H122   H     0.01657   0.49510   0.08713   0.00000  Uiso   1.00
H123   H     0.95022   0.27929   0.90197   0.00000  Uiso   1.00
H124   H     0.06565   0.16879   0.88088   0.00000  Uiso   1.00
H125   H     0.84631   0.34854   0.81388   0.00000  Uiso   1.00
H126   H     0.92950   0.30752   0.01569   0.00000  Uiso   1.00
H127   H     0.20808   0.06686   0.85028   0.00000  Uiso   1.00
H128   H     0.74558   0.44588   0.70902   0.00000  Uiso   1.00
H129   H     0.92100   0.35939   0.13458   0.00000  Uiso   1.00
O130   O     0.33380   0.06488   0.81166   0.00000  Uiso   1.00
O131   O     0.72702   0.56215   0.62635   0.00000  Uiso   1.00
O132   O     0.95716   0.44868   0.18467   0.00000  Uiso   1.00
N133   N     0.26532   0.18579   0.81690   0.00000  Uiso   1.00
N134   N     0.83292   0.54014   0.68483   0.00000  Uiso   1.00
N135   N     0.99690   0.45930   0.08269   0.00000  Uiso   1.00
N136   N     0.21390   0.11276   0.84244   0.00000  Uiso   1.00
N137   N     0.78150   0.46712   0.71036   0.00000  Uiso   1.00
N138   N     0.94548   0.38628   0.10822   0.00000  Uiso   1.00
C139   C     0.59768   0.22133   0.14553   0.00000  Uiso   1.00
C140   C     0.67396   0.18768   0.17853   0.00000  Uiso   1.00
C141   C     0.73290   0.12710   0.16554   0.00000  Uiso   1.00
C142   C     0.79810   0.10483   0.20095   0.00000  Uiso   1.00
C143   C     0.91564   0.04697   0.24507   0.00000  Uiso   1.00
C144   C     0.58139   0.29907   0.11931   0.00000  Uiso   1.00
C145   C     0.56249   0.33214   0.05652   0.00000  Uiso   1.00
C146   C     0.54975   0.40364   0.04208   0.00000  Uiso   1.00
C147   C     0.52352   0.51872   0.99426   0.00000  Uiso   1.00
C148   C     0.54522   0.22397   0.19767   0.00000  Uiso   1.00
C149   C     0.49588   0.19392   0.20077   0.00000  Uiso   1.00
C150   C     0.45267   0.20222   0.25231   0.00000  Uiso   1.00
C151   C     0.37028   0.20070   0.32617   0.00000  Uiso   1.00
C152   C     0.60866   0.28952   0.23152   0.00000  Uiso   1.00
C153   C     0.67992   0.22472   0.22524   0.00000  Uiso   1.00
C154   C     0.74505   0.20254   0.26068   0.00000  Uiso   1.00
C155   C     0.80407   0.14193   0.24775   0.00000  Uiso   1.00
C156   C     0.58735   0.33611   0.16601   0.00000  Uiso   1.00
C157   C     0.57463   0.40758   0.15167   0.00000  Uiso   1.00
C158   C     0.55572   0.44075   0.08888   0.00000  Uiso   1.00
C159   C     0.55118   0.26101   0.24439   0.00000  Uiso   1.00
C160   C     0.50803   0.26936   0.29592   0.00000  Uiso   1.00
C161   C     0.45865   0.23932   0.29910   0.00000  Uiso   1.00
H162   H     0.59304   0.19250   0.10916   0.00000  Uiso   1.00
H163   H     0.72827   0.09845   0.12938   0.00000  Uiso   1.00
H164   H     0.55787   0.30346   0.02038   0.00000  Uiso   1.00
H165   H     0.49128   0.16527   0.16462   0.00000  Uiso   1.00
H166   H     0.88083   0.01054   0.17238   0.00000  Uiso   1.00
H167   H     0.52152   0.44282   0.94256   0.00000  Uiso   1.00
H168   H     0.38110   0.15140   0.24670   0.00000  Uiso   1.00
H169   H     0.61330   0.31836   0.26789   0.00000  Uiso   1.00
H170   H     0.74964   0.23121   0.29683   0.00000  Uiso   1.00
H171   H     0.57925   0.43622   0.18783   0.00000  Uiso   1.00
H172   H     0.51266   0.29802   0.33206   0.00000  Uiso   1.00
H173   H     0.89818   0.11829   0.30829   0.00000  Uiso   1.00
H174   H     0.53887   0.55057   0.07846   0.00000  Uiso   1.00
H175   H     0.39845   0.25915   0.38261   0.00000  Uiso   1.00
O176   O     0.97884   0.00483   0.25649   0.00000  Uiso   1.00
O177   O     0.50742   0.57197   0.95498   0.00000  Uiso   1.00
O178   O     0.32320   0.18963   0.35401   0.00000  Uiso   1.00
N179   N     0.86620   0.04785   0.20041   0.00000  Uiso   1.00
N180   N     0.53027   0.45200   0.98553   0.00000  Uiso   1.00
N181   N     0.39898   0.17957   0.26987   0.00000  Uiso   1.00
N182   N     0.87553   0.10583   0.27354   0.00000  Uiso   1.00
N183   N     0.53961   0.50998   0.05866   0.00000  Uiso   1.00
N184   N     0.40832   0.23755   0.34300   0.00000  Uiso   1.00
C185   C     0.23778   0.60792   0.47574   0.00000  Uiso   1.00
C186   C     0.22257   0.68303   0.44154   0.00000  Uiso   1.00
C187   C     0.26744   0.70028   0.39950   0.00000  Uiso   1.00
C188   C     0.24383   0.77212   0.37320   0.00000  Uiso   1.00
C189   C     0.23026   0.88074   0.31776   0.00000  Uiso   1.00
C190   C     0.17191   0.59554   0.45876   0.00000  Uiso   1.00
C191   C     0.17419   0.53923   0.43120   0.00000  Uiso   1.00
C192   C     0.10792   0.53741   0.41939   0.00000  Uiso   1.00
C193   C     0.01571   0.51017   0.39073   0.00000  Uiso   1.00
C194   C     0.23542   0.61159   0.54613   0.00000  Uiso   1.00
C195   C     0.29109   0.56875   0.59204   0.00000  Uiso   1.00
C196   C     0.27829   0.58044   0.65380   0.00000  Uiso   1.00
C197   C     0.28469   0.57811   0.76079   0.00000  Uiso   1.00
C198   C     0.11604   0.70481   0.50379   0.00000  Uiso   1.00
C199   C     0.15645   0.73566   0.45678   0.00000  Uiso   1.00
C200   C     0.13276   0.80749   0.43054   0.00000  Uiso   1.00
C201   C     0.17759   0.82485   0.38846   0.00000  Uiso   1.00
C202   C     0.10579   0.64816   0.47400   0.00000  Uiso   1.00
C203   C     0.03951   0.64643   0.46223   0.00000  Uiso   1.00
C204   C     0.04168   0.59013   0.43466   0.00000  Uiso   1.00
C205   C     0.16930   0.66422   0.56137   0.00000  Uiso   1.00
C206   C     0.15641   0.67596   0.62307   0.00000  Uiso   1.00
C207   C     0.21205   0.63316   0.66906   0.00000  Uiso   1.00
H208   H     0.28925   0.56694   0.46387   0.00000  Uiso   1.00
H209   H     0.31861   0.65954   0.38772   0.00000  Uiso   1.00
H210   H     0.22537   0.49850   0.41942   0.00000  Uiso   1.00
H211   H     0.34225   0.52803   0.58023   0.00000  Uiso   1.00
H212   H     0.32198   0.78540   0.30998   0.00000  Uiso   1.00
H213   H     0.12538   0.44584   0.37684   0.00000  Uiso   1.00
H214   H     0.37186   0.50811   0.71595   0.00000  Uiso   1.00
H215   H     0.06456   0.74579   0.51565   0.00000  Uiso   1.00
H216   H     0.08159   0.84820   0.44234   0.00000  Uiso   1.00
H217   H     0.98835   0.68716   0.47404   0.00000  Uiso   1.00
H218   H     0.10524   0.71669   0.63485   0.00000  Uiso   1.00
H219   H     0.12960   0.93853   0.35431   0.00000  Uiso   1.00
H220   H     0.93301   0.59896   0.42118   0.00000  Uiso   1.00
H221   H     0.17949   0.66123   0.76028   0.00000  Uiso   1.00
O222   O     0.24103   0.92611   0.28296   0.00000  Uiso   1.00
O223   O     0.98311   0.48060   0.37070   0.00000  Uiso   1.00
O224   O     0.30649   0.56230   0.81559   0.00000  Uiso   1.00
N225   N     0.27437   0.80739   0.33049   0.00000  Uiso   1.00
N226   N     0.09057   0.48992   0.39299   0.00000  Uiso   1.00
N227   N     0.32100   0.54812   0.71002   0.00000  Uiso   1.00
N228   N     0.17086   0.88979   0.35434   0.00000  Uiso   1.00
N229   N     0.98705   0.57232   0.41684   0.00000  Uiso   1.00
N230   N     0.21748   0.63052   0.73388   0.00000  Uiso   1.00
C231   C     0.12357   0.27245   0.49126   0.00000  Uiso   1.00
C232   C     0.09460   0.25537   0.43406   0.00000  Uiso   1.00
C233   C     0.05002   0.30527   0.38376   0.00000  Uiso   1.00
C234   C     0.02943   0.27885   0.33601   0.00000  Uiso   1.00
C235   C     0.98095   0.26353   0.24680   0.00000  Uiso   1.00
C236   C     0.20658   0.23117   0.49369   0.00000  Uiso   1.00
C237   C     0.25614   0.26073   0.49355   0.00000  Uiso   1.00
C238   C     0.32981   0.21392   0.49601   0.00000  Uiso   1.00
C239   C     0.45518   0.16103   0.49943   0.00000  Uiso   1.00
C240   C     0.09882   0.23784   0.54920   0.00000  Uiso   1.00
C241   C     0.05779   0.27300   0.59573   0.00000  Uiso   1.00
C242   C     0.04076   0.23181   0.64493   0.00000  Uiso   1.00
C243   C     0.99881   0.18927   0.73453   0.00000  Uiso   1.00
C244   C     0.16629   0.13678   0.49590   0.00000  Uiso   1.00
C245   C     0.11781   0.18168   0.43658   0.00000  Uiso   1.00
C246   C     0.09728   0.15517   0.38890   0.00000  Uiso   1.00
C247   C     0.05267   0.20502   0.33854   0.00000  Uiso   1.00
C248   C     0.22978   0.15748   0.49622   0.00000  Uiso   1.00
C249   C     0.30340   0.11062   0.49868   0.00000  Uiso   1.00
C250   C     0.35306   0.14009   0.49854   0.00000  Uiso   1.00
C251   C     0.12202   0.16415   0.55172   0.00000  Uiso   1.00
C252   C     0.10505   0.12289   0.60086   0.00000  Uiso   1.00
C253   C     0.06400   0.15798   0.64746   0.00000  Uiso   1.00
H254   H     0.10551   0.32983   0.48930   0.00000  Uiso   1.00
H255   H     0.03208   0.36230   0.38183   0.00000  Uiso   1.00
H256   H     0.23817   0.31775   0.49161   0.00000  Uiso   1.00
H257   H     0.03985   0.33003   0.59377   0.00000  Uiso   1.00
H258   H     0.96092   0.36580   0.26378   0.00000  Uiso   1.00
H259   H     0.39547   0.27188   0.49527   0.00000  Uiso   1.00
H260   H     0.97728   0.29775   0.71070   0.00000  Uiso   1.00
H261   H     0.18435   0.07940   0.49786   0.00000  Uiso   1.00
H262   H     0.11524   0.09814   0.39086   0.00000  Uiso   1.00
H263   H     0.32133   0.05359   0.50064   0.00000  Uiso   1.00
H264   H     0.12301   0.06587   0.60280   0.00000  Uiso   1.00
H265   H     0.02842   0.15140   0.27111   0.00000  Uiso   1.00
H266   H     0.46297   0.05747   0.50261   0.00000  Uiso   1.00
H267   H     0.04478   0.08335   0.71803   0.00000  Uiso   1.00
O268   O     0.94780   0.27544   0.19689   0.00000  Uiso   1.00
O269   O     0.51791   0.15221   0.50061   0.00000  Uiso   1.00
O270   O     0.96925   0.18616   0.78324   0.00000  Uiso   1.00
N271   N     0.98628   0.31277   0.28019   0.00000  Uiso   1.00
N272   N     0.39255   0.22496   0.49662   0.00000  Uiso   1.00
N273   N     0.00160   0.24915   0.69803   0.00000  Uiso   1.00
N274   N     0.02260   0.19740   0.28414   0.00000  Uiso   1.00
N275   N     0.42888   0.10959   0.50056   0.00000  Uiso   1.00
N276   N     0.03792   0.13378   0.70198   0.00000  Uiso   1.00
C277   C     0.58567   0.35751   0.83592   0.00000  Uiso   1.00
C278   C     0.64245   0.31748   0.89123   0.00000  Uiso   1.00
C279   C     0.67943   0.34643   0.92274   0.00000  Uiso   1.00
C280   C     0.72924   0.30100   0.97213   0.00000  Uiso   1.00
C281   C     0.81551   0.24978   0.05542   0.00000  Uiso   1.00
C282   C     0.51686   0.34939   0.85603   0.00000  Uiso   1.00
C283   C     0.44823   0.40517   0.85794   0.00000  Uiso   1.00
C284   C     0.39231   0.38660   0.87769   0.00000  Uiso   1.00
C285   C     0.28357   0.38492   0.90629   0.00000  Uiso   1.00
C286   C     0.61326   0.31509   0.78220   0.00000  Uiso   1.00
C287   C     0.62568   0.34202   0.72202   0.00000  Uiso   1.00
C288   C     0.65091   0.29458   0.67959   0.00000  Uiso   1.00
C289   C     0.69186   0.23963   0.59355   0.00000  Uiso   1.00
C290   C     0.60838   0.22536   0.86759   0.00000  Uiso   1.00
C291   C     0.65478   0.24571   0.90843   0.00000  Uiso   1.00
C292   C     0.70455   0.20022   0.95778   0.00000  Uiso   1.00
C293   C     0.74160   0.22909   0.98936   0.00000  Uiso   1.00
C294   C     0.52918   0.27762   0.87324   0.00000  Uiso   1.00
C295   C     0.47335   0.25896   0.89298   0.00000  Uiso   1.00
C296   C     0.40466   0.31469   0.89492   0.00000  Uiso   1.00
C297   C     0.62560   0.24331   0.79940   0.00000  Uiso   1.00
C298   C     0.65080   0.19581   0.75706   0.00000  Uiso   1.00
C299   C     0.66326   0.22267   0.69683   0.00000  Uiso   1.00
H300   H     0.57607   0.41339   0.82253   0.00000  Uiso   1.00
H301   H     0.66987   0.40198   0.90942   0.00000  Uiso   1.00
H302   H     0.43871   0.46071   0.84462   0.00000  Uiso   1.00
H303   H     0.61613   0.39757   0.70872   0.00000  Uiso   1.00
H304   H     0.77929   0.35769   0.01336   0.00000  Uiso   1.00
H305   H     0.29186   0.48152   0.87671   0.00000  Uiso   1.00
H306   H     0.66599   0.34838   0.59013   0.00000  Uiso   1.00
H307   H     0.61797   0.16947   0.88098   0.00000  Uiso   1.00
H308   H     0.71408   0.14468   0.97109   0.00000  Uiso   1.00
H309   H     0.48291   0.20341   0.90629   0.00000  Uiso   1.00
H310   H     0.66034   0.14027   0.77039   0.00000  Uiso   1.00
H311   H     0.81516   0.14885   0.06341   0.00000  Uiso   1.00
H312   H     0.32773   0.27268   0.92675   0.00000  Uiso   1.00
H313   H     0.70187   0.13954   0.64018   0.00000  Uiso   1.00
O314   O     0.85967   0.24136   0.09662   0.00000  Uiso   1.00
O315   O     0.22018   0.40383   0.91732   0.00000  Uiso   1.00
O316   O     0.71104   0.22915   0.54135   0.00000  Uiso   1.00
N317   N     0.77455   0.31193   0.01277   0.00000  Uiso   1.00
N318   N     0.31884   0.42771   0.88501   0.00000  Uiso   1.00
N319   N     0.66860   0.30324   0.61709   0.00000  Uiso   1.00
N320   N     0.79386   0.19956   0.03970   0.00000  Uiso   1.00
N321   N     0.33814   0.31534   0.91194   0.00000  Uiso   1.00
N322   N     0.68791   0.19087   0.64402   0.00000  Uiso   1.00
C323   C     0.23305   0.10270   0.14989   0.00000  Uiso   1.00
C324   C     0.16458   0.10262   0.12151   0.00000  Uiso   1.00
C325   C     0.13621   0.05377   0.14228   0.00000  Uiso   1.00
C326   C     0.07308   0.06285   0.11003   0.00000  Uiso   1.00
C327   C     0.97183   0.05423   0.07377   0.00000  Uiso   1.00
C328   C     0.20917   0.17649   0.16791   0.00000  Uiso   1.00
C329   C     0.21831   0.18975   0.22769   0.00000  Uiso   1.00
C330   C     0.19272   0.26103   0.23449   0.00000  Uiso   1.00
C331   C     0.16075   0.36710   0.27026   0.00000  Uiso   1.00
C332   C     0.28314   0.09959   0.09569   0.00000  Uiso   1.00
C333   C     0.35449   0.04819   0.09475   0.00000  Uiso   1.00
C334   C     0.39119   0.05472   0.04076   0.00000  Uiso   1.00
C335   C     0.47407   0.04138   0.96439   0.00000  Uiso   1.00
C336   C     0.17137   0.20570   0.05568   0.00000  Uiso   1.00
C337   C     0.13107   0.15857   0.07034   0.00000  Uiso   1.00
C338   C     0.06797   0.16772   0.03805   0.00000  Uiso   1.00
C339   C     0.03952   0.11889   0.05877   0.00000  Uiso   1.00
C340   C     0.17567   0.23244   0.11674   0.00000  Uiso   1.00
C341   C     0.15006   0.30371   0.12346   0.00000  Uiso   1.00
C342   C     0.15916   0.31707   0.18323   0.00000  Uiso   1.00
C343   C     0.24964   0.15553   0.04452   0.00000  Uiso   1.00
C344   C     0.28624   0.16215   0.99052   0.00000  Uiso   1.00
C345   C     0.35762   0.11077   0.98950   0.00000  Uiso   1.00
H346   H     0.25914   0.05915   0.18972   0.00000  Uiso   1.00
H347   H     0.16215   0.01048   0.18188   0.00000  Uiso   1.00
H348   H     0.24424   0.14645   0.26727   0.00000  Uiso   1.00
H349   H     0.38040   0.00490   0.13435   0.00000  Uiso   1.00
H350   H     0.03984   0.98121   0.15063   0.00000  Uiso   1.00
H351   H     0.21295   0.26790   0.33068   0.00000  Uiso   1.00
H352   H     0.50006   0.96943   0.05040   0.00000  Uiso   1.00
H353   H     0.14529   0.24926   0.01584   0.00000  Uiso   1.00
H354   H     0.04205   0.21102   0.99846   0.00000  Uiso   1.00
H355   H     0.12414   0.34699   0.08385   0.00000  Uiso   1.00
H356   H     0.26030   0.20545   0.95093   0.00000  Uiso   1.00
H357   H     0.94236   0.14398   0.00176   0.00000  Uiso   1.00
H358   H     0.11547   0.43067   0.18181   0.00000  Uiso   1.00
H359   H     0.40258   0.13220   0.90153   0.00000  Uiso   1.00
O360   O     0.92523   0.03403   0.06791   0.00000  Uiso   1.00
O361   O     0.15236   0.41015   0.30413   0.00000  Uiso   1.00
O362   O     0.52904   0.01856   0.93640   0.00000  Uiso   1.00
N363   N     0.03107   0.02476   0.11798   0.00000  Uiso   1.00
N364   N     0.19291   0.29280   0.28631   0.00000  Uiso   1.00
N365   N     0.46134   0.01376   0.02428   0.00000  Uiso   1.00
N366   N     0.97862   0.11234   0.03787   0.00000  Uiso   1.00
N367   N     0.14046   0.38038   0.20621   0.00000  Uiso   1.00
N368   N     0.40889   0.10134   0.94417   0.00000  Uiso   1.00
C369   C     0.99671   0.64175   0.98160   0.00000  Uiso   1.00
C370   C     0.97240   0.71336   0.00409   0.00000  Uiso   1.00
C371   C     0.92823   0.73448   0.05380   0.00000  Uiso   1.00
C372   C     0.91222   0.80209   0.06696   0.00000  Uiso   1.00
C373   C     0.87036   0.90644   0.10728   0.00000  Uiso   1.00
C374   C     0.08004   0.60856   0.98457   0.00000  Uiso   1.00
C375   C     0.12636   0.54157   0.01786   0.00000  Uiso   1.00
C376   C     0.20096   0.52095   0.01458   0.00000  Uiso   1.00
C377   C     0.32621   0.46259   0.02455   0.00000  Uiso   1.00
C378   C     0.97205   0.65986   0.91159   0.00000  Uiso   1.00
C379   C     0.92759   0.63600   0.88352   0.00000  Uiso   1.00
C380   C     0.91130   0.65856   0.81880   0.00000  Uiso   1.00
C381   C     0.86888   0.67985   0.71547   0.00000  Uiso   1.00
C382   C     0.04684   0.72424   0.91659   0.00000  Uiso   1.00
C383   C     0.99963   0.75816   0.96878   0.00000  Uiso   1.00
C384   C     0.98369   0.82575   0.98187   0.00000  Uiso   1.00
C385   C     0.93949   0.84698   0.03159   0.00000  Uiso   1.00
C386   C     0.10727   0.65336   0.94926   0.00000  Uiso   1.00
C387   C     0.18182   0.63284   0.94593   0.00000  Uiso   1.00
C388   C     0.22824   0.56584   0.97921   0.00000  Uiso   1.00
C389   C     0.99928   0.70467   0.87628   0.00000  Uiso   1.00
C390   C     0.98305   0.72727   0.81159   0.00000  Uiso   1.00
C391   C     0.93858   0.70345   0.78343   0.00000  Uiso   1.00
H392   H     0.97552   0.60686   0.00909   0.00000  Uiso   1.00
H393   H     0.90717   0.69979   0.08112   0.00000  Uiso   1.00
H394   H     0.10527   0.50691   0.04517   0.00000  Uiso   1.00
H395   H     0.90653   0.60132   0.91086   0.00000  Uiso   1.00
H396   H     0.84343   0.82256   0.14541   0.00000  Uiso   1.00
H397   H     0.26113   0.41585   0.06961   0.00000  Uiso   1.00
H398   H     0.84206   0.61494   0.78638   0.00000  Uiso   1.00
H399   H     0.06804   0.75912   0.88909   0.00000  Uiso   1.00
H400   H     0.00477   0.86041   0.95453   0.00000  Uiso   1.00
H401   H     0.20287   0.66752   0.91860   0.00000  Uiso   1.00
H402   H     0.00413   0.76194   0.78428   0.00000  Uiso   1.00
H403   H     0.92264   0.95293   0.04268   0.00000  Uiso   1.00
H404   H     0.34035   0.54621   0.96687   0.00000  Uiso   1.00
H405   H     0.92127   0.74531   0.68364   0.00000  Uiso   1.00
O406   O     0.83976   0.95162   0.13927   0.00000  Uiso   1.00
O407   O     0.38777   0.41802   0.03981   0.00000  Uiso   1.00
O408   O     0.83796   0.67923   0.66823   0.00000  Uiso   1.00
N409   N     0.87074   0.83935   0.11224   0.00000  Uiso   1.00
N410   N     0.26127   0.45910   0.04138   0.00000  Uiso   1.00
N411   N     0.86949   0.64522   0.77658   0.00000  Uiso   1.00
N412   N     0.91336   0.90950   0.05696   0.00000  Uiso   1.00
N413   N     0.30389   0.52925   0.98610   0.00000  Uiso   1.00
N414   N     0.91211   0.71537   0.72130   0.00000  Uiso   1.00
C415   C     0.45042   0.84740   0.57446   0.00000  Uiso   1.00
C416   C     0.38711   0.87419   0.61723   0.00000  Uiso   1.00
C417   C     0.38698   0.90409   0.67036   0.00000  Uiso   1.00
C418   C     0.32373   0.92525   0.70315   0.00000  Uiso   1.00
C419   C     0.23471   0.96810   0.77258   0.00000  Uiso   1.00
C420   C     0.46741   0.76934   0.57342   0.00000  Uiso   1.00
C421   C     0.53480   0.71107   0.58971   0.00000  Uiso   1.00
C422   C     0.53914   0.64397   0.58561   0.00000  Uiso   1.00
C423   C     0.57479   0.52404   0.58698   0.00000  Uiso   1.00
C424   C     0.41992   0.88799   0.50790   0.00000  Uiso   1.00
C425   C     0.44739   0.92948   0.46909   0.00000  Uiso   1.00
C426   C     0.41176   0.96226   0.40983   0.00000  Uiso   1.00
C427   C     0.37368   0.02656   0.30946   0.00000  Uiso   1.00
C428   C     0.33831   0.83182   0.53823   0.00000  Uiso   1.00
C429   C     0.32622   0.86573   0.59755   0.00000  Uiso   1.00
C430   C     0.26295   0.88685   0.63027   0.00000  Uiso   1.00
C431   C     0.26273   0.91677   0.68344   0.00000  Uiso   1.00
C432   C     0.40652   0.76087   0.55374   0.00000  Uiso   1.00
C433   C     0.41076   0.69384   0.54962   0.00000  Uiso   1.00
C434   C     0.47814   0.63549   0.56590   0.00000  Uiso   1.00
C435   C     0.35902   0.87953   0.48822   0.00000  Uiso   1.00
C436   C     0.32335   0.91225   0.42901   0.00000  Uiso   1.00
C437   C     0.35076   0.95378   0.39011   0.00000  Uiso   1.00
H438   H     0.49783   0.85398   0.58978   0.00000  Uiso   1.00
H439   H     0.43412   0.91062   0.68557   0.00000  Uiso   1.00
H440   H     0.58191   0.71764   0.60493   0.00000  Uiso   1.00
H441   H     0.49451   0.93602   0.48433   0.00000  Uiso   1.00
H442   H     0.33665   0.96965   0.78312   0.00000  Uiso   1.00
H443   H     0.64828   0.56275   0.61305   0.00000  Uiso   1.00
H444   H     0.46398   0.02324   0.35875   0.00000  Uiso   1.00
H445   H     0.29090   0.82523   0.52290   0.00000  Uiso   1.00
H446   H     0.21584   0.88030   0.61503   0.00000  Uiso   1.00
H447   H     0.36363   0.68731   0.53439   0.00000  Uiso   1.00
H448   H     0.27623   0.90569   0.41379   0.00000  Uiso   1.00
H449   H     0.15948   0.94504   0.72586   0.00000  Uiso   1.00
H450   H     0.47112   0.53813   0.55579   0.00000  Uiso   1.00
H451   H     0.28682   0.99862   0.30149   0.00000  Uiso   1.00
O452   O     0.20243   0.99406   0.81631   0.00000  Uiso   1.00
O453   O     0.61128   0.46022   0.59318   0.00000  Uiso   1.00
O454   O     0.36949   0.06437   0.25954   0.00000  Uiso   1.00
N455   N     0.30525   0.95632   0.75699   0.00000  Uiso   1.00
N456   N     0.59660   0.57588   0.59800   0.00000  Uiso   1.00
N457   N     0.42431   0.00639   0.36024   0.00000  Uiso   1.00
N458   N     0.20991   0.94307   0.72618   0.00000  Uiso   1.00
N459   N     0.50127   0.56264   0.56719   0.00000  Uiso   1.00
N460   N     0.32898   0.99314   0.32943   0.00000  Uiso   1.00
C461   C     0.62098   0.52324   0.32895   0.00000  Uiso   1.00
C462   C     0.59005   0.47244   0.36120   0.00000  Uiso   1.00
C463   C     0.51675   0.49037   0.37024   0.00000  Uiso   1.00
C464   C     0.49957   0.43624   0.40079   0.00000  Uiso   1.00
C465   C     0.44330   0.36794   0.44774   0.00000  Uiso   1.00
C466   C     0.67732   0.52084   0.37671   0.00000  Uiso   1.00
C467   C     0.67740   0.57947   0.39877   0.00000  Uiso   1.00
C468   C     0.73370   0.56607   0.44236   0.00000  Uiso   1.00
C469   C     0.81294   0.57292   0.51334   0.00000  Uiso   1.00
C470   C     0.66399   0.48872   0.27512   0.00000  Uiso   1.00
C471   C     0.65289   0.52034   0.21178   0.00000  Uiso   1.00
C472   C     0.69798   0.47991   0.16985   0.00000  Uiso   1.00
C473   C     0.75654   0.43689   0.08311   0.00000  Uiso   1.00
C474   C     0.72082   0.39522   0.36714   0.00000  Uiso   1.00
C475   C     0.64428   0.40291   0.38195   0.00000  Uiso   1.00
C476   C     0.62721   0.34873   0.41249   0.00000  Uiso   1.00
C477   C     0.55390   0.36657   0.42157   0.00000  Uiso   1.00
C478   C     0.73155   0.45131   0.39745   0.00000  Uiso   1.00
C479   C     0.78787   0.43782   0.44101   0.00000  Uiso   1.00
C480   C     0.78803   0.49641   0.46314   0.00000  Uiso   1.00
C481   C     0.71823   0.41918   0.29586   0.00000  Uiso   1.00
C482   C     0.76335   0.37870   0.25402   0.00000  Uiso   1.00
C483   C     0.75231   0.41025   0.19062   0.00000  Uiso   1.00
H484   H     0.57876   0.57738   0.31281   0.00000  Uiso   1.00
H485   H     0.47479   0.54419   0.35419   0.00000  Uiso   1.00
H486   H     0.63543   0.63327   0.38271   0.00000  Uiso   1.00
H487   H     0.61092   0.57415   0.19574   0.00000  Uiso   1.00
H488   H     0.38345   0.47673   0.40923   0.00000  Uiso   1.00
H489   H     0.72216   0.66457   0.46935   0.00000  Uiso   1.00
H490   H     0.67048   0.53991   0.07510   0.00000  Uiso   1.00
H491   H     0.76305   0.34108   0.38329   0.00000  Uiso   1.00
H492   H     0.66919   0.29492   0.42853   0.00000  Uiso   1.00
H493   H     0.82983   0.38401   0.45705   0.00000  Uiso   1.00
H494   H     0.80532   0.32489   0.27009   0.00000  Uiso   1.00
H495   H     0.54123   0.27442   0.46958   0.00000  Uiso   1.00
H496   H     0.87995   0.46226   0.52969   0.00000  Uiso   1.00
H497   H     0.82826   0.33759   0.13544   0.00000  Uiso   1.00
O498   O     0.39728   0.34948   0.46792   0.00000  Uiso   1.00
O499   O     0.84166   0.59591   0.54677   0.00000  Uiso   1.00
O500   O     0.77385   0.43236   0.02953   0.00000  Uiso   1.00
N501   N     0.43346   0.43545   0.41721   0.00000  Uiso   1.00
N502   N     0.75013   0.61106   0.47342   0.00000  Uiso   1.00
N503   N     0.70183   0.49452   0.10484   0.00000  Uiso   1.00
N504   N     0.51836   0.32659   0.44968   0.00000  Uiso   1.00
N505   N     0.83503   0.50220   0.50589   0.00000  Uiso   1.00
N506   N     0.78673   0.38566   0.13731   0.00000  Uiso   1.00
C507   C     0.80221   0.74990   0.34109   0.00000  Uiso   1.00
C508   C     0.83535   0.77111   0.39291   0.00000  Uiso   1.00
C509   C     0.83507   0.74942   0.45750   0.00000  Uiso   1.00
C510   C     0.86824   0.77470   0.49718   0.00000  Uiso   1.00
C511   C     0.91477   0.80076   0.58131   0.00000  Uiso   1.00
C512   C     0.74802   0.81993   0.30135   0.00000  Uiso   1.00
C513   C     0.67432   0.83926   0.28896   0.00000  Uiso   1.00
C514   C     0.63398   0.90563   0.25157   0.00000  Uiso   1.00
C515   C     0.54493   0.00745   0.19352   0.00000  Uiso   1.00
C516   C     0.86395   0.71588   0.29860   0.00000  Uiso   1.00
C517   C     0.88771   0.64774   0.28387   0.00000  Uiso   1.00
C518   C     0.94496   0.62651   0.24413   0.00000  Uiso   1.00
C519   C     0.03591   0.56679   0.18180   0.00000  Uiso   1.00
C520   C     0.86162   0.83337   0.29671   0.00000  Uiso   1.00
C521   C     0.86762   0.81645   0.36880   0.00000  Uiso   1.00
C522   C     0.90080   0.84177   0.40840   0.00000  Uiso   1.00
C523   C     0.90057   0.82011   0.47303   0.00000  Uiso   1.00
C524   C     0.78029   0.86526   0.27725   0.00000  Uiso   1.00
C525   C     0.74005   0.93161   0.23986   0.00000  Uiso   1.00
C526   C     0.66630   0.95105   0.22742   0.00000  Uiso   1.00
C527   C     0.89622   0.76122   0.27449   0.00000  Uiso   1.00
C528   C     0.95344   0.74009   0.23477   0.00000  Uiso   1.00
C529   C     0.97729   0.67193   0.21998   0.00000  Uiso   1.00
H530   H     0.77708   0.71461   0.35986   0.00000  Uiso   1.00
H531   H     0.81009   0.71434   0.47614   0.00000  Uiso   1.00
H532   H     0.64936   0.80416   0.30762   0.00000  Uiso   1.00
H533   H     0.86273   0.61267   0.30253   0.00000  Uiso   1.00
H534   H     0.86089   0.73405   0.59442   0.00000  Uiso   1.00
H535   H     0.52200   0.92344   0.23908   0.00000  Uiso   1.00
H536   H     0.97191   0.51964   0.22834   0.00000  Uiso   1.00
H537   H     0.88674   0.86867   0.27794   0.00000  Uiso   1.00
H538   H     0.92577   0.87685   0.38973   0.00000  Uiso   1.00
H539   H     0.76504   0.96668   0.22121   0.00000  Uiso   1.00
H540   H     0.97840   0.77519   0.21612   0.00000  Uiso   1.00
H541   H     0.95478   0.86596   0.52429   0.00000  Uiso   1.00
H542   H     0.61588   0.05535   0.16894   0.00000  Uiso   1.00
H543   H     0.06580   0.65155   0.15821   0.00000  Uiso   1.00
O544   O     0.93151   0.80262   0.63437   0.00000  Uiso   1.00
O545   O     0.48690   0.05109   0.16816   0.00000  Uiso   1.00
O546   O     0.07717   0.52132   0.15408   0.00000  Uiso   1.00
N547   N     0.87765   0.76396   0.56258   0.00000  Uiso   1.00
N548   N     0.56080   0.94104   0.23036   0.00000  Uiso   1.00
N549   N     0.98141   0.56352   0.22031   0.00000  Uiso   1.00
N550   N     0.92817   0.83494   0.52484   0.00000  Uiso   1.00
N551   N     0.61132   0.01201   0.19262   0.00000  Uiso   1.00
N552   N     0.03193   0.63450   0.18257   0.00000  Uiso   1.00
