data_job_03505
_audit_creation_date              2018-12-19
_audit_creation_method            'Materials Studio'
_symmetry_space_group_name_H-M    'P1'
_symmetry_Int_Tables_number       1
_symmetry_cell_setting            triclinic
loop_
_symmetry_equiv_pos_as_xyz
  x,y,z
_cell_length_a                    18.0667
_cell_length_b                    21.7943
_cell_length_c                    13.8177
_cell_angle_alpha                 90.0000
_cell_angle_beta                  90.0000
_cell_angle_gamma                 90.0000
loop_
_atom_site_label
_atom_site_type_symbol
_atom_site_fract_x
_atom_site_fract_y
_atom_site_fract_z
_atom_site_U_iso_or_equiv
_atom_site_adp_type
_atom_site_occupancy
C1     C     0.98801   0.94300   0.79100   0.00000  Uiso   1.00
C2     C     0.91319   0.91117   0.78155   0.00000  Uiso   1.00
C3     C     0.86873   0.89215   0.85776   0.00000  Uiso   1.00
C4     C     0.80229   0.86389   0.83403   0.00000  Uiso   1.00
C5     C     0.68936   0.81579   0.83404   0.00000  Uiso   1.00
C6     C     0.04287   0.90359   0.73469   0.00000  Uiso   1.00
C7     C     0.10745   0.87820   0.77150   0.00000  Uiso   1.00
C8     C     0.15017   0.84357   0.70832   0.00000  Uiso   1.00
C9     C     0.23859   0.78373   0.63557   0.00000  Uiso   1.00
C10    C     0.98129   0.00304   0.73500   0.00000  Uiso   1.00
C11    C     0.99411   0.06126   0.77206   0.00000  Uiso   1.00
C12    C     0.98501   0.11035   0.70913   0.00000  Uiso   1.00
C13    C     0.97781   0.20492   0.63686   0.00000  Uiso   1.00
C14    C     0.94907   0.92666   0.61334   0.00000  Uiso   1.00
C15    C     0.89205   0.90229   0.68506   0.00000  Uiso   1.00
C16    C     0.82565   0.87406   0.66121   0.00000  Uiso   1.00
C17    C     0.78110   0.85499   0.73737   0.00000  Uiso   1.00
C18    C     0.02172   0.89471   0.63820   0.00000  Uiso   1.00
C19    C     0.06437   0.86011   0.57495   0.00000  Uiso   1.00
C20    C     0.12899   0.83467   0.61165   0.00000  Uiso   1.00
C21    C     0.96014   0.99416   0.63851   0.00000  Uiso   1.00
C22    C     0.95102   0.04317   0.57551   0.00000  Uiso   1.00
C23    C     0.96382   0.10146   0.61247   0.00000  Uiso   1.00
H24    H     0.00448   0.94992   0.86612   0.00000  Uiso   1.00
H25    H     0.88512   0.89902   0.93243   0.00000  Uiso   1.00
H26    H     0.12380   0.88508   0.84618   0.00000  Uiso   1.00
H27    H     0.01047   0.06812   0.84674   0.00000  Uiso   1.00
H28    H     0.74348   0.83866   0.96338   0.00000  Uiso   1.00
H29    H     0.24676   0.80929   0.78151   0.00000  Uiso   1.00
H30    H     0.00779   0.19525   0.78270   0.00000  Uiso   1.00
H31    H     0.93261   0.91974   0.53822   0.00000  Uiso   1.00
H32    H     0.80930   0.86719   0.58653   0.00000  Uiso   1.00
H33    H     0.04798   0.85325   0.50028   0.00000  Uiso   1.00
H34    H     0.93466   0.03628   0.50084   0.00000  Uiso   1.00
H35    H     0.68195   0.81282   0.68264   0.00000  Uiso   1.00
H36    H     0.18523   0.78345   0.50077   0.00000  Uiso   1.00
H37    H     0.94626   0.16941   0.50195   0.00000  Uiso   1.00
O38    O     0.63291   0.79170   0.86071   0.00000  Uiso   1.00
O39    O     0.29320   0.75318   0.62210   0.00000  Uiso   1.00
O40    O     0.97967   0.25954   0.62365   0.00000  Uiso   1.00
N41    N     0.74591   0.83980   0.89068   0.00000  Uiso   1.00
N42    N     0.21644   0.81233   0.72065   0.00000  Uiso   1.00
N43    N     0.99305   0.17317   0.72175   0.00000  Uiso   1.00
N44    N     0.71280   0.82590   0.73961   0.00000  Uiso   1.00
N45    N     0.18333   0.79843   0.56958   0.00000  Uiso   1.00
N46    N     0.95994   0.15927   0.57068   0.00000  Uiso   1.00
C47    C     0.00237   0.44410   0.21013   0.00000  Uiso   1.00
C48    C     0.07602   0.40992   0.21045   0.00000  Uiso   1.00
C49    C     0.11460   0.39061   0.12912   0.00000  Uiso   1.00
C50    C     0.18097   0.36005   0.14470   0.00000  Uiso   1.00
C51    C     0.29124   0.30860   0.13097   0.00000  Uiso   1.00
C52    C     0.94950   0.40561   0.27107   0.00000  Uiso   1.00
C53    C     0.88170   0.38268   0.24071   0.00000  Uiso   1.00
C54    C     0.84156   0.34850   0.30731   0.00000  Uiso   1.00
C55    C     0.75537   0.29039   0.38772   0.00000  Uiso   1.00
C56    C     0.01535   0.50312   0.26692   0.00000  Uiso   1.00
C57    C     0.00290   0.56218   0.23308   0.00000  Uiso   1.00
C58    C     0.01820   0.61010   0.29621   0.00000  Uiso   1.00
C59    C     0.03426   0.70338   0.37017   0.00000  Uiso   1.00
C60    C     0.05163   0.42418   0.38241   0.00000  Uiso   1.00
C61    C     0.10277   0.39910   0.30403   0.00000  Uiso   1.00
C62    C     0.16911   0.36857   0.31973   0.00000  Uiso   1.00
C63    C     0.20778   0.34921   0.23844   0.00000  Uiso   1.00
C64    C     0.97625   0.39478   0.36464   0.00000  Uiso   1.00
C65    C     0.93620   0.36064   0.43132   0.00000  Uiso   1.00
C66    C     0.86836   0.33766   0.40106   0.00000  Uiso   1.00
C67    C     0.04211   0.49230   0.36050   0.00000  Uiso   1.00
C68    C     0.05742   0.54013   0.42369   0.00000  Uiso   1.00
C69    C     0.04500   0.59926   0.38996   0.00000  Uiso   1.00
H70    H     0.98153   0.45252   0.13728   0.00000  Uiso   1.00
H71    H     0.09387   0.39898   0.05672   0.00000  Uiso   1.00
H72    H     0.86100   0.39106   0.16829   0.00000  Uiso   1.00
H73    H     0.98220   0.57053   0.16067   0.00000  Uiso   1.00
H74    H     0.23020   0.33484   0.00867   0.00000  Uiso   1.00
H75    H     0.73918   0.31815   0.24394   0.00000  Uiso   1.00
H76    H     0.99474   0.69660   0.22786   0.00000  Uiso   1.00
H77    H     0.07247   0.41575   0.45527   0.00000  Uiso   1.00
H78    H     0.18980   0.36020   0.39216   0.00000  Uiso   1.00
H79    H     0.95693   0.35228   0.50373   0.00000  Uiso   1.00
H80    H     0.07812   0.53174   0.49610   0.00000  Uiso   1.00
H81    H     0.30806   0.30335   0.28093   0.00000  Uiso   1.00
H82    H     0.81703   0.28667   0.51619   0.00000  Uiso   1.00
H83    H     0.07259   0.66512   0.50012   0.00000  Uiso   1.00
O84    O     0.34466   0.28320   0.09755   0.00000  Uiso   1.00
O85    O     0.70045   0.26132   0.40621   0.00000  Uiso   1.00
O86    O     0.03574   0.75783   0.38512   0.00000  Uiso   1.00
N87    N     0.23243   0.33506   0.08141   0.00000  Uiso   1.00
N88    N     0.77335   0.31946   0.30136   0.00000  Uiso   1.00
N89    N     0.01227   0.67327   0.28634   0.00000  Uiso   1.00
N90    N     0.27433   0.31812   0.22791   0.00000  Uiso   1.00
N91    N     0.81525   0.30252   0.44786   0.00000  Uiso   1.00
N92    N     0.05416   0.65633   0.43284   0.00000  Uiso   1.00
C93    C     0.01199   0.05700   0.29100   0.00000  Uiso   1.00
C94    C     0.08681   0.08883   0.28155   0.00000  Uiso   1.00
C95    C     0.13127   0.10785   0.35776   0.00000  Uiso   1.00
C96    C     0.19771   0.13611   0.33403   0.00000  Uiso   1.00
C97    C     0.31064   0.18421   0.33404   0.00000  Uiso   1.00
C98    C     0.95713   0.09641   0.23469   0.00000  Uiso   1.00
C99    C     0.89255   0.12180   0.27150   0.00000  Uiso   1.00
C100   C     0.84983   0.15643   0.20832   0.00000  Uiso   1.00
C101   C     0.76141   0.21627   0.13557   0.00000  Uiso   1.00
C102   C     0.01871   0.99696   0.23500   0.00000  Uiso   1.00
C103   C     0.00589   0.93874   0.27206   0.00000  Uiso   1.00
C104   C     0.01499   0.88965   0.20913   0.00000  Uiso   1.00
C105   C     0.02219   0.79508   0.13686   0.00000  Uiso   1.00
C106   C     0.05093   0.07334   0.11334   0.00000  Uiso   1.00
C107   C     0.10795   0.09771   0.18506   0.00000  Uiso   1.00
C108   C     0.17435   0.12594   0.16121   0.00000  Uiso   1.00
C109   C     0.21890   0.14501   0.23737   0.00000  Uiso   1.00
C110   C     0.97828   0.10529   0.13820   0.00000  Uiso   1.00
C111   C     0.93563   0.13989   0.07495   0.00000  Uiso   1.00
C112   C     0.87101   0.16533   0.11165   0.00000  Uiso   1.00
C113   C     0.03986   0.00584   0.13851   0.00000  Uiso   1.00
C114   C     0.04898   0.95683   0.07551   0.00000  Uiso   1.00
C115   C     0.03618   0.89854   0.11247   0.00000  Uiso   1.00
H116   H     0.99552   0.05008   0.36612   0.00000  Uiso   1.00
H117   H     0.11488   0.10098   0.43243   0.00000  Uiso   1.00
H118   H     0.87620   0.11492   0.34618   0.00000  Uiso   1.00
H119   H     0.98953   0.93188   0.34674   0.00000  Uiso   1.00
H120   H     0.25652   0.16134   0.46338   0.00000  Uiso   1.00
H121   H     0.75324   0.19071   0.28151   0.00000  Uiso   1.00
H122   H     0.99221   0.80475   0.28270   0.00000  Uiso   1.00
H123   H     0.06739   0.08026   0.03822   0.00000  Uiso   1.00
H124   H     0.19070   0.13281   0.08653   0.00000  Uiso   1.00
H125   H     0.95202   0.14675   0.00028   0.00000  Uiso   1.00
H126   H     0.06534   0.96372   0.00084   0.00000  Uiso   1.00
H127   H     0.31805   0.18718   0.18264   0.00000  Uiso   1.00
H128   H     0.81477   0.21655   0.00077   0.00000  Uiso   1.00
H129   H     0.05374   0.83059   0.00195   0.00000  Uiso   1.00
O130   O     0.36709   0.20830   0.36071   0.00000  Uiso   1.00
O131   O     0.70680   0.24682   0.12210   0.00000  Uiso   1.00
O132   O     0.02033   0.74046   0.12365   0.00000  Uiso   1.00
N133   N     0.25409   0.16020   0.39068   0.00000  Uiso   1.00
N134   N     0.78356   0.18767   0.22065   0.00000  Uiso   1.00
N135   N     0.00695   0.82683   0.22175   0.00000  Uiso   1.00
N136   N     0.28720   0.17410   0.23961   0.00000  Uiso   1.00
N137   N     0.81667   0.20157   0.06958   0.00000  Uiso   1.00
N138   N     0.04006   0.84073   0.07068   0.00000  Uiso   1.00
C139   C     0.99763   0.55590   0.71013   0.00000  Uiso   1.00
C140   C     0.92398   0.59008   0.71045   0.00000  Uiso   1.00
C141   C     0.88540   0.60939   0.62912   0.00000  Uiso   1.00
C142   C     0.81903   0.63995   0.64470   0.00000  Uiso   1.00
C143   C     0.70876   0.69140   0.63097   0.00000  Uiso   1.00
C144   C     0.05050   0.59439   0.77107   0.00000  Uiso   1.00
C145   C     0.11830   0.61732   0.74071   0.00000  Uiso   1.00
C146   C     0.15844   0.65150   0.80731   0.00000  Uiso   1.00
C147   C     0.24463   0.70961   0.88772   0.00000  Uiso   1.00
C148   C     0.98465   0.49688   0.76692   0.00000  Uiso   1.00
C149   C     0.99710   0.43782   0.73308   0.00000  Uiso   1.00
C150   C     0.98180   0.38990   0.79621   0.00000  Uiso   1.00
C151   C     0.96574   0.29662   0.87017   0.00000  Uiso   1.00
C152   C     0.94837   0.57582   0.88241   0.00000  Uiso   1.00
C153   C     0.89723   0.60090   0.80403   0.00000  Uiso   1.00
C154   C     0.83089   0.63143   0.81973   0.00000  Uiso   1.00
C155   C     0.79222   0.65079   0.73844   0.00000  Uiso   1.00
C156   C     0.02375   0.60522   0.86464   0.00000  Uiso   1.00
C157   C     0.06380   0.63936   0.93132   0.00000  Uiso   1.00
C158   C     0.13164   0.66234   0.90106   0.00000  Uiso   1.00
C159   C     0.95789   0.50770   0.86050   0.00000  Uiso   1.00
C160   C     0.94258   0.45987   0.92369   0.00000  Uiso   1.00
C161   C     0.95500   0.40074   0.88996   0.00000  Uiso   1.00
H162   H     0.01847   0.54748   0.63728   0.00000  Uiso   1.00
H163   H     0.90613   0.60102   0.55672   0.00000  Uiso   1.00
H164   H     0.13900   0.60894   0.66829   0.00000  Uiso   1.00
H165   H     0.01780   0.42947   0.66067   0.00000  Uiso   1.00
H166   H     0.76980   0.66516   0.50867   0.00000  Uiso   1.00
H167   H     0.26082   0.68185   0.74394   0.00000  Uiso   1.00
H168   H     0.00526   0.30340   0.72786   0.00000  Uiso   1.00
H169   H     0.92753   0.58425   0.95527   0.00000  Uiso   1.00
H170   H     0.81020   0.63980   0.89216   0.00000  Uiso   1.00
H171   H     0.04307   0.64772   0.00373   0.00000  Uiso   1.00
H172   H     0.92188   0.46826   0.99610   0.00000  Uiso   1.00
H173   H     0.69194   0.69665   0.78093   0.00000  Uiso   1.00
H174   H     0.18297   0.71333   0.01619   0.00000  Uiso   1.00
H175   H     0.92741   0.33488   0.00012   0.00000  Uiso   1.00
O176   O     0.65534   0.71680   0.59755   0.00000  Uiso   1.00
O177   O     0.29955   0.73868   0.90621   0.00000  Uiso   1.00
O178   O     0.96426   0.24217   0.88512   0.00000  Uiso   1.00
N179   N     0.76757   0.66494   0.58141   0.00000  Uiso   1.00
N180   N     0.22665   0.68054   0.80136   0.00000  Uiso   1.00
N181   N     0.98773   0.32673   0.78634   0.00000  Uiso   1.00
N182   N     0.72567   0.68188   0.72791   0.00000  Uiso   1.00
N183   N     0.18475   0.69748   0.94786   0.00000  Uiso   1.00
N184   N     0.94584   0.34367   0.93284   0.00000  Uiso   1.00
C185   C     0.48801   0.05700   0.79100   0.00000  Uiso   1.00
C186   C     0.41319   0.08883   0.78155   0.00000  Uiso   1.00
C187   C     0.36873   0.10785   0.85776   0.00000  Uiso   1.00
C188   C     0.30229   0.13611   0.83403   0.00000  Uiso   1.00
C189   C     0.18936   0.18421   0.83404   0.00000  Uiso   1.00
C190   C     0.54287   0.09641   0.73469   0.00000  Uiso   1.00
C191   C     0.60745   0.12180   0.77150   0.00000  Uiso   1.00
C192   C     0.65017   0.15643   0.70832   0.00000  Uiso   1.00
C193   C     0.73859   0.21627   0.63557   0.00000  Uiso   1.00
C194   C     0.48129   0.99696   0.73500   0.00000  Uiso   1.00
C195   C     0.49411   0.93874   0.77206   0.00000  Uiso   1.00
C196   C     0.48501   0.88965   0.70913   0.00000  Uiso   1.00
C197   C     0.47781   0.79508   0.63686   0.00000  Uiso   1.00
C198   C     0.44907   0.07334   0.61334   0.00000  Uiso   1.00
C199   C     0.39205   0.09771   0.68506   0.00000  Uiso   1.00
C200   C     0.32565   0.12594   0.66121   0.00000  Uiso   1.00
C201   C     0.28110   0.14501   0.73737   0.00000  Uiso   1.00
C202   C     0.52172   0.10529   0.63820   0.00000  Uiso   1.00
C203   C     0.56437   0.13989   0.57495   0.00000  Uiso   1.00
C204   C     0.62899   0.16533   0.61165   0.00000  Uiso   1.00
C205   C     0.46014   0.00584   0.63851   0.00000  Uiso   1.00
C206   C     0.45102   0.95683   0.57551   0.00000  Uiso   1.00
C207   C     0.46382   0.89854   0.61247   0.00000  Uiso   1.00
H208   H     0.50448   0.05008   0.86612   0.00000  Uiso   1.00
H209   H     0.38512   0.10098   0.93243   0.00000  Uiso   1.00
H210   H     0.62380   0.11492   0.84618   0.00000  Uiso   1.00
H211   H     0.51047   0.93188   0.84674   0.00000  Uiso   1.00
H212   H     0.24348   0.16134   0.96338   0.00000  Uiso   1.00
H213   H     0.74676   0.19071   0.78151   0.00000  Uiso   1.00
H214   H     0.50779   0.80475   0.78270   0.00000  Uiso   1.00
H215   H     0.43261   0.08026   0.53822   0.00000  Uiso   1.00
H216   H     0.30930   0.13281   0.58653   0.00000  Uiso   1.00
H217   H     0.54798   0.14675   0.50028   0.00000  Uiso   1.00
H218   H     0.43466   0.96372   0.50084   0.00000  Uiso   1.00
H219   H     0.18195   0.18718   0.68264   0.00000  Uiso   1.00
H220   H     0.68523   0.21655   0.50077   0.00000  Uiso   1.00
H221   H     0.44626   0.83059   0.50195   0.00000  Uiso   1.00
O222   O     0.13291   0.20830   0.86071   0.00000  Uiso   1.00
O223   O     0.79320   0.24682   0.62210   0.00000  Uiso   1.00
O224   O     0.47967   0.74046   0.62365   0.00000  Uiso   1.00
N225   N     0.24591   0.16020   0.89068   0.00000  Uiso   1.00
N226   N     0.71644   0.18767   0.72065   0.00000  Uiso   1.00
N227   N     0.49305   0.82683   0.72175   0.00000  Uiso   1.00
N228   N     0.21280   0.17410   0.73961   0.00000  Uiso   1.00
N229   N     0.68333   0.20157   0.56958   0.00000  Uiso   1.00
N230   N     0.45994   0.84073   0.57068   0.00000  Uiso   1.00
C231   C     0.50237   0.55590   0.21013   0.00000  Uiso   1.00
C232   C     0.57602   0.59008   0.21045   0.00000  Uiso   1.00
C233   C     0.61460   0.60939   0.12912   0.00000  Uiso   1.00
C234   C     0.68097   0.63995   0.14470   0.00000  Uiso   1.00
C235   C     0.79124   0.69140   0.13097   0.00000  Uiso   1.00
C236   C     0.44950   0.59439   0.27107   0.00000  Uiso   1.00
C237   C     0.38170   0.61732   0.24071   0.00000  Uiso   1.00
C238   C     0.34156   0.65150   0.30731   0.00000  Uiso   1.00
C239   C     0.25537   0.70961   0.38772   0.00000  Uiso   1.00
C240   C     0.51535   0.49688   0.26692   0.00000  Uiso   1.00
C241   C     0.50290   0.43782   0.23308   0.00000  Uiso   1.00
C242   C     0.51820   0.38990   0.29621   0.00000  Uiso   1.00
C243   C     0.53426   0.29662   0.37017   0.00000  Uiso   1.00
C244   C     0.55163   0.57582   0.38241   0.00000  Uiso   1.00
C245   C     0.60277   0.60090   0.30403   0.00000  Uiso   1.00
C246   C     0.66911   0.63143   0.31973   0.00000  Uiso   1.00
C247   C     0.70778   0.65079   0.23844   0.00000  Uiso   1.00
C248   C     0.47625   0.60522   0.36464   0.00000  Uiso   1.00
C249   C     0.43620   0.63936   0.43132   0.00000  Uiso   1.00
C250   C     0.36836   0.66234   0.40106   0.00000  Uiso   1.00
C251   C     0.54211   0.50770   0.36050   0.00000  Uiso   1.00
C252   C     0.55742   0.45987   0.42369   0.00000  Uiso   1.00
C253   C     0.54500   0.40074   0.38996   0.00000  Uiso   1.00
H254   H     0.48153   0.54748   0.13728   0.00000  Uiso   1.00
H255   H     0.59387   0.60102   0.05672   0.00000  Uiso   1.00
H256   H     0.36100   0.60894   0.16829   0.00000  Uiso   1.00
H257   H     0.48220   0.42947   0.16067   0.00000  Uiso   1.00
H258   H     0.73020   0.66516   0.00867   0.00000  Uiso   1.00
H259   H     0.23918   0.68185   0.24394   0.00000  Uiso   1.00
H260   H     0.49474   0.30340   0.22786   0.00000  Uiso   1.00
H261   H     0.57247   0.58425   0.45527   0.00000  Uiso   1.00
H262   H     0.68980   0.63980   0.39216   0.00000  Uiso   1.00
H263   H     0.45693   0.64772   0.50373   0.00000  Uiso   1.00
H264   H     0.57812   0.46826   0.49610   0.00000  Uiso   1.00
H265   H     0.80806   0.69665   0.28093   0.00000  Uiso   1.00
H266   H     0.31703   0.71333   0.51619   0.00000  Uiso   1.00
H267   H     0.57259   0.33488   0.50012   0.00000  Uiso   1.00
O268   O     0.84466   0.71680   0.09755   0.00000  Uiso   1.00
O269   O     0.20045   0.73868   0.40621   0.00000  Uiso   1.00
O270   O     0.53574   0.24217   0.38512   0.00000  Uiso   1.00
N271   N     0.73243   0.66494   0.08141   0.00000  Uiso   1.00
N272   N     0.27335   0.68054   0.30136   0.00000  Uiso   1.00
N273   N     0.51227   0.32673   0.28634   0.00000  Uiso   1.00
N274   N     0.77433   0.68188   0.22791   0.00000  Uiso   1.00
N275   N     0.31525   0.69748   0.44786   0.00000  Uiso   1.00
N276   N     0.55416   0.34367   0.43284   0.00000  Uiso   1.00
C277   C     0.51199   0.94300   0.29100   0.00000  Uiso   1.00
C278   C     0.58681   0.91117   0.28155   0.00000  Uiso   1.00
C279   C     0.63127   0.89215   0.35776   0.00000  Uiso   1.00
C280   C     0.69771   0.86389   0.33403   0.00000  Uiso   1.00
C281   C     0.81064   0.81579   0.33404   0.00000  Uiso   1.00
C282   C     0.45713   0.90359   0.23469   0.00000  Uiso   1.00
C283   C     0.39255   0.87820   0.27150   0.00000  Uiso   1.00
C284   C     0.34983   0.84357   0.20832   0.00000  Uiso   1.00
C285   C     0.26141   0.78373   0.13557   0.00000  Uiso   1.00
C286   C     0.51871   0.00304   0.23500   0.00000  Uiso   1.00
C287   C     0.50589   0.06126   0.27206   0.00000  Uiso   1.00
C288   C     0.51499   0.11035   0.20913   0.00000  Uiso   1.00
C289   C     0.52219   0.20492   0.13686   0.00000  Uiso   1.00
C290   C     0.55093   0.92666   0.11334   0.00000  Uiso   1.00
C291   C     0.60795   0.90229   0.18506   0.00000  Uiso   1.00
C292   C     0.67435   0.87406   0.16121   0.00000  Uiso   1.00
C293   C     0.71890   0.85499   0.23737   0.00000  Uiso   1.00
C294   C     0.47828   0.89471   0.13820   0.00000  Uiso   1.00
C295   C     0.43563   0.86011   0.07495   0.00000  Uiso   1.00
C296   C     0.37101   0.83467   0.11165   0.00000  Uiso   1.00
C297   C     0.53986   0.99416   0.13851   0.00000  Uiso   1.00
C298   C     0.54898   0.04317   0.07551   0.00000  Uiso   1.00
C299   C     0.53618   0.10146   0.11247   0.00000  Uiso   1.00
H300   H     0.49552   0.94992   0.36612   0.00000  Uiso   1.00
H301   H     0.61488   0.89902   0.43243   0.00000  Uiso   1.00
H302   H     0.37620   0.88508   0.34618   0.00000  Uiso   1.00
H303   H     0.48953   0.06812   0.34674   0.00000  Uiso   1.00
H304   H     0.75652   0.83866   0.46338   0.00000  Uiso   1.00
H305   H     0.25324   0.80929   0.28151   0.00000  Uiso   1.00
H306   H     0.49221   0.19525   0.28270   0.00000  Uiso   1.00
H307   H     0.56739   0.91974   0.03822   0.00000  Uiso   1.00
H308   H     0.69070   0.86719   0.08653   0.00000  Uiso   1.00
H309   H     0.45202   0.85325   0.00028   0.00000  Uiso   1.00
H310   H     0.56534   0.03628   0.00084   0.00000  Uiso   1.00
H311   H     0.81805   0.81282   0.18264   0.00000  Uiso   1.00
H312   H     0.31477   0.78345   0.00077   0.00000  Uiso   1.00
H313   H     0.55374   0.16941   0.00195   0.00000  Uiso   1.00
O314   O     0.86709   0.79170   0.36071   0.00000  Uiso   1.00
O315   O     0.20680   0.75318   0.12210   0.00000  Uiso   1.00
O316   O     0.52033   0.25954   0.12365   0.00000  Uiso   1.00
N317   N     0.75409   0.83980   0.39068   0.00000  Uiso   1.00
N318   N     0.28356   0.81233   0.22065   0.00000  Uiso   1.00
N319   N     0.50695   0.17317   0.22175   0.00000  Uiso   1.00
N320   N     0.78720   0.82590   0.23961   0.00000  Uiso   1.00
N321   N     0.31667   0.79843   0.06958   0.00000  Uiso   1.00
N322   N     0.54006   0.15927   0.07068   0.00000  Uiso   1.00
C323   C     0.49763   0.44410   0.71013   0.00000  Uiso   1.00
C324   C     0.42398   0.40992   0.71045   0.00000  Uiso   1.00
C325   C     0.38540   0.39061   0.62912   0.00000  Uiso   1.00
C326   C     0.31903   0.36005   0.64470   0.00000  Uiso   1.00
C327   C     0.20876   0.30860   0.63097   0.00000  Uiso   1.00
C328   C     0.55050   0.40561   0.77107   0.00000  Uiso   1.00
C329   C     0.61830   0.38268   0.74071   0.00000  Uiso   1.00
C330   C     0.65844   0.34850   0.80731   0.00000  Uiso   1.00
C331   C     0.74463   0.29039   0.88772   0.00000  Uiso   1.00
C332   C     0.48465   0.50312   0.76692   0.00000  Uiso   1.00
C333   C     0.49710   0.56218   0.73308   0.00000  Uiso   1.00
C334   C     0.48180   0.61010   0.79621   0.00000  Uiso   1.00
C335   C     0.46574   0.70338   0.87017   0.00000  Uiso   1.00
C336   C     0.44837   0.42418   0.88241   0.00000  Uiso   1.00
C337   C     0.39723   0.39910   0.80403   0.00000  Uiso   1.00
C338   C     0.33089   0.36857   0.81973   0.00000  Uiso   1.00
C339   C     0.29222   0.34921   0.73844   0.00000  Uiso   1.00
C340   C     0.52375   0.39478   0.86464   0.00000  Uiso   1.00
C341   C     0.56380   0.36064   0.93132   0.00000  Uiso   1.00
C342   C     0.63164   0.33766   0.90106   0.00000  Uiso   1.00
C343   C     0.45789   0.49230   0.86050   0.00000  Uiso   1.00
C344   C     0.44258   0.54013   0.92369   0.00000  Uiso   1.00
C345   C     0.45500   0.59926   0.88996   0.00000  Uiso   1.00
H346   H     0.51847   0.45252   0.63728   0.00000  Uiso   1.00
H347   H     0.40613   0.39898   0.55672   0.00000  Uiso   1.00
H348   H     0.63900   0.39106   0.66829   0.00000  Uiso   1.00
H349   H     0.51780   0.57053   0.66067   0.00000  Uiso   1.00
H350   H     0.26980   0.33484   0.50867   0.00000  Uiso   1.00
H351   H     0.76082   0.31815   0.74394   0.00000  Uiso   1.00
H352   H     0.50526   0.69660   0.72786   0.00000  Uiso   1.00
H353   H     0.42753   0.41575   0.95527   0.00000  Uiso   1.00
H354   H     0.31020   0.36020   0.89216   0.00000  Uiso   1.00
H355   H     0.54307   0.35228   0.00373   0.00000  Uiso   1.00
H356   H     0.42188   0.53174   0.99610   0.00000  Uiso   1.00
H357   H     0.19194   0.30335   0.78093   0.00000  Uiso   1.00
H358   H     0.68297   0.28667   0.01619   0.00000  Uiso   1.00
H359   H     0.42741   0.66512   0.00012   0.00000  Uiso   1.00
O360   O     0.15534   0.28320   0.59755   0.00000  Uiso   1.00
O361   O     0.79955   0.26132   0.90621   0.00000  Uiso   1.00
O362   O     0.46426   0.75783   0.88512   0.00000  Uiso   1.00
N363   N     0.26757   0.33506   0.58141   0.00000  Uiso   1.00
N364   N     0.72665   0.31946   0.80136   0.00000  Uiso   1.00
N365   N     0.48773   0.67327   0.78634   0.00000  Uiso   1.00
N366   N     0.22567   0.31812   0.72791   0.00000  Uiso   1.00
N367   N     0.68475   0.30252   0.94786   0.00000  Uiso   1.00
N368   N     0.44584   0.65633   0.93284   0.00000  Uiso   1.00
