data_job_03147
_audit_creation_date              2018-12-19
_audit_creation_method            'Materials Studio'
_symmetry_space_group_name_H-M    'P1'
_symmetry_Int_Tables_number       1
_symmetry_cell_setting            triclinic
loop_
_symmetry_equiv_pos_as_xyz
  x,y,z
_cell_length_a                    21.5536
_cell_length_b                    12.4167
_cell_length_c                    31.0441
_cell_angle_alpha                 90.0000
_cell_angle_beta                  109.8440
_cell_angle_gamma                 90.0000
loop_
_atom_site_label
_atom_site_type_symbol
_atom_site_fract_x
_atom_site_fract_y
_atom_site_fract_z
_atom_site_U_iso_or_equiv
_atom_site_adp_type
_atom_site_occupancy
C1     C     0.82697   0.17245   0.87761   0.00000  Uiso   1.00
C2     C     0.85703   0.09490   0.91734   0.00000  Uiso   1.00
C3     C     0.89263   0.00261   0.91596   0.00000  Uiso   1.00
C4     C     0.91599   0.94240   0.95592   0.00000  Uiso   1.00
C5     C     0.96444   0.81724   0.01154   0.00000  Uiso   1.00
C6     C     0.75364   0.17847   0.87100   0.00000  Uiso   1.00
C7     C     0.70232   0.15646   0.83066   0.00000  Uiso   1.00
C8     C     0.63865   0.16661   0.83161   0.00000  Uiso   1.00
C9     C     0.52659   0.17128   0.81527   0.00000  Uiso   1.00
C10    C     0.85528   0.28314   0.89480   0.00000  Uiso   1.00
C11    C     0.88940   0.34915   0.87447   0.00000  Uiso   1.00
C12    C     0.91129   0.44744   0.89546   0.00000  Uiso   1.00
C13    C     0.95704   0.61461   0.91609   0.00000  Uiso   1.00
C14    C     0.80516   0.22962   0.95103   0.00000  Uiso   1.00
C15    C     0.84518   0.12596   0.95721   0.00000  Uiso   1.00
C16    C     0.86849   0.06587   0.99719   0.00000  Uiso   1.00
C17    C     0.90412   0.97351   0.99588   0.00000  Uiso   1.00
C18    C     0.74179   0.20953   0.91087   0.00000  Uiso   1.00
C19    C     0.67818   0.21972   0.91189   0.00000  Uiso   1.00
C20    C     0.62677   0.19773   0.87156   0.00000  Uiso   1.00
C21    C     0.84344   0.31420   0.93468   0.00000  Uiso   1.00
C22    C     0.86527   0.41240   0.95570   0.00000  Uiso   1.00
C23    C     0.89942   0.47855   0.93541   0.00000  Uiso   1.00
H24    H     0.83619   0.14827   0.84656   0.00000  Uiso   1.00
H25    H     0.90178   0.97860   0.88509   0.00000  Uiso   1.00
H26    H     0.71150   0.13244   0.79980   0.00000  Uiso   1.00
H27    H     0.89856   0.32509   0.84361   0.00000  Uiso   1.00
H28    H     0.96926   0.80417   0.94539   0.00000  Uiso   1.00
H29    H     0.56804   0.12858   0.76555   0.00000  Uiso   1.00
H30    H     0.96249   0.53483   0.85793   0.00000  Uiso   1.00
H31    H     0.79593   0.25380   0.98207   0.00000  Uiso   1.00
H32    H     0.85931   0.08992   0.02805   0.00000  Uiso   1.00
H33    H     0.66903   0.24376   0.94275   0.00000  Uiso   1.00
H34    H     0.85609   0.43641   0.98656   0.00000  Uiso   1.00
H35    H     0.93479   0.89452   0.06142   0.00000  Uiso   1.00
H36    H     0.53357   0.21894   0.88157   0.00000  Uiso   1.00
H37    H     0.92802   0.62518   0.97396   0.00000  Uiso   1.00
O38    O     0.99443   0.73961   0.03120   0.00000  Uiso   1.00
O39    O     0.46805   0.16526   0.79524   0.00000  Uiso   1.00
O40    O     0.98556   0.69823   0.91645   0.00000  Uiso   1.00
N41    N     0.95246   0.84793   0.96639   0.00000  Uiso   1.00
N42    N     0.57734   0.15123   0.79825   0.00000  Uiso   1.00
N43    N     0.94611   0.53105   0.88462   0.00000  Uiso   1.00
N44    N     0.93391   0.89655   0.02883   0.00000  Uiso   1.00
N45    N     0.55879   0.19984   0.86068   0.00000  Uiso   1.00
N46    N     0.92756   0.57966   0.94705   0.00000  Uiso   1.00
C47    C     0.32697   0.67245   0.87761   0.00000  Uiso   1.00
C48    C     0.35703   0.59490   0.91734   0.00000  Uiso   1.00
C49    C     0.39263   0.50261   0.91596   0.00000  Uiso   1.00
C50    C     0.41599   0.44240   0.95592   0.00000  Uiso   1.00
C51    C     0.46444   0.31724   0.01154   0.00000  Uiso   1.00
C52    C     0.25364   0.67847   0.87100   0.00000  Uiso   1.00
C53    C     0.20232   0.65646   0.83066   0.00000  Uiso   1.00
C54    C     0.13865   0.66661   0.83161   0.00000  Uiso   1.00
C55    C     0.02659   0.67128   0.81527   0.00000  Uiso   1.00
C56    C     0.35528   0.78314   0.89480   0.00000  Uiso   1.00
C57    C     0.38940   0.84915   0.87447   0.00000  Uiso   1.00
C58    C     0.41129   0.94744   0.89546   0.00000  Uiso   1.00
C59    C     0.45704   0.11461   0.91609   0.00000  Uiso   1.00
C60    C     0.30516   0.72962   0.95103   0.00000  Uiso   1.00
C61    C     0.34518   0.62596   0.95721   0.00000  Uiso   1.00
C62    C     0.36849   0.56587   0.99719   0.00000  Uiso   1.00
C63    C     0.40412   0.47351   0.99588   0.00000  Uiso   1.00
C64    C     0.24179   0.70953   0.91087   0.00000  Uiso   1.00
C65    C     0.17818   0.71972   0.91189   0.00000  Uiso   1.00
C66    C     0.12677   0.69773   0.87156   0.00000  Uiso   1.00
C67    C     0.34344   0.81420   0.93468   0.00000  Uiso   1.00
C68    C     0.36527   0.91240   0.95570   0.00000  Uiso   1.00
C69    C     0.39942   0.97855   0.93541   0.00000  Uiso   1.00
H70    H     0.33619   0.64827   0.84656   0.00000  Uiso   1.00
H71    H     0.40178   0.47860   0.88509   0.00000  Uiso   1.00
H72    H     0.21150   0.63244   0.79980   0.00000  Uiso   1.00
H73    H     0.39856   0.82509   0.84361   0.00000  Uiso   1.00
H74    H     0.46926   0.30417   0.94539   0.00000  Uiso   1.00
H75    H     0.06804   0.62858   0.76555   0.00000  Uiso   1.00
H76    H     0.46249   0.03483   0.85793   0.00000  Uiso   1.00
H77    H     0.29593   0.75380   0.98207   0.00000  Uiso   1.00
H78    H     0.35931   0.58992   0.02805   0.00000  Uiso   1.00
H79    H     0.16903   0.74376   0.94275   0.00000  Uiso   1.00
H80    H     0.35609   0.93641   0.98656   0.00000  Uiso   1.00
H81    H     0.43479   0.39452   0.06142   0.00000  Uiso   1.00
H82    H     0.03357   0.71894   0.88157   0.00000  Uiso   1.00
H83    H     0.42802   0.12518   0.97396   0.00000  Uiso   1.00
O84    O     0.49443   0.23961   0.03120   0.00000  Uiso   1.00
O85    O     0.96805   0.66526   0.79524   0.00000  Uiso   1.00
O86    O     0.48556   0.19823   0.91645   0.00000  Uiso   1.00
N87    N     0.45246   0.34793   0.96639   0.00000  Uiso   1.00
N88    N     0.07734   0.65123   0.79825   0.00000  Uiso   1.00
N89    N     0.44611   0.03105   0.88462   0.00000  Uiso   1.00
N90    N     0.43391   0.39655   0.02883   0.00000  Uiso   1.00
N91    N     0.05879   0.69984   0.86068   0.00000  Uiso   1.00
N92    N     0.42756   0.07966   0.94705   0.00000  Uiso   1.00
C93    C     0.17303   0.17245   0.62239   0.00000  Uiso   1.00
C94    C     0.14297   0.09490   0.58266   0.00000  Uiso   1.00
C95    C     0.10737   0.00261   0.58404   0.00000  Uiso   1.00
C96    C     0.08401   0.94240   0.54408   0.00000  Uiso   1.00
C97    C     0.03556   0.81724   0.48846   0.00000  Uiso   1.00
C98    C     0.24636   0.17847   0.62900   0.00000  Uiso   1.00
C99    C     0.29768   0.15646   0.66934   0.00000  Uiso   1.00
C100   C     0.36135   0.16661   0.66839   0.00000  Uiso   1.00
C101   C     0.47341   0.17128   0.68473   0.00000  Uiso   1.00
C102   C     0.14472   0.28314   0.60520   0.00000  Uiso   1.00
C103   C     0.11060   0.34915   0.62553   0.00000  Uiso   1.00
C104   C     0.08871   0.44744   0.60454   0.00000  Uiso   1.00
C105   C     0.04296   0.61461   0.58391   0.00000  Uiso   1.00
C106   C     0.19484   0.22962   0.54897   0.00000  Uiso   1.00
C107   C     0.15482   0.12596   0.54279   0.00000  Uiso   1.00
C108   C     0.13151   0.06587   0.50281   0.00000  Uiso   1.00
C109   C     0.09588   0.97351   0.50412   0.00000  Uiso   1.00
C110   C     0.25821   0.20953   0.58913   0.00000  Uiso   1.00
C111   C     0.32182   0.21972   0.58811   0.00000  Uiso   1.00
C112   C     0.37323   0.19773   0.62844   0.00000  Uiso   1.00
C113   C     0.15656   0.31420   0.56532   0.00000  Uiso   1.00
C114   C     0.13473   0.41240   0.54430   0.00000  Uiso   1.00
C115   C     0.10058   0.47855   0.56459   0.00000  Uiso   1.00
H116   H     0.16381   0.14827   0.65344   0.00000  Uiso   1.00
H117   H     0.09822   0.97860   0.61491   0.00000  Uiso   1.00
H118   H     0.28850   0.13244   0.70020   0.00000  Uiso   1.00
H119   H     0.10144   0.32509   0.65639   0.00000  Uiso   1.00
H120   H     0.03074   0.80417   0.55461   0.00000  Uiso   1.00
H121   H     0.43196   0.12858   0.73445   0.00000  Uiso   1.00
H122   H     0.03751   0.53483   0.64207   0.00000  Uiso   1.00
H123   H     0.20407   0.25380   0.51793   0.00000  Uiso   1.00
H124   H     0.14069   0.08992   0.47195   0.00000  Uiso   1.00
H125   H     0.33097   0.24376   0.55725   0.00000  Uiso   1.00
H126   H     0.14391   0.43641   0.51344   0.00000  Uiso   1.00
H127   H     0.06521   0.89452   0.43858   0.00000  Uiso   1.00
H128   H     0.46643   0.21894   0.61843   0.00000  Uiso   1.00
H129   H     0.07198   0.62518   0.52604   0.00000  Uiso   1.00
O130   O     0.00557   0.73961   0.46880   0.00000  Uiso   1.00
O131   O     0.53195   0.16526   0.70476   0.00000  Uiso   1.00
O132   O     0.01444   0.69823   0.58355   0.00000  Uiso   1.00
N133   N     0.04754   0.84793   0.53361   0.00000  Uiso   1.00
N134   N     0.42266   0.15123   0.70175   0.00000  Uiso   1.00
N135   N     0.05389   0.53105   0.61538   0.00000  Uiso   1.00
N136   N     0.06609   0.89655   0.47117   0.00000  Uiso   1.00
N137   N     0.44121   0.19984   0.63932   0.00000  Uiso   1.00
N138   N     0.07244   0.57966   0.55295   0.00000  Uiso   1.00
C139   C     0.67303   0.67245   0.62239   0.00000  Uiso   1.00
C140   C     0.64297   0.59490   0.58266   0.00000  Uiso   1.00
C141   C     0.60737   0.50261   0.58404   0.00000  Uiso   1.00
C142   C     0.58401   0.44240   0.54408   0.00000  Uiso   1.00
C143   C     0.53556   0.31724   0.48846   0.00000  Uiso   1.00
C144   C     0.74636   0.67847   0.62900   0.00000  Uiso   1.00
C145   C     0.79768   0.65646   0.66934   0.00000  Uiso   1.00
C146   C     0.86135   0.66661   0.66839   0.00000  Uiso   1.00
C147   C     0.97341   0.67128   0.68473   0.00000  Uiso   1.00
C148   C     0.64472   0.78314   0.60520   0.00000  Uiso   1.00
C149   C     0.61060   0.84915   0.62553   0.00000  Uiso   1.00
C150   C     0.58871   0.94744   0.60454   0.00000  Uiso   1.00
C151   C     0.54296   0.11461   0.58391   0.00000  Uiso   1.00
C152   C     0.69484   0.72962   0.54897   0.00000  Uiso   1.00
C153   C     0.65482   0.62596   0.54279   0.00000  Uiso   1.00
C154   C     0.63151   0.56587   0.50281   0.00000  Uiso   1.00
C155   C     0.59588   0.47351   0.50412   0.00000  Uiso   1.00
C156   C     0.75821   0.70953   0.58913   0.00000  Uiso   1.00
C157   C     0.82182   0.71972   0.58811   0.00000  Uiso   1.00
C158   C     0.87323   0.69773   0.62844   0.00000  Uiso   1.00
C159   C     0.65656   0.81420   0.56532   0.00000  Uiso   1.00
C160   C     0.63473   0.91240   0.54430   0.00000  Uiso   1.00
C161   C     0.60058   0.97855   0.56459   0.00000  Uiso   1.00
H162   H     0.66381   0.64827   0.65344   0.00000  Uiso   1.00
H163   H     0.59822   0.47860   0.61491   0.00000  Uiso   1.00
H164   H     0.78850   0.63244   0.70020   0.00000  Uiso   1.00
H165   H     0.60144   0.82509   0.65639   0.00000  Uiso   1.00
H166   H     0.53074   0.30417   0.55461   0.00000  Uiso   1.00
H167   H     0.93196   0.62858   0.73445   0.00000  Uiso   1.00
H168   H     0.53751   0.03483   0.64207   0.00000  Uiso   1.00
H169   H     0.70407   0.75380   0.51793   0.00000  Uiso   1.00
H170   H     0.64069   0.58992   0.47195   0.00000  Uiso   1.00
H171   H     0.83097   0.74376   0.55725   0.00000  Uiso   1.00
H172   H     0.64391   0.93641   0.51344   0.00000  Uiso   1.00
H173   H     0.56521   0.39452   0.43858   0.00000  Uiso   1.00
H174   H     0.96643   0.71894   0.61843   0.00000  Uiso   1.00
H175   H     0.57198   0.12518   0.52604   0.00000  Uiso   1.00
O176   O     0.50557   0.23961   0.46880   0.00000  Uiso   1.00
O177   O     0.03195   0.66526   0.70476   0.00000  Uiso   1.00
O178   O     0.51444   0.19823   0.58355   0.00000  Uiso   1.00
N179   N     0.54754   0.34793   0.53361   0.00000  Uiso   1.00
N180   N     0.92266   0.65123   0.70175   0.00000  Uiso   1.00
N181   N     0.55389   0.03105   0.61538   0.00000  Uiso   1.00
N182   N     0.56609   0.39655   0.47117   0.00000  Uiso   1.00
N183   N     0.94121   0.69984   0.63932   0.00000  Uiso   1.00
N184   N     0.57244   0.07966   0.55295   0.00000  Uiso   1.00
C185   C     0.17303   0.82755   0.12239   0.00000  Uiso   1.00
C186   C     0.14297   0.90510   0.08266   0.00000  Uiso   1.00
C187   C     0.10737   0.99739   0.08404   0.00000  Uiso   1.00
C188   C     0.08401   0.05760   0.04408   0.00000  Uiso   1.00
C189   C     0.03556   0.18276   0.98846   0.00000  Uiso   1.00
C190   C     0.24636   0.82153   0.12900   0.00000  Uiso   1.00
C191   C     0.29768   0.84354   0.16934   0.00000  Uiso   1.00
C192   C     0.36135   0.83339   0.16839   0.00000  Uiso   1.00
C193   C     0.47341   0.82872   0.18473   0.00000  Uiso   1.00
C194   C     0.14472   0.71686   0.10520   0.00000  Uiso   1.00
C195   C     0.11060   0.65085   0.12553   0.00000  Uiso   1.00
C196   C     0.08871   0.55256   0.10454   0.00000  Uiso   1.00
C197   C     0.04296   0.38539   0.08391   0.00000  Uiso   1.00
C198   C     0.19484   0.77038   0.04897   0.00000  Uiso   1.00
C199   C     0.15482   0.87404   0.04279   0.00000  Uiso   1.00
C200   C     0.13151   0.93413   0.00281   0.00000  Uiso   1.00
C201   C     0.09588   0.02649   0.00412   0.00000  Uiso   1.00
C202   C     0.25821   0.79047   0.08913   0.00000  Uiso   1.00
C203   C     0.32182   0.78028   0.08811   0.00000  Uiso   1.00
C204   C     0.37323   0.80227   0.12844   0.00000  Uiso   1.00
C205   C     0.15656   0.68580   0.06532   0.00000  Uiso   1.00
C206   C     0.13473   0.58760   0.04430   0.00000  Uiso   1.00
C207   C     0.10058   0.52145   0.06459   0.00000  Uiso   1.00
H208   H     0.16381   0.85173   0.15344   0.00000  Uiso   1.00
H209   H     0.09822   0.02140   0.11491   0.00000  Uiso   1.00
H210   H     0.28850   0.86756   0.20020   0.00000  Uiso   1.00
H211   H     0.10144   0.67491   0.15639   0.00000  Uiso   1.00
H212   H     0.03074   0.19583   0.05461   0.00000  Uiso   1.00
H213   H     0.43196   0.87142   0.23445   0.00000  Uiso   1.00
H214   H     0.03751   0.46517   0.14207   0.00000  Uiso   1.00
H215   H     0.20407   0.74620   0.01793   0.00000  Uiso   1.00
H216   H     0.14069   0.91008   0.97195   0.00000  Uiso   1.00
H217   H     0.33097   0.75624   0.05725   0.00000  Uiso   1.00
H218   H     0.14391   0.56359   0.01344   0.00000  Uiso   1.00
H219   H     0.06521   0.10548   0.93858   0.00000  Uiso   1.00
H220   H     0.46643   0.78106   0.11843   0.00000  Uiso   1.00
H221   H     0.07198   0.37482   0.02604   0.00000  Uiso   1.00
O222   O     0.00557   0.26039   0.96880   0.00000  Uiso   1.00
O223   O     0.53195   0.83474   0.20476   0.00000  Uiso   1.00
O224   O     0.01444   0.30177   0.08355   0.00000  Uiso   1.00
N225   N     0.04754   0.15207   0.03361   0.00000  Uiso   1.00
N226   N     0.42266   0.84877   0.20175   0.00000  Uiso   1.00
N227   N     0.05389   0.46895   0.11538   0.00000  Uiso   1.00
N228   N     0.06609   0.10345   0.97117   0.00000  Uiso   1.00
N229   N     0.44121   0.80016   0.13932   0.00000  Uiso   1.00
N230   N     0.07244   0.42034   0.05295   0.00000  Uiso   1.00
C231   C     0.67303   0.32755   0.12239   0.00000  Uiso   1.00
C232   C     0.64297   0.40510   0.08266   0.00000  Uiso   1.00
C233   C     0.60737   0.49739   0.08404   0.00000  Uiso   1.00
C234   C     0.58401   0.55760   0.04408   0.00000  Uiso   1.00
C235   C     0.53556   0.68276   0.98846   0.00000  Uiso   1.00
C236   C     0.74636   0.32153   0.12900   0.00000  Uiso   1.00
C237   C     0.79768   0.34354   0.16934   0.00000  Uiso   1.00
C238   C     0.86135   0.33339   0.16839   0.00000  Uiso   1.00
C239   C     0.97341   0.32872   0.18473   0.00000  Uiso   1.00
C240   C     0.64472   0.21686   0.10520   0.00000  Uiso   1.00
C241   C     0.61060   0.15085   0.12553   0.00000  Uiso   1.00
C242   C     0.58871   0.05256   0.10454   0.00000  Uiso   1.00
C243   C     0.54296   0.88539   0.08391   0.00000  Uiso   1.00
C244   C     0.69484   0.27038   0.04897   0.00000  Uiso   1.00
C245   C     0.65482   0.37404   0.04279   0.00000  Uiso   1.00
C246   C     0.63151   0.43413   0.00281   0.00000  Uiso   1.00
C247   C     0.59588   0.52649   0.00412   0.00000  Uiso   1.00
C248   C     0.75821   0.29047   0.08913   0.00000  Uiso   1.00
C249   C     0.82182   0.28028   0.08811   0.00000  Uiso   1.00
C250   C     0.87323   0.30227   0.12844   0.00000  Uiso   1.00
C251   C     0.65656   0.18580   0.06532   0.00000  Uiso   1.00
C252   C     0.63473   0.08760   0.04430   0.00000  Uiso   1.00
C253   C     0.60058   0.02145   0.06459   0.00000  Uiso   1.00
H254   H     0.66381   0.35173   0.15344   0.00000  Uiso   1.00
H255   H     0.59822   0.52140   0.11491   0.00000  Uiso   1.00
H256   H     0.78850   0.36756   0.20020   0.00000  Uiso   1.00
H257   H     0.60144   0.17491   0.15639   0.00000  Uiso   1.00
H258   H     0.53074   0.69583   0.05461   0.00000  Uiso   1.00
H259   H     0.93196   0.37142   0.23445   0.00000  Uiso   1.00
H260   H     0.53751   0.96517   0.14207   0.00000  Uiso   1.00
H261   H     0.70407   0.24620   0.01793   0.00000  Uiso   1.00
H262   H     0.64069   0.41008   0.97195   0.00000  Uiso   1.00
H263   H     0.83097   0.25624   0.05725   0.00000  Uiso   1.00
H264   H     0.64391   0.06359   0.01344   0.00000  Uiso   1.00
H265   H     0.56521   0.60548   0.93858   0.00000  Uiso   1.00
H266   H     0.96643   0.28106   0.11843   0.00000  Uiso   1.00
H267   H     0.57198   0.87482   0.02604   0.00000  Uiso   1.00
O268   O     0.50557   0.76039   0.96880   0.00000  Uiso   1.00
O269   O     0.03195   0.33474   0.20476   0.00000  Uiso   1.00
O270   O     0.51444   0.80177   0.08355   0.00000  Uiso   1.00
N271   N     0.54754   0.65207   0.03361   0.00000  Uiso   1.00
N272   N     0.92266   0.34877   0.20175   0.00000  Uiso   1.00
N273   N     0.55389   0.96895   0.11538   0.00000  Uiso   1.00
N274   N     0.56609   0.60345   0.97117   0.00000  Uiso   1.00
N275   N     0.94121   0.30016   0.13932   0.00000  Uiso   1.00
N276   N     0.57244   0.92034   0.05295   0.00000  Uiso   1.00
C277   C     0.82697   0.82755   0.37761   0.00000  Uiso   1.00
C278   C     0.85703   0.90510   0.41734   0.00000  Uiso   1.00
C279   C     0.89263   0.99739   0.41596   0.00000  Uiso   1.00
C280   C     0.91599   0.05760   0.45592   0.00000  Uiso   1.00
C281   C     0.96444   0.18276   0.51154   0.00000  Uiso   1.00
C282   C     0.75364   0.82153   0.37100   0.00000  Uiso   1.00
C283   C     0.70232   0.84354   0.33066   0.00000  Uiso   1.00
C284   C     0.63865   0.83339   0.33161   0.00000  Uiso   1.00
C285   C     0.52659   0.82872   0.31527   0.00000  Uiso   1.00
C286   C     0.85528   0.71686   0.39480   0.00000  Uiso   1.00
C287   C     0.88940   0.65085   0.37447   0.00000  Uiso   1.00
C288   C     0.91129   0.55256   0.39546   0.00000  Uiso   1.00
C289   C     0.95704   0.38539   0.41609   0.00000  Uiso   1.00
C290   C     0.80516   0.77038   0.45103   0.00000  Uiso   1.00
C291   C     0.84518   0.87404   0.45721   0.00000  Uiso   1.00
C292   C     0.86849   0.93413   0.49719   0.00000  Uiso   1.00
C293   C     0.90412   0.02649   0.49588   0.00000  Uiso   1.00
C294   C     0.74179   0.79047   0.41087   0.00000  Uiso   1.00
C295   C     0.67818   0.78028   0.41189   0.00000  Uiso   1.00
C296   C     0.62677   0.80227   0.37156   0.00000  Uiso   1.00
C297   C     0.84344   0.68580   0.43468   0.00000  Uiso   1.00
C298   C     0.86527   0.58760   0.45570   0.00000  Uiso   1.00
C299   C     0.89942   0.52145   0.43541   0.00000  Uiso   1.00
H300   H     0.83619   0.85173   0.34656   0.00000  Uiso   1.00
H301   H     0.90178   0.02140   0.38509   0.00000  Uiso   1.00
H302   H     0.71150   0.86756   0.29980   0.00000  Uiso   1.00
H303   H     0.89856   0.67491   0.34361   0.00000  Uiso   1.00
H304   H     0.96926   0.19583   0.44539   0.00000  Uiso   1.00
H305   H     0.56804   0.87142   0.26555   0.00000  Uiso   1.00
H306   H     0.96249   0.46517   0.35793   0.00000  Uiso   1.00
H307   H     0.79593   0.74620   0.48207   0.00000  Uiso   1.00
H308   H     0.85931   0.91008   0.52805   0.00000  Uiso   1.00
H309   H     0.66903   0.75624   0.44275   0.00000  Uiso   1.00
H310   H     0.85609   0.56359   0.48656   0.00000  Uiso   1.00
H311   H     0.93479   0.10548   0.56142   0.00000  Uiso   1.00
H312   H     0.53357   0.78106   0.38157   0.00000  Uiso   1.00
H313   H     0.92802   0.37482   0.47396   0.00000  Uiso   1.00
O314   O     0.99443   0.26039   0.53120   0.00000  Uiso   1.00
O315   O     0.46805   0.83474   0.29524   0.00000  Uiso   1.00
O316   O     0.98556   0.30177   0.41645   0.00000  Uiso   1.00
N317   N     0.95246   0.15207   0.46639   0.00000  Uiso   1.00
N318   N     0.57734   0.84877   0.29825   0.00000  Uiso   1.00
N319   N     0.94611   0.46895   0.38462   0.00000  Uiso   1.00
N320   N     0.93391   0.10345   0.52883   0.00000  Uiso   1.00
N321   N     0.55879   0.80016   0.36068   0.00000  Uiso   1.00
N322   N     0.92756   0.42034   0.44705   0.00000  Uiso   1.00
C323   C     0.32697   0.32755   0.37761   0.00000  Uiso   1.00
C324   C     0.35703   0.40510   0.41734   0.00000  Uiso   1.00
C325   C     0.39263   0.49739   0.41596   0.00000  Uiso   1.00
C326   C     0.41599   0.55760   0.45592   0.00000  Uiso   1.00
C327   C     0.46444   0.68276   0.51154   0.00000  Uiso   1.00
C328   C     0.25364   0.32153   0.37100   0.00000  Uiso   1.00
C329   C     0.20232   0.34354   0.33066   0.00000  Uiso   1.00
C330   C     0.13865   0.33339   0.33161   0.00000  Uiso   1.00
C331   C     0.02659   0.32872   0.31527   0.00000  Uiso   1.00
C332   C     0.35528   0.21686   0.39480   0.00000  Uiso   1.00
C333   C     0.38940   0.15085   0.37447   0.00000  Uiso   1.00
C334   C     0.41129   0.05256   0.39546   0.00000  Uiso   1.00
C335   C     0.45704   0.88539   0.41609   0.00000  Uiso   1.00
C336   C     0.30516   0.27038   0.45103   0.00000  Uiso   1.00
C337   C     0.34518   0.37404   0.45721   0.00000  Uiso   1.00
C338   C     0.36849   0.43413   0.49719   0.00000  Uiso   1.00
C339   C     0.40412   0.52649   0.49588   0.00000  Uiso   1.00
C340   C     0.24179   0.29047   0.41087   0.00000  Uiso   1.00
C341   C     0.17818   0.28028   0.41189   0.00000  Uiso   1.00
C342   C     0.12677   0.30227   0.37156   0.00000  Uiso   1.00
C343   C     0.34344   0.18580   0.43468   0.00000  Uiso   1.00
C344   C     0.36527   0.08760   0.45570   0.00000  Uiso   1.00
C345   C     0.39942   0.02145   0.43541   0.00000  Uiso   1.00
H346   H     0.33619   0.35173   0.34656   0.00000  Uiso   1.00
H347   H     0.40178   0.52140   0.38509   0.00000  Uiso   1.00
H348   H     0.21150   0.36756   0.29980   0.00000  Uiso   1.00
H349   H     0.39856   0.17491   0.34361   0.00000  Uiso   1.00
H350   H     0.46926   0.69583   0.44539   0.00000  Uiso   1.00
H351   H     0.06804   0.37142   0.26555   0.00000  Uiso   1.00
H352   H     0.46249   0.96517   0.35793   0.00000  Uiso   1.00
H353   H     0.29593   0.24620   0.48207   0.00000  Uiso   1.00
H354   H     0.35931   0.41008   0.52805   0.00000  Uiso   1.00
H355   H     0.16903   0.25624   0.44275   0.00000  Uiso   1.00
H356   H     0.35609   0.06359   0.48656   0.00000  Uiso   1.00
H357   H     0.43479   0.60548   0.56142   0.00000  Uiso   1.00
H358   H     0.03357   0.28106   0.38157   0.00000  Uiso   1.00
H359   H     0.42802   0.87482   0.47396   0.00000  Uiso   1.00
O360   O     0.49443   0.76039   0.53120   0.00000  Uiso   1.00
O361   O     0.96805   0.33474   0.29524   0.00000  Uiso   1.00
O362   O     0.48556   0.80177   0.41645   0.00000  Uiso   1.00
N363   N     0.45246   0.65207   0.46639   0.00000  Uiso   1.00
N364   N     0.07734   0.34877   0.29825   0.00000  Uiso   1.00
N365   N     0.44611   0.96895   0.38462   0.00000  Uiso   1.00
N366   N     0.43391   0.60345   0.52883   0.00000  Uiso   1.00
N367   N     0.05879   0.30016   0.36068   0.00000  Uiso   1.00
N368   N     0.42756   0.92034   0.44705   0.00000  Uiso   1.00
