data_job_03600
_audit_creation_date              2018-12-19
_audit_creation_method            'Materials Studio'
_symmetry_space_group_name_H-M    'P1'
_symmetry_Int_Tables_number       1
_symmetry_cell_setting            triclinic
loop_
_symmetry_equiv_pos_as_xyz
  x,y,z
_cell_length_a                    10.4285
_cell_length_b                    12.5028
_cell_length_c                    30.5796
_cell_angle_alpha                 90.0000
_cell_angle_beta                  114.0850
_cell_angle_gamma                 90.0000
loop_
_atom_site_label
_atom_site_type_symbol
_atom_site_fract_x
_atom_site_fract_y
_atom_site_fract_z
_atom_site_U_iso_or_equiv
_atom_site_adp_type
_atom_site_occupancy
C1     C     0.94940   0.92035   0.36867   0.00000  Uiso   1.00
C2     C     0.94161   0.02701   0.34351   0.00000  Uiso   1.00
C3     C     0.05544   0.09011   0.34761   0.00000  Uiso   1.00
C4     C     0.02631   0.18489   0.32171   0.00000  Uiso   1.00
C5     C     0.03520   0.34589   0.28707   0.00000  Uiso   1.00
C6     C     0.85864   0.93302   0.39680   0.00000  Uiso   1.00
C7     C     0.90272   0.91708   0.44570   0.00000  Uiso   1.00
C8     C     0.80374   0.93272   0.46465   0.00000  Uiso   1.00
C9     C     0.68380   0.94772   0.51274   0.00000  Uiso   1.00
C10    C     0.87378   0.83950   0.32918   0.00000  Uiso   1.00
C11    C     0.93056   0.74490   0.32122   0.00000  Uiso   1.00
C12    C     0.84431   0.68180   0.28324   0.00000  Uiso   1.00
C13    C     0.74788   0.55159   0.22633   0.00000  Uiso   1.00
C14    C     0.69524   0.97646   0.31537   0.00000  Uiso   1.00
C15    C     0.80356   0.05748   0.31457   0.00000  Uiso   1.00
C16    C     0.77424   0.15219   0.28865   0.00000  Uiso   1.00
C17    C     0.88801   0.21542   0.29271   0.00000  Uiso   1.00
C18    C     0.72060   0.96349   0.36786   0.00000  Uiso   1.00
C19    C     0.62152   0.97916   0.38674   0.00000  Uiso   1.00
C20    C     0.66544   0.96325   0.43565   0.00000  Uiso   1.00
C21    C     0.73573   0.86997   0.30023   0.00000  Uiso   1.00
C22    C     0.64937   0.80699   0.26225   0.00000  Uiso   1.00
C23    C     0.70602   0.71233   0.25424   0.00000  Uiso   1.00
H24    H     0.05687   0.89663   0.39121   0.00000  Uiso   1.00
H25    H     0.16225   0.06650   0.37002   0.00000  Uiso   1.00
H26    H     0.00955   0.89348   0.46809   0.00000  Uiso   1.00
H27    H     0.03739   0.72135   0.34363   0.00000  Uiso   1.00
H28    H     0.21821   0.26830   0.33378   0.00000  Uiso   1.00
H29    H     0.89621   0.90345   0.54057   0.00000  Uiso   1.00
H30    H     0.95493   0.54045   0.27811   0.00000  Uiso   1.00
H31    H     0.58776   0.00019   0.29284   0.00000  Uiso   1.00
H32    H     0.66740   0.17575   0.26625   0.00000  Uiso   1.00
H33    H     0.51470   0.00274   0.36432   0.00000  Uiso   1.00
H34    H     0.54255   0.83060   0.23986   0.00000  Uiso   1.00
H35    H     0.81657   0.35698   0.24956   0.00000  Uiso   1.00
H36    H     0.49457   0.99212   0.45634   0.00000  Uiso   1.00
H37    H     0.55329   0.62913   0.19389   0.00000  Uiso   1.00
O38    O     0.07824   0.42628   0.27597   0.00000  Uiso   1.00
O39    O     0.65579   0.94758   0.54726   0.00000  Uiso   1.00
O40    O     0.73283   0.47135   0.20293   0.00000  Uiso   1.00
N41    N     0.11275   0.26507   0.31760   0.00000  Uiso   1.00
N42    N     0.81171   0.92397   0.51093   0.00000  Uiso   1.00
N43    N     0.86660   0.58459   0.26557   0.00000  Uiso   1.00
N44    N     0.89664   0.31278   0.27228   0.00000  Uiso   1.00
N45    N     0.59560   0.97168   0.46561   0.00000  Uiso   1.00
N46    N     0.65048   0.63230   0.22025   0.00000  Uiso   1.00
C47    C     0.05060   0.42035   0.13133   0.00000  Uiso   1.00
C48    C     0.05839   0.52701   0.15649   0.00000  Uiso   1.00
C49    C     0.94456   0.59011   0.15239   0.00000  Uiso   1.00
C50    C     0.97369   0.68489   0.17829   0.00000  Uiso   1.00
C51    C     0.96480   0.84589   0.21293   0.00000  Uiso   1.00
C52    C     0.14136   0.43302   0.10320   0.00000  Uiso   1.00
C53    C     0.09728   0.41708   0.05430   0.00000  Uiso   1.00
C54    C     0.19626   0.43272   0.03535   0.00000  Uiso   1.00
C55    C     0.31620   0.44772   0.98726   0.00000  Uiso   1.00
C56    C     0.12622   0.33950   0.17082   0.00000  Uiso   1.00
C57    C     0.06944   0.24490   0.17878   0.00000  Uiso   1.00
C58    C     0.15569   0.18180   0.21676   0.00000  Uiso   1.00
C59    C     0.25212   0.05159   0.27367   0.00000  Uiso   1.00
C60    C     0.30476   0.47646   0.18463   0.00000  Uiso   1.00
C61    C     0.19644   0.55748   0.18543   0.00000  Uiso   1.00
C62    C     0.22576   0.65219   0.21135   0.00000  Uiso   1.00
C63    C     0.11199   0.71542   0.20729   0.00000  Uiso   1.00
C64    C     0.27940   0.46349   0.13214   0.00000  Uiso   1.00
C65    C     0.37848   0.47916   0.11326   0.00000  Uiso   1.00
C66    C     0.33456   0.46325   0.06435   0.00000  Uiso   1.00
C67    C     0.26427   0.36997   0.19977   0.00000  Uiso   1.00
C68    C     0.35063   0.30699   0.23775   0.00000  Uiso   1.00
C69    C     0.29398   0.21233   0.24576   0.00000  Uiso   1.00
H70    H     0.94313   0.39663   0.10879   0.00000  Uiso   1.00
H71    H     0.83775   0.56650   0.12998   0.00000  Uiso   1.00
H72    H     0.99045   0.39348   0.03191   0.00000  Uiso   1.00
H73    H     0.96261   0.22135   0.15637   0.00000  Uiso   1.00
H74    H     0.78179   0.76830   0.16622   0.00000  Uiso   1.00
H75    H     0.10379   0.40345   0.95943   0.00000  Uiso   1.00
H76    H     0.04507   0.04045   0.22189   0.00000  Uiso   1.00
H77    H     0.41224   0.50019   0.20716   0.00000  Uiso   1.00
H78    H     0.33260   0.67575   0.23375   0.00000  Uiso   1.00
H79    H     0.48530   0.50274   0.13568   0.00000  Uiso   1.00
H80    H     0.45745   0.33060   0.26014   0.00000  Uiso   1.00
H81    H     0.18343   0.85698   0.25044   0.00000  Uiso   1.00
H82    H     0.50543   0.49212   0.04366   0.00000  Uiso   1.00
H83    H     0.44671   0.12913   0.30611   0.00000  Uiso   1.00
O84    O     0.92176   0.92628   0.22403   0.00000  Uiso   1.00
O85    O     0.34421   0.44758   0.95274   0.00000  Uiso   1.00
O86    O     0.26717   0.97135   0.29707   0.00000  Uiso   1.00
N87    N     0.88725   0.76507   0.18240   0.00000  Uiso   1.00
N88    N     0.18829   0.42397   0.98907   0.00000  Uiso   1.00
N89    N     0.13340   0.08459   0.23443   0.00000  Uiso   1.00
N90    N     0.10336   0.81278   0.22772   0.00000  Uiso   1.00
N91    N     0.40440   0.47168   0.03439   0.00000  Uiso   1.00
N92    N     0.34952   0.13230   0.27975   0.00000  Uiso   1.00
C93    C     0.05060   0.07965   0.63133   0.00000  Uiso   1.00
C94    C     0.05839   0.97299   0.65649   0.00000  Uiso   1.00
C95    C     0.94456   0.90989   0.65239   0.00000  Uiso   1.00
C96    C     0.97369   0.81511   0.67829   0.00000  Uiso   1.00
C97    C     0.96480   0.65411   0.71293   0.00000  Uiso   1.00
C98    C     0.14136   0.06698   0.60320   0.00000  Uiso   1.00
C99    C     0.09728   0.08292   0.55430   0.00000  Uiso   1.00
C100   C     0.19626   0.06728   0.53535   0.00000  Uiso   1.00
C101   C     0.31620   0.05228   0.48726   0.00000  Uiso   1.00
C102   C     0.12622   0.16050   0.67082   0.00000  Uiso   1.00
C103   C     0.06944   0.25510   0.67878   0.00000  Uiso   1.00
C104   C     0.15569   0.31820   0.71676   0.00000  Uiso   1.00
C105   C     0.25212   0.44841   0.77367   0.00000  Uiso   1.00
C106   C     0.30476   0.02354   0.68463   0.00000  Uiso   1.00
C107   C     0.19644   0.94252   0.68543   0.00000  Uiso   1.00
C108   C     0.22576   0.84781   0.71135   0.00000  Uiso   1.00
C109   C     0.11199   0.78458   0.70729   0.00000  Uiso   1.00
C110   C     0.27940   0.03651   0.63214   0.00000  Uiso   1.00
C111   C     0.37848   0.02084   0.61326   0.00000  Uiso   1.00
C112   C     0.33456   0.03675   0.56435   0.00000  Uiso   1.00
C113   C     0.26427   0.13003   0.69977   0.00000  Uiso   1.00
C114   C     0.35063   0.19301   0.73775   0.00000  Uiso   1.00
C115   C     0.29398   0.28767   0.74576   0.00000  Uiso   1.00
H116   H     0.94313   0.10337   0.60879   0.00000  Uiso   1.00
H117   H     0.83775   0.93350   0.62998   0.00000  Uiso   1.00
H118   H     0.99045   0.10652   0.53191   0.00000  Uiso   1.00
H119   H     0.96261   0.27865   0.65637   0.00000  Uiso   1.00
H120   H     0.78179   0.73170   0.66622   0.00000  Uiso   1.00
H121   H     0.10379   0.09655   0.45943   0.00000  Uiso   1.00
H122   H     0.04507   0.45955   0.72189   0.00000  Uiso   1.00
H123   H     0.41224   0.99981   0.70716   0.00000  Uiso   1.00
H124   H     0.33260   0.82425   0.73375   0.00000  Uiso   1.00
H125   H     0.48530   0.99726   0.63568   0.00000  Uiso   1.00
H126   H     0.45745   0.16940   0.76014   0.00000  Uiso   1.00
H127   H     0.18343   0.64302   0.75044   0.00000  Uiso   1.00
H128   H     0.50543   0.00788   0.54366   0.00000  Uiso   1.00
H129   H     0.44671   0.37087   0.80611   0.00000  Uiso   1.00
O130   O     0.92176   0.57372   0.72403   0.00000  Uiso   1.00
O131   O     0.34421   0.05242   0.45274   0.00000  Uiso   1.00
O132   O     0.26717   0.52865   0.79707   0.00000  Uiso   1.00
N133   N     0.88725   0.73493   0.68240   0.00000  Uiso   1.00
N134   N     0.18829   0.07603   0.48907   0.00000  Uiso   1.00
N135   N     0.13340   0.41541   0.73443   0.00000  Uiso   1.00
N136   N     0.10336   0.68722   0.72772   0.00000  Uiso   1.00
N137   N     0.40440   0.02832   0.53439   0.00000  Uiso   1.00
N138   N     0.34952   0.36770   0.77975   0.00000  Uiso   1.00
C139   C     0.94940   0.57965   0.86867   0.00000  Uiso   1.00
C140   C     0.94161   0.47299   0.84351   0.00000  Uiso   1.00
C141   C     0.05544   0.40989   0.84761   0.00000  Uiso   1.00
C142   C     0.02631   0.31511   0.82171   0.00000  Uiso   1.00
C143   C     0.03520   0.15411   0.78707   0.00000  Uiso   1.00
C144   C     0.85864   0.56698   0.89680   0.00000  Uiso   1.00
C145   C     0.90272   0.58292   0.94570   0.00000  Uiso   1.00
C146   C     0.80374   0.56728   0.96465   0.00000  Uiso   1.00
C147   C     0.68380   0.55228   0.01274   0.00000  Uiso   1.00
C148   C     0.87378   0.66050   0.82918   0.00000  Uiso   1.00
C149   C     0.93056   0.75510   0.82122   0.00000  Uiso   1.00
C150   C     0.84431   0.81820   0.78324   0.00000  Uiso   1.00
C151   C     0.74788   0.94841   0.72633   0.00000  Uiso   1.00
C152   C     0.69524   0.52354   0.81537   0.00000  Uiso   1.00
C153   C     0.80356   0.44252   0.81457   0.00000  Uiso   1.00
C154   C     0.77424   0.34781   0.78865   0.00000  Uiso   1.00
C155   C     0.88801   0.28458   0.79271   0.00000  Uiso   1.00
C156   C     0.72060   0.53651   0.86786   0.00000  Uiso   1.00
C157   C     0.62152   0.52084   0.88674   0.00000  Uiso   1.00
C158   C     0.66544   0.53675   0.93565   0.00000  Uiso   1.00
C159   C     0.73573   0.63003   0.80023   0.00000  Uiso   1.00
C160   C     0.64937   0.69301   0.76225   0.00000  Uiso   1.00
C161   C     0.70602   0.78767   0.75424   0.00000  Uiso   1.00
H162   H     0.05687   0.60337   0.89121   0.00000  Uiso   1.00
H163   H     0.16225   0.43350   0.87002   0.00000  Uiso   1.00
H164   H     0.00955   0.60652   0.96809   0.00000  Uiso   1.00
H165   H     0.03739   0.77865   0.84363   0.00000  Uiso   1.00
H166   H     0.21821   0.23170   0.83378   0.00000  Uiso   1.00
H167   H     0.89621   0.59655   0.04057   0.00000  Uiso   1.00
H168   H     0.95493   0.95955   0.77811   0.00000  Uiso   1.00
H169   H     0.58776   0.49981   0.79284   0.00000  Uiso   1.00
H170   H     0.66740   0.32425   0.76625   0.00000  Uiso   1.00
H171   H     0.51470   0.49726   0.86432   0.00000  Uiso   1.00
H172   H     0.54255   0.66940   0.73986   0.00000  Uiso   1.00
H173   H     0.81657   0.14302   0.74956   0.00000  Uiso   1.00
H174   H     0.49457   0.50788   0.95634   0.00000  Uiso   1.00
H175   H     0.55329   0.87087   0.69389   0.00000  Uiso   1.00
O176   O     0.07824   0.07372   0.77597   0.00000  Uiso   1.00
O177   O     0.65579   0.55242   0.04726   0.00000  Uiso   1.00
O178   O     0.73283   0.02865   0.70293   0.00000  Uiso   1.00
N179   N     0.11275   0.23493   0.81760   0.00000  Uiso   1.00
N180   N     0.81171   0.57603   0.01093   0.00000  Uiso   1.00
N181   N     0.86660   0.91541   0.76557   0.00000  Uiso   1.00
N182   N     0.89664   0.18722   0.77228   0.00000  Uiso   1.00
N183   N     0.59560   0.52832   0.96561   0.00000  Uiso   1.00
N184   N     0.65048   0.86770   0.72025   0.00000  Uiso   1.00
