data_job_05953
_audit_creation_date              2018-12-19
_audit_creation_method            'Materials Studio'
_symmetry_space_group_name_H-M    'P1'
_symmetry_Int_Tables_number       1
_symmetry_cell_setting            triclinic
loop_
_symmetry_equiv_pos_as_xyz
  x,y,z
_cell_length_a                    7.8893
_cell_length_b                    22.2100
_cell_length_c                    22.9398
_cell_angle_alpha                 118.3780
_cell_angle_beta                  80.5207
_cell_angle_gamma                 89.6732
loop_
_atom_site_label
_atom_site_type_symbol
_atom_site_fract_x
_atom_site_fract_y
_atom_site_fract_z
_atom_site_U_iso_or_equiv
_atom_site_adp_type
_atom_site_occupancy
C1     C     0.41593   0.78742   0.16695   0.00000  Uiso   1.00
C2     C     0.29951   0.79194   0.22923   0.00000  Uiso   1.00
C3     C     0.35184   0.80311   0.28816   0.00000  Uiso   1.00
C4     C     0.22567   0.80552   0.33936   0.00000  Uiso   1.00
C5     C     0.07112   0.81378   0.43720   0.00000  Uiso   1.00
C6     C     0.39443   0.71802   0.10817   0.00000  Uiso   1.00
C7     C     0.52658   0.66704   0.06531   0.00000  Uiso   1.00
C8     C     0.48031   0.60723   0.01460   0.00000  Uiso   1.00
C9     C     0.47313   0.50076   0.92446   0.00000  Uiso   1.00
C10    C     0.33653   0.84162   0.15393   0.00000  Uiso   1.00
C11    C     0.42000   0.89456   0.14953   0.00000  Uiso   1.00
C12    C     0.32499   0.93881   0.13733   0.00000  Uiso   1.00
C13    C     0.22792   0.02424   0.11825   0.00000  Uiso   1.00
C14    C     0.09879   0.77185   0.15308   0.00000  Uiso   1.00
C15    C     0.12725   0.78348   0.22169   0.00000  Uiso   1.00
C16    C     0.00096   0.78587   0.27282   0.00000  Uiso   1.00
C17    C     0.05310   0.79704   0.33182   0.00000  Uiso   1.00
C18    C     0.22218   0.70956   0.10063   0.00000  Uiso   1.00
C19    C     0.17570   0.64981   0.04997   0.00000  Uiso   1.00
C20    C     0.30774   0.59875   0.00705   0.00000  Uiso   1.00
C21    C     0.16427   0.83316   0.14640   0.00000  Uiso   1.00
C22    C     0.06912   0.87733   0.13419   0.00000  Uiso   1.00
C23    C     0.15243   0.93033   0.12978   0.00000  Uiso   1.00
H24    H     0.55004   0.79400   0.17281   0.00000  Uiso   1.00
H25    H     0.48517   0.80964   0.29397   0.00000  Uiso   1.00
H26    H     0.65987   0.67361   0.07115   0.00000  Uiso   1.00
H27    H     0.55331   0.90109   0.15536   0.00000  Uiso   1.00
H28    H     0.33729   0.82323   0.42497   0.00000  Uiso   1.00
H29    H     0.70567   0.53640   0.95513   0.00000  Uiso   1.00
H30    H     0.48096   0.01609   0.13271   0.00000  Uiso   1.00
H31    H     0.96468   0.76526   0.14721   0.00000  Uiso   1.00
H32    H     0.86767   0.77932   0.26697   0.00000  Uiso   1.00
H33    H     0.04238   0.64328   0.04415   0.00000  Uiso   1.00
H34    H     0.93582   0.87077   0.12837   0.00000  Uiso   1.00
H35    H     0.83611   0.79862   0.40306   0.00000  Uiso   1.00
H36    H     0.20450   0.51178   0.93321   0.00000  Uiso   1.00
H37    H     0.97978   0.99148   0.11080   0.00000  Uiso   1.00
O38    O     0.03346   0.82067   0.49325   0.00000  Uiso   1.00
O39    O     0.51677   0.44437   0.87683   0.00000  Uiso   1.00
O40    O     0.22196   0.07371   0.10981   0.00000  Uiso   1.00
N41    N     0.23264   0.81552   0.40338   0.00000  Uiso   1.00
N42    N     0.57705   0.54734   0.96411   0.00000  Uiso   1.00
N43    N     0.36698   0.99581   0.13012   0.00000  Uiso   1.00
N44    N     0.96296   0.80228   0.39159   0.00000  Uiso   1.00
N45    N     0.30737   0.53410   0.95233   0.00000  Uiso   1.00
N46    N     0.09730   0.98256   0.11833   0.00000  Uiso   1.00
C47    C     0.59430   0.83652   0.62038   0.00000  Uiso   1.00
C48    C     0.53823   0.77124   0.56594   0.00000  Uiso   1.00
C49    C     0.64710   0.71387   0.51735   0.00000  Uiso   1.00
C50    C     0.57066   0.65938   0.47203   0.00000  Uiso   1.00
C51    C     0.51082   0.55760   0.38699   0.00000  Uiso   1.00
C52    C     0.52536   0.89549   0.61172   0.00000  Uiso   1.00
C53    C     0.62340   0.94259   0.60164   0.00000  Uiso   1.00
C54    C     0.53611   0.99270   0.59487   0.00000  Uiso   1.00
C55    C     0.45627   0.08386   0.58096   0.00000  Uiso   1.00
C56    C     0.49361   0.84644   0.68754   0.00000  Uiso   1.00
C57    C     0.56495   0.85231   0.74121   0.00000  Uiso   1.00
C58    C     0.45092   0.86115   0.79828   0.00000  Uiso   1.00
C59    C     0.32179   0.87613   0.90209   0.00000  Uiso   1.00
C60    C     0.26495   0.84179   0.62631   0.00000  Uiso   1.00
C61    C     0.35934   0.77411   0.56916   0.00000  Uiso   1.00
C62    C     0.28271   0.71969   0.52391   0.00000  Uiso   1.00
C63    C     0.39144   0.66225   0.47526   0.00000  Uiso   1.00
C64    C     0.34648   0.89836   0.61494   0.00000  Uiso   1.00
C65    C     0.25902   0.94842   0.60820   0.00000  Uiso   1.00
C66    C     0.35690   0.99557   0.59810   0.00000  Uiso   1.00
C67    C     0.31472   0.84930   0.69076   0.00000  Uiso   1.00
C68    C     0.20056   0.85814   0.74777   0.00000  Uiso   1.00
C69    C     0.27171   0.86401   0.80151   0.00000  Uiso   1.00
H70    H     0.73357   0.83430   0.61787   0.00000  Uiso   1.00
H71    H     0.78553   0.71167   0.51487   0.00000  Uiso   1.00
H72    H     0.76183   0.94036   0.59915   0.00000  Uiso   1.00
H73    H     0.70339   0.85010   0.73870   0.00000  Uiso   1.00
H74    H     0.76426   0.57699   0.40207   0.00000  Uiso   1.00
H75    H     0.71428   0.05922   0.57982   0.00000  Uiso   1.00
H76    H     0.59104   0.86887   0.87408   0.00000  Uiso   1.00
H77    H     0.12567   0.84402   0.62882   0.00000  Uiso   1.00
H78    H     0.14427   0.72192   0.52642   0.00000  Uiso   1.00
H79    H     0.12058   0.95062   0.61070   0.00000  Uiso   1.00
H80    H     0.06214   0.86035   0.75025   0.00000  Uiso   1.00
H81    H     0.24379   0.58532   0.41145   0.00000  Uiso   1.00
H82    H     0.19381   0.06754   0.58919   0.00000  Uiso   1.00
H83    H     0.07057   0.87719   0.88345   0.00000  Uiso   1.00
O84    O     0.52723   0.50067   0.33919   0.00000  Uiso   1.00
O85    O     0.46166   0.13334   0.57239   0.00000  Uiso   1.00
O86    O     0.29998   0.88360   0.95845   0.00000  Uiso   1.00
N87    N     0.63921   0.59570   0.41834   0.00000  Uiso   1.00
N88    N     0.59249   0.04655   0.58451   0.00000  Uiso   1.00
N89    N     0.47727   0.86861   0.85962   0.00000  Uiso   1.00
N90    N     0.35915   0.60018   0.42339   0.00000  Uiso   1.00
N91    N     0.31243   0.05102   0.58955   0.00000  Uiso   1.00
N92    N     0.19721   0.87308   0.86467   0.00000  Uiso   1.00
C93    C     0.21299   0.38149   0.21290   0.00000  Uiso   1.00
C94    C     0.11303   0.43513   0.20475   0.00000  Uiso   1.00
C95    C     0.18304   0.48739   0.19467   0.00000  Uiso   1.00
C96    C     0.07000   0.53121   0.18843   0.00000  Uiso   1.00
C97    C     0.94166   0.61576   0.17524   0.00000  Uiso   1.00
C98    C     0.12636   0.38729   0.28013   0.00000  Uiso   1.00
C99    C     0.20759   0.39932   0.33343   0.00000  Uiso   1.00
C100   C     0.10577   0.40286   0.39064   0.00000  Uiso   1.00
C101   C     0.99814   0.41309   0.49447   0.00000  Uiso   1.00
C102   C     0.17668   0.31172   0.15851   0.00000  Uiso   1.00
C103   C     0.30022   0.26018   0.10955   0.00000  Uiso   1.00
C104   C     0.24077   0.20009   0.06438   0.00000  Uiso   1.00
C105   C     0.21128   0.09297   0.97937   0.00000  Uiso   1.00
C106   C     0.88774   0.36640   0.21974   0.00000  Uiso   1.00
C107   C     0.93637   0.42693   0.20847   0.00000  Uiso   1.00
C108   C     0.82319   0.47068   0.20224   0.00000  Uiso   1.00
C109   C     0.89303   0.52299   0.19215   0.00000  Uiso   1.00
C110   C     0.94971   0.37909   0.28385   0.00000  Uiso   1.00
C111   C     0.84774   0.38261   0.34100   0.00000  Uiso   1.00
C112   C     0.92879   0.39464   0.39436   0.00000  Uiso   1.00
C113   C     0.00002   0.30351   0.16223   0.00000  Uiso   1.00
C114   C     0.94037   0.24348   0.11712   0.00000  Uiso   1.00
C115   C     0.06379   0.19187   0.06810   0.00000  Uiso   1.00
H116   H     0.35052   0.38788   0.21001   0.00000  Uiso   1.00
H117   H     0.31976   0.49372   0.19180   0.00000  Uiso   1.00
H118   H     0.34430   0.40565   0.33053   0.00000  Uiso   1.00
H119   H     0.43692   0.26655   0.10669   0.00000  Uiso   1.00
H120   H     0.20774   0.60746   0.17328   0.00000  Uiso   1.00
H121   H     0.25950   0.42175   0.46579   0.00000  Uiso   1.00
H122   H     0.45480   0.12841   0.99378   0.00000  Uiso   1.00
H123   H     0.75020   0.36001   0.22264   0.00000  Uiso   1.00
H124   H     0.68649   0.46432   0.20512   0.00000  Uiso   1.00
H125   H     0.71104   0.37626   0.34385   0.00000  Uiso   1.00
H126   H     0.80365   0.23715   0.12002   0.00000  Uiso   1.00
H127   H     0.69375   0.58361   0.18409   0.00000  Uiso   1.00
H128   H     0.74552   0.39789   0.47661   0.00000  Uiso   1.00
H129   H     0.94082   0.10456   0.00459   0.00000  Uiso   1.00
O130   O     0.91966   0.66467   0.16695   0.00000  Uiso   1.00
O131   O     0.98759   0.42101   0.55072   0.00000  Uiso   1.00
O132   O     0.24381   0.03616   0.93145   0.00000  Uiso   1.00
N133   N     0.09552   0.58752   0.17821   0.00000  Uiso   1.00
N134   N     0.14391   0.41391   0.45170   0.00000  Uiso   1.00
N135   N     0.32650   0.13965   0.01042   0.00000  Uiso   1.00
N136   N     0.81895   0.57469   0.18403   0.00000  Uiso   1.00
N137   N     0.86734   0.40107   0.45752   0.00000  Uiso   1.00
N138   N     0.04993   0.12682   0.01624   0.00000  Uiso   1.00
C139   C     0.58407   0.21258   0.83306   0.00000  Uiso   1.00
C140   C     0.70049   0.20806   0.77077   0.00000  Uiso   1.00
C141   C     0.64816   0.19689   0.71184   0.00000  Uiso   1.00
C142   C     0.77433   0.19448   0.66064   0.00000  Uiso   1.00
C143   C     0.92888   0.18622   0.56280   0.00000  Uiso   1.00
C144   C     0.60557   0.28198   0.89183   0.00000  Uiso   1.00
C145   C     0.47342   0.33296   0.93469   0.00000  Uiso   1.00
C146   C     0.51969   0.39277   0.98540   0.00000  Uiso   1.00
C147   C     0.52687   0.49924   0.07554   0.00000  Uiso   1.00
C148   C     0.66347   0.15838   0.84607   0.00000  Uiso   1.00
C149   C     0.58000   0.10544   0.85047   0.00000  Uiso   1.00
C150   C     0.67501   0.06119   0.86267   0.00000  Uiso   1.00
C151   C     0.77208   0.97576   0.88175   0.00000  Uiso   1.00
C152   C     0.90121   0.22815   0.84692   0.00000  Uiso   1.00
C153   C     0.87275   0.21652   0.77831   0.00000  Uiso   1.00
C154   C     0.99904   0.21413   0.72718   0.00000  Uiso   1.00
C155   C     0.94690   0.20296   0.66818   0.00000  Uiso   1.00
C156   C     0.77782   0.29044   0.89937   0.00000  Uiso   1.00
C157   C     0.82430   0.35019   0.95003   0.00000  Uiso   1.00
C158   C     0.69226   0.40125   0.99295   0.00000  Uiso   1.00
C159   C     0.83573   0.16684   0.85360   0.00000  Uiso   1.00
C160   C     0.93088   0.12267   0.86581   0.00000  Uiso   1.00
C161   C     0.84757   0.06967   0.87022   0.00000  Uiso   1.00
H162   H     0.44996   0.20600   0.82719   0.00000  Uiso   1.00
H163   H     0.51483   0.19036   0.70603   0.00000  Uiso   1.00
H164   H     0.34013   0.32639   0.92885   0.00000  Uiso   1.00
H165   H     0.44669   0.09891   0.84464   0.00000  Uiso   1.00
H166   H     0.66271   0.17677   0.57503   0.00000  Uiso   1.00
H167   H     0.29433   0.46360   0.04487   0.00000  Uiso   1.00
H168   H     0.51904   0.98391   0.86729   0.00000  Uiso   1.00
H169   H     0.03532   0.23474   0.85279   0.00000  Uiso   1.00
H170   H     0.13233   0.22068   0.73303   0.00000  Uiso   1.00
H171   H     0.95762   0.35672   0.95585   0.00000  Uiso   1.00
H172   H     0.06418   0.12923   0.87163   0.00000  Uiso   1.00
H173   H     0.16389   0.20138   0.59694   0.00000  Uiso   1.00
H174   H     0.79550   0.48822   0.06679   0.00000  Uiso   1.00
H175   H     0.02022   0.00852   0.88920   0.00000  Uiso   1.00
O176   O     0.96654   0.17933   0.50675   0.00000  Uiso   1.00
O177   O     0.48323   0.55563   0.12317   0.00000  Uiso   1.00
O178   O     0.77804   0.92629   0.89019   0.00000  Uiso   1.00
N179   N     0.76736   0.18448   0.59662   0.00000  Uiso   1.00
N180   N     0.42295   0.45266   0.03589   0.00000  Uiso   1.00
N181   N     0.63302   0.00419   0.86988   0.00000  Uiso   1.00
N182   N     0.03704   0.19772   0.60841   0.00000  Uiso   1.00
N183   N     0.69263   0.46590   0.04767   0.00000  Uiso   1.00
N184   N     0.90270   0.01744   0.88167   0.00000  Uiso   1.00
C185   C     0.40570   0.16348   0.37962   0.00000  Uiso   1.00
C186   C     0.46177   0.22876   0.43406   0.00000  Uiso   1.00
C187   C     0.35290   0.28613   0.48265   0.00000  Uiso   1.00
C188   C     0.42934   0.34062   0.52797   0.00000  Uiso   1.00
C189   C     0.48918   0.44240   0.61301   0.00000  Uiso   1.00
C190   C     0.47464   0.10451   0.38828   0.00000  Uiso   1.00
C191   C     0.37660   0.05741   0.39836   0.00000  Uiso   1.00
C192   C     0.46389   0.00730   0.40513   0.00000  Uiso   1.00
C193   C     0.54373   0.91615   0.41904   0.00000  Uiso   1.00
C194   C     0.50639   0.15356   0.31246   0.00000  Uiso   1.00
C195   C     0.43505   0.14769   0.25879   0.00000  Uiso   1.00
C196   C     0.54908   0.13885   0.20172   0.00000  Uiso   1.00
C197   C     0.67821   0.12387   0.09791   0.00000  Uiso   1.00
C198   C     0.73505   0.15821   0.37369   0.00000  Uiso   1.00
C199   C     0.64066   0.22589   0.43084   0.00000  Uiso   1.00
C200   C     0.71729   0.28031   0.47609   0.00000  Uiso   1.00
C201   C     0.60856   0.33775   0.52474   0.00000  Uiso   1.00
C202   C     0.65352   0.10164   0.38506   0.00000  Uiso   1.00
C203   C     0.74098   0.05158   0.39180   0.00000  Uiso   1.00
C204   C     0.64310   0.00443   0.40190   0.00000  Uiso   1.00
C205   C     0.68528   0.15070   0.30924   0.00000  Uiso   1.00
C206   C     0.79944   0.14186   0.25223   0.00000  Uiso   1.00
C207   C     0.72829   0.13599   0.19849   0.00000  Uiso   1.00
H208   H     0.26643   0.16570   0.38213   0.00000  Uiso   1.00
H209   H     0.21447   0.28833   0.48513   0.00000  Uiso   1.00
H210   H     0.23817   0.05964   0.40085   0.00000  Uiso   1.00
H211   H     0.29661   0.14990   0.26130   0.00000  Uiso   1.00
H212   H     0.23574   0.42301   0.59793   0.00000  Uiso   1.00
H213   H     0.28572   0.94078   0.42018   0.00000  Uiso   1.00
H214   H     0.40896   0.13113   0.12592   0.00000  Uiso   1.00
H215   H     0.87433   0.15598   0.37118   0.00000  Uiso   1.00
H216   H     0.85573   0.27808   0.47358   0.00000  Uiso   1.00
H217   H     0.87942   0.04938   0.38930   0.00000  Uiso   1.00
H218   H     0.93786   0.13965   0.24975   0.00000  Uiso   1.00
H219   H     0.75621   0.41468   0.58855   0.00000  Uiso   1.00
H220   H     0.80619   0.93246   0.41081   0.00000  Uiso   1.00
H221   H     0.92943   0.12281   0.11655   0.00000  Uiso   1.00
O222   O     0.47277   0.49933   0.66082   0.00000  Uiso   1.00
O223   O     0.53834   0.86666   0.42761   0.00000  Uiso   1.00
O224   O     0.70002   0.11640   0.04155   0.00000  Uiso   1.00
N225   N     0.36079   0.40430   0.58166   0.00000  Uiso   1.00
N226   N     0.40751   0.95345   0.41549   0.00000  Uiso   1.00
N227   N     0.52273   0.13139   0.14038   0.00000  Uiso   1.00
N228   N     0.64085   0.39982   0.57661   0.00000  Uiso   1.00
N229   N     0.68757   0.94898   0.41045   0.00000  Uiso   1.00
N230   N     0.80279   0.12692   0.13533   0.00000  Uiso   1.00
C231   C     0.78701   0.61851   0.78710   0.00000  Uiso   1.00
C232   C     0.88697   0.56487   0.79525   0.00000  Uiso   1.00
C233   C     0.81696   0.51261   0.80533   0.00000  Uiso   1.00
C234   C     0.93000   0.46879   0.81157   0.00000  Uiso   1.00
C235   C     0.05834   0.38424   0.82476   0.00000  Uiso   1.00
C236   C     0.87364   0.61271   0.71987   0.00000  Uiso   1.00
C237   C     0.79241   0.60068   0.66657   0.00000  Uiso   1.00
C238   C     0.89423   0.59714   0.60936   0.00000  Uiso   1.00
C239   C     0.00186   0.58691   0.50553   0.00000  Uiso   1.00
C240   C     0.82332   0.68828   0.84149   0.00000  Uiso   1.00
C241   C     0.69978   0.73982   0.89045   0.00000  Uiso   1.00
C242   C     0.75923   0.79991   0.93563   0.00000  Uiso   1.00
C243   C     0.78872   0.90703   0.02063   0.00000  Uiso   1.00
C244   C     0.11226   0.63360   0.78026   0.00000  Uiso   1.00
C245   C     0.06363   0.57307   0.79153   0.00000  Uiso   1.00
C246   C     0.17681   0.52932   0.79776   0.00000  Uiso   1.00
C247   C     0.10697   0.47701   0.80785   0.00000  Uiso   1.00
C248   C     0.05029   0.62091   0.71615   0.00000  Uiso   1.00
C249   C     0.15226   0.61739   0.65900   0.00000  Uiso   1.00
C250   C     0.07121   0.60536   0.60564   0.00000  Uiso   1.00
C251   C     0.99998   0.69649   0.83777   0.00000  Uiso   1.00
C252   C     0.05963   0.75652   0.88288   0.00000  Uiso   1.00
C253   C     0.93621   0.80813   0.93190   0.00000  Uiso   1.00
H254   H     0.64948   0.61212   0.78999   0.00000  Uiso   1.00
H255   H     0.68024   0.50628   0.80820   0.00000  Uiso   1.00
H256   H     0.65570   0.59435   0.66947   0.00000  Uiso   1.00
H257   H     0.56308   0.73345   0.89331   0.00000  Uiso   1.00
H258   H     0.79226   0.39254   0.82672   0.00000  Uiso   1.00
H259   H     0.74050   0.57825   0.53421   0.00000  Uiso   1.00
H260   H     0.54520   0.87159   0.00622   0.00000  Uiso   1.00
H261   H     0.24980   0.63999   0.77736   0.00000  Uiso   1.00
H262   H     0.31351   0.53568   0.79488   0.00000  Uiso   1.00
H263   H     0.28896   0.62374   0.65615   0.00000  Uiso   1.00
H264   H     0.19635   0.76285   0.87998   0.00000  Uiso   1.00
H265   H     0.30625   0.41639   0.81591   0.00000  Uiso   1.00
H266   H     0.25448   0.60211   0.52339   0.00000  Uiso   1.00
H267   H     0.05918   0.89544   0.99541   0.00000  Uiso   1.00
O268   O     0.08034   0.33533   0.83305   0.00000  Uiso   1.00
O269   O     0.01241   0.57899   0.44928   0.00000  Uiso   1.00
O270   O     0.75619   0.96384   0.06855   0.00000  Uiso   1.00
N271   N     0.90448   0.41248   0.82179   0.00000  Uiso   1.00
N272   N     0.85609   0.58609   0.54830   0.00000  Uiso   1.00
N273   N     0.67350   0.86035   0.98958   0.00000  Uiso   1.00
N274   N     0.18105   0.42531   0.81597   0.00000  Uiso   1.00
N275   N     0.13266   0.59893   0.54248   0.00000  Uiso   1.00
N276   N     0.95007   0.87318   0.98376   0.00000  Uiso   1.00
