data_job_00707
_audit_creation_date              2018-12-19
_audit_creation_method            'Materials Studio'
_symmetry_space_group_name_H-M    'P1'
_symmetry_Int_Tables_number       1
_symmetry_cell_setting            triclinic
loop_
_symmetry_equiv_pos_as_xyz
  x,y,z
_cell_length_a                    31.4574
_cell_length_b                    18.6198
_cell_length_c                    8.8905
_cell_angle_alpha                 90.0000
_cell_angle_beta                  90.0000
_cell_angle_gamma                 90.0000
loop_
_atom_site_label
_atom_site_type_symbol
_atom_site_fract_x
_atom_site_fract_y
_atom_site_fract_z
_atom_site_U_iso_or_equiv
_atom_site_adp_type
_atom_site_occupancy
C1     C     0.60333   0.07107   0.60953   0.00000  Uiso   1.00
C2     C     0.64706   0.10633   0.60491   0.00000  Uiso   1.00
C3     C     0.66379   0.14463   0.48478   0.00000  Uiso   1.00
C4     C     0.70437   0.17268   0.50267   0.00000  Uiso   1.00
C5     C     0.76879   0.22891   0.47519   0.00000  Uiso   1.00
C6     C     0.61111   0.99205   0.64522   0.00000  Uiso   1.00
C7     C     0.59760   0.93426   0.55899   0.00000  Uiso   1.00
C8     C     0.60791   0.86611   0.61083   0.00000  Uiso   1.00
C9     C     0.61649   0.74492   0.64599   0.00000  Uiso   1.00
C10    C     0.58082   0.10230   0.74663   0.00000  Uiso   1.00
C11    C     0.54183   0.13720   0.74567   0.00000  Uiso   1.00
C12    C     0.52663   0.16186   0.88290   0.00000  Uiso   1.00
C13    C     0.48817   0.21184   0.07550   0.00000  Uiso   1.00
C14    C     0.64565   0.05280   0.85493   0.00000  Uiso   1.00
C15    C     0.67005   0.09641   0.73820   0.00000  Uiso   1.00
C16    C     0.71061   0.12441   0.75628   0.00000  Uiso   1.00
C17    C     0.72740   0.16274   0.63620   0.00000  Uiso   1.00
C18    C     0.63409   0.98213   0.77850   0.00000  Uiso   1.00
C19    C     0.64442   0.91405   0.83049   0.00000  Uiso   1.00
C20    C     0.63094   0.85617   0.74436   0.00000  Uiso   1.00
C21    C     0.60380   0.09238   0.87992   0.00000  Uiso   1.00
C22    C     0.58866   0.11698   0.01717   0.00000  Uiso   1.00
C23    C     0.54966   0.15191   0.01643   0.00000  Uiso   1.00
H24    H     0.58543   0.07879   0.50576   0.00000  Uiso   1.00
H25    H     0.64599   0.15229   0.38164   0.00000  Uiso   1.00
H26    H     0.57981   0.94196   0.45586   0.00000  Uiso   1.00
H27    H     0.52405   0.14487   0.64251   0.00000  Uiso   1.00
H28    H     0.72328   0.22937   0.30280   0.00000  Uiso   1.00
H29    H     0.58372   0.78588   0.45930   0.00000  Uiso   1.00
H30    H     0.46614   0.21375   0.85289   0.00000  Uiso   1.00
H31    H     0.66354   0.04507   0.95870   0.00000  Uiso   1.00
H32    H     0.72839   0.11672   0.85944   0.00000  Uiso   1.00
H33    H     0.66221   0.90639   0.93364   0.00000  Uiso   1.00
H34    H     0.60645   0.10930   0.12030   0.00000  Uiso   1.00
H35    H     0.79016   0.20050   0.69059   0.00000  Uiso   1.00
H36    H     0.65060   0.75701   0.84709   0.00000  Uiso   1.00
H37    H     0.53302   0.18488   0.24068   0.00000  Uiso   1.00
O38    O     0.79797   0.26266   0.42321   0.00000  Uiso   1.00
O39    O     0.61487   0.68081   0.62854   0.00000  Uiso   1.00
O40    O     0.46061   0.24217   0.14492   0.00000  Uiso   1.00
N41    N     0.73012   0.21276   0.40770   0.00000  Uiso   1.00
N42    N     0.59964   0.79812   0.55400   0.00000  Uiso   1.00
N43    N     0.48971   0.19812   0.92199   0.00000  Uiso   1.00
N44    N     0.76610   0.19722   0.61637   0.00000  Uiso   1.00
N45    N     0.63563   0.78258   0.76267   0.00000  Uiso   1.00
N46    N     0.52570   0.18259   0.13065   0.00000  Uiso   1.00
C47    C     0.89667   0.92893   0.10953   0.00000  Uiso   1.00
C48    C     0.85294   0.89367   0.10491   0.00000  Uiso   1.00
C49    C     0.83621   0.85537   0.98478   0.00000  Uiso   1.00
C50    C     0.79563   0.82732   0.00267   0.00000  Uiso   1.00
C51    C     0.73121   0.77109   0.97519   0.00000  Uiso   1.00
C52    C     0.88889   0.00795   0.14522   0.00000  Uiso   1.00
C53    C     0.90240   0.06574   0.05899   0.00000  Uiso   1.00
C54    C     0.89209   0.13389   0.11083   0.00000  Uiso   1.00
C55    C     0.88351   0.25508   0.14599   0.00000  Uiso   1.00
C56    C     0.91918   0.89770   0.24663   0.00000  Uiso   1.00
C57    C     0.95817   0.86280   0.24567   0.00000  Uiso   1.00
C58    C     0.97337   0.83814   0.38290   0.00000  Uiso   1.00
C59    C     0.01183   0.78816   0.57550   0.00000  Uiso   1.00
C60    C     0.85435   0.94720   0.35493   0.00000  Uiso   1.00
C61    C     0.82995   0.90359   0.23820   0.00000  Uiso   1.00
C62    C     0.78939   0.87559   0.25628   0.00000  Uiso   1.00
C63    C     0.77260   0.83726   0.13620   0.00000  Uiso   1.00
C64    C     0.86591   0.01787   0.27850   0.00000  Uiso   1.00
C65    C     0.85558   0.08595   0.33049   0.00000  Uiso   1.00
C66    C     0.86906   0.14383   0.24436   0.00000  Uiso   1.00
C67    C     0.89620   0.90762   0.37992   0.00000  Uiso   1.00
C68    C     0.91134   0.88302   0.51717   0.00000  Uiso   1.00
C69    C     0.95034   0.84809   0.51643   0.00000  Uiso   1.00
H70    H     0.91457   0.92121   0.00576   0.00000  Uiso   1.00
H71    H     0.85401   0.84771   0.88164   0.00000  Uiso   1.00
H72    H     0.92019   0.05804   0.95586   0.00000  Uiso   1.00
H73    H     0.97595   0.85513   0.14251   0.00000  Uiso   1.00
H74    H     0.77672   0.77063   0.80280   0.00000  Uiso   1.00
H75    H     0.91628   0.21412   0.95930   0.00000  Uiso   1.00
H76    H     0.03386   0.78625   0.35289   0.00000  Uiso   1.00
H77    H     0.83646   0.95493   0.45870   0.00000  Uiso   1.00
H78    H     0.77161   0.88328   0.35944   0.00000  Uiso   1.00
H79    H     0.83779   0.09361   0.43364   0.00000  Uiso   1.00
H80    H     0.89355   0.89070   0.62030   0.00000  Uiso   1.00
H81    H     0.70984   0.79950   0.19059   0.00000  Uiso   1.00
H82    H     0.84940   0.24299   0.34709   0.00000  Uiso   1.00
H83    H     0.96698   0.81512   0.74068   0.00000  Uiso   1.00
O84    O     0.70203   0.73734   0.92321   0.00000  Uiso   1.00
O85    O     0.88513   0.31919   0.12854   0.00000  Uiso   1.00
O86    O     0.03939   0.75783   0.64492   0.00000  Uiso   1.00
N87    N     0.76988   0.78724   0.90770   0.00000  Uiso   1.00
N88    N     0.90036   0.20188   0.05400   0.00000  Uiso   1.00
N89    N     0.01029   0.80188   0.42199   0.00000  Uiso   1.00
N90    N     0.73390   0.80278   0.11637   0.00000  Uiso   1.00
N91    N     0.86437   0.21742   0.26267   0.00000  Uiso   1.00
N92    N     0.97430   0.81741   0.63065   0.00000  Uiso   1.00
C93    C     0.39667   0.57107   0.89047   0.00000  Uiso   1.00
C94    C     0.35294   0.60633   0.89509   0.00000  Uiso   1.00
C95    C     0.33621   0.64463   0.01522   0.00000  Uiso   1.00
C96    C     0.29563   0.67268   0.99733   0.00000  Uiso   1.00
C97    C     0.23121   0.72891   0.02481   0.00000  Uiso   1.00
C98    C     0.38889   0.49205   0.85478   0.00000  Uiso   1.00
C99    C     0.40240   0.43426   0.94101   0.00000  Uiso   1.00
C100   C     0.39209   0.36611   0.88917   0.00000  Uiso   1.00
C101   C     0.38351   0.24492   0.85401   0.00000  Uiso   1.00
C102   C     0.41918   0.60230   0.75337   0.00000  Uiso   1.00
C103   C     0.45817   0.63720   0.75433   0.00000  Uiso   1.00
C104   C     0.47337   0.66186   0.61710   0.00000  Uiso   1.00
C105   C     0.51183   0.71184   0.42450   0.00000  Uiso   1.00
C106   C     0.35435   0.55280   0.64507   0.00000  Uiso   1.00
C107   C     0.32995   0.59641   0.76180   0.00000  Uiso   1.00
C108   C     0.28939   0.62441   0.74372   0.00000  Uiso   1.00
C109   C     0.27260   0.66274   0.86380   0.00000  Uiso   1.00
C110   C     0.36591   0.48213   0.72150   0.00000  Uiso   1.00
C111   C     0.35558   0.41405   0.66951   0.00000  Uiso   1.00
C112   C     0.36906   0.35617   0.75564   0.00000  Uiso   1.00
C113   C     0.39620   0.59238   0.62008   0.00000  Uiso   1.00
C114   C     0.41134   0.61698   0.48283   0.00000  Uiso   1.00
C115   C     0.45034   0.65191   0.48357   0.00000  Uiso   1.00
H116   H     0.41457   0.57879   0.99424   0.00000  Uiso   1.00
H117   H     0.35401   0.65229   0.11836   0.00000  Uiso   1.00
H118   H     0.42019   0.44196   0.04414   0.00000  Uiso   1.00
H119   H     0.47595   0.64487   0.85749   0.00000  Uiso   1.00
H120   H     0.27672   0.72937   0.19720   0.00000  Uiso   1.00
H121   H     0.41628   0.28588   0.04070   0.00000  Uiso   1.00
H122   H     0.53386   0.71375   0.64711   0.00000  Uiso   1.00
H123   H     0.33646   0.54507   0.54130   0.00000  Uiso   1.00
H124   H     0.27161   0.61672   0.64056   0.00000  Uiso   1.00
H125   H     0.33779   0.40639   0.56636   0.00000  Uiso   1.00
H126   H     0.39355   0.60930   0.37970   0.00000  Uiso   1.00
H127   H     0.20984   0.70050   0.80941   0.00000  Uiso   1.00
H128   H     0.34940   0.25701   0.65291   0.00000  Uiso   1.00
H129   H     0.46698   0.68488   0.25932   0.00000  Uiso   1.00
O130   O     0.20203   0.76266   0.07679   0.00000  Uiso   1.00
O131   O     0.38513   0.18081   0.87146   0.00000  Uiso   1.00
O132   O     0.53939   0.74217   0.35508   0.00000  Uiso   1.00
N133   N     0.26988   0.71276   0.09230   0.00000  Uiso   1.00
N134   N     0.40036   0.29812   0.94600   0.00000  Uiso   1.00
N135   N     0.51029   0.69812   0.57801   0.00000  Uiso   1.00
N136   N     0.23390   0.69722   0.88363   0.00000  Uiso   1.00
N137   N     0.36437   0.28258   0.73733   0.00000  Uiso   1.00
N138   N     0.47430   0.68259   0.36935   0.00000  Uiso   1.00
C139   C     0.10333   0.42893   0.39047   0.00000  Uiso   1.00
C140   C     0.14706   0.39367   0.39509   0.00000  Uiso   1.00
C141   C     0.16379   0.35537   0.51522   0.00000  Uiso   1.00
C142   C     0.20437   0.32732   0.49733   0.00000  Uiso   1.00
C143   C     0.26879   0.27109   0.52481   0.00000  Uiso   1.00
C144   C     0.11111   0.50795   0.35478   0.00000  Uiso   1.00
C145   C     0.09760   0.56574   0.44101   0.00000  Uiso   1.00
C146   C     0.10791   0.63389   0.38917   0.00000  Uiso   1.00
C147   C     0.11649   0.75508   0.35401   0.00000  Uiso   1.00
C148   C     0.08082   0.39770   0.25337   0.00000  Uiso   1.00
C149   C     0.04183   0.36280   0.25433   0.00000  Uiso   1.00
C150   C     0.02663   0.33814   0.11710   0.00000  Uiso   1.00
C151   C     0.98817   0.28816   0.92450   0.00000  Uiso   1.00
C152   C     0.14565   0.44720   0.14507   0.00000  Uiso   1.00
C153   C     0.17005   0.40359   0.26180   0.00000  Uiso   1.00
C154   C     0.21061   0.37559   0.24372   0.00000  Uiso   1.00
C155   C     0.22740   0.33726   0.36380   0.00000  Uiso   1.00
C156   C     0.13409   0.51787   0.22150   0.00000  Uiso   1.00
C157   C     0.14442   0.58595   0.16951   0.00000  Uiso   1.00
C158   C     0.13094   0.64383   0.25564   0.00000  Uiso   1.00
C159   C     0.10380   0.40762   0.12008   0.00000  Uiso   1.00
C160   C     0.08866   0.38302   0.98283   0.00000  Uiso   1.00
C161   C     0.04966   0.34809   0.98357   0.00000  Uiso   1.00
H162   H     0.08543   0.42121   0.49424   0.00000  Uiso   1.00
H163   H     0.14599   0.34771   0.61836   0.00000  Uiso   1.00
H164   H     0.07981   0.55804   0.54414   0.00000  Uiso   1.00
H165   H     0.02405   0.35513   0.35749   0.00000  Uiso   1.00
H166   H     0.22328   0.27063   0.69720   0.00000  Uiso   1.00
H167   H     0.08372   0.71412   0.54070   0.00000  Uiso   1.00
H168   H     0.96614   0.28625   0.14711   0.00000  Uiso   1.00
H169   H     0.16354   0.45493   0.04130   0.00000  Uiso   1.00
H170   H     0.22839   0.38328   0.14056   0.00000  Uiso   1.00
H171   H     0.16221   0.59361   0.06636   0.00000  Uiso   1.00
H172   H     0.10645   0.39070   0.87970   0.00000  Uiso   1.00
H173   H     0.29016   0.29950   0.30941   0.00000  Uiso   1.00
H174   H     0.15060   0.74299   0.15291   0.00000  Uiso   1.00
H175   H     0.03302   0.31512   0.75932   0.00000  Uiso   1.00
O176   O     0.29797   0.23734   0.57679   0.00000  Uiso   1.00
O177   O     0.11487   0.81919   0.37146   0.00000  Uiso   1.00
O178   O     0.96061   0.25783   0.85508   0.00000  Uiso   1.00
N179   N     0.23012   0.28724   0.59230   0.00000  Uiso   1.00
N180   N     0.09964   0.70188   0.44600   0.00000  Uiso   1.00
N181   N     0.98971   0.30188   0.07801   0.00000  Uiso   1.00
N182   N     0.26610   0.30278   0.38363   0.00000  Uiso   1.00
N183   N     0.13563   0.71742   0.23733   0.00000  Uiso   1.00
N184   N     0.02570   0.31741   0.86935   0.00000  Uiso   1.00
C185   C     0.39667   0.92893   0.39047   0.00000  Uiso   1.00
C186   C     0.35294   0.89367   0.39509   0.00000  Uiso   1.00
C187   C     0.33621   0.85537   0.51522   0.00000  Uiso   1.00
C188   C     0.29563   0.82732   0.49733   0.00000  Uiso   1.00
C189   C     0.23121   0.77109   0.52481   0.00000  Uiso   1.00
C190   C     0.38889   0.00795   0.35478   0.00000  Uiso   1.00
C191   C     0.40240   0.06574   0.44101   0.00000  Uiso   1.00
C192   C     0.39209   0.13389   0.38917   0.00000  Uiso   1.00
C193   C     0.38351   0.25508   0.35401   0.00000  Uiso   1.00
C194   C     0.41918   0.89770   0.25337   0.00000  Uiso   1.00
C195   C     0.45817   0.86280   0.25433   0.00000  Uiso   1.00
C196   C     0.47337   0.83814   0.11710   0.00000  Uiso   1.00
C197   C     0.51183   0.78816   0.92450   0.00000  Uiso   1.00
C198   C     0.35435   0.94720   0.14507   0.00000  Uiso   1.00
C199   C     0.32995   0.90359   0.26180   0.00000  Uiso   1.00
C200   C     0.28939   0.87559   0.24372   0.00000  Uiso   1.00
C201   C     0.27260   0.83726   0.36380   0.00000  Uiso   1.00
C202   C     0.36591   0.01787   0.22150   0.00000  Uiso   1.00
C203   C     0.35558   0.08595   0.16951   0.00000  Uiso   1.00
C204   C     0.36906   0.14383   0.25564   0.00000  Uiso   1.00
C205   C     0.39620   0.90762   0.12008   0.00000  Uiso   1.00
C206   C     0.41134   0.88302   0.98283   0.00000  Uiso   1.00
C207   C     0.45034   0.84809   0.98357   0.00000  Uiso   1.00
H208   H     0.41457   0.92121   0.49424   0.00000  Uiso   1.00
H209   H     0.35401   0.84771   0.61836   0.00000  Uiso   1.00
H210   H     0.42019   0.05804   0.54414   0.00000  Uiso   1.00
H211   H     0.47595   0.85513   0.35749   0.00000  Uiso   1.00
H212   H     0.27672   0.77063   0.69720   0.00000  Uiso   1.00
H213   H     0.41628   0.21412   0.54070   0.00000  Uiso   1.00
H214   H     0.53386   0.78625   0.14711   0.00000  Uiso   1.00
H215   H     0.33646   0.95493   0.04130   0.00000  Uiso   1.00
H216   H     0.27161   0.88328   0.14056   0.00000  Uiso   1.00
H217   H     0.33779   0.09361   0.06636   0.00000  Uiso   1.00
H218   H     0.39355   0.89070   0.87970   0.00000  Uiso   1.00
H219   H     0.20984   0.79950   0.30941   0.00000  Uiso   1.00
H220   H     0.34940   0.24299   0.15291   0.00000  Uiso   1.00
H221   H     0.46698   0.81512   0.75932   0.00000  Uiso   1.00
O222   O     0.20203   0.73734   0.57679   0.00000  Uiso   1.00
O223   O     0.38513   0.31919   0.37146   0.00000  Uiso   1.00
O224   O     0.53939   0.75783   0.85508   0.00000  Uiso   1.00
N225   N     0.26988   0.78724   0.59230   0.00000  Uiso   1.00
N226   N     0.40036   0.20188   0.44600   0.00000  Uiso   1.00
N227   N     0.51029   0.80188   0.07801   0.00000  Uiso   1.00
N228   N     0.23390   0.80278   0.38363   0.00000  Uiso   1.00
N229   N     0.36437   0.21742   0.23733   0.00000  Uiso   1.00
N230   N     0.47430   0.81741   0.86935   0.00000  Uiso   1.00
C231   C     0.10333   0.07107   0.89047   0.00000  Uiso   1.00
C232   C     0.14706   0.10633   0.89509   0.00000  Uiso   1.00
C233   C     0.16379   0.14463   0.01522   0.00000  Uiso   1.00
C234   C     0.20437   0.17268   0.99733   0.00000  Uiso   1.00
C235   C     0.26879   0.22891   0.02481   0.00000  Uiso   1.00
C236   C     0.11111   0.99205   0.85478   0.00000  Uiso   1.00
C237   C     0.09760   0.93426   0.94101   0.00000  Uiso   1.00
C238   C     0.10791   0.86611   0.88917   0.00000  Uiso   1.00
C239   C     0.11649   0.74492   0.85401   0.00000  Uiso   1.00
C240   C     0.08082   0.10230   0.75337   0.00000  Uiso   1.00
C241   C     0.04183   0.13720   0.75433   0.00000  Uiso   1.00
C242   C     0.02663   0.16186   0.61710   0.00000  Uiso   1.00
C243   C     0.98817   0.21184   0.42450   0.00000  Uiso   1.00
C244   C     0.14565   0.05280   0.64507   0.00000  Uiso   1.00
C245   C     0.17005   0.09641   0.76180   0.00000  Uiso   1.00
C246   C     0.21061   0.12441   0.74372   0.00000  Uiso   1.00
C247   C     0.22740   0.16274   0.86380   0.00000  Uiso   1.00
C248   C     0.13409   0.98213   0.72150   0.00000  Uiso   1.00
C249   C     0.14442   0.91405   0.66951   0.00000  Uiso   1.00
C250   C     0.13094   0.85617   0.75564   0.00000  Uiso   1.00
C251   C     0.10380   0.09238   0.62008   0.00000  Uiso   1.00
C252   C     0.08866   0.11698   0.48283   0.00000  Uiso   1.00
C253   C     0.04966   0.15191   0.48357   0.00000  Uiso   1.00
H254   H     0.08543   0.07879   0.99424   0.00000  Uiso   1.00
H255   H     0.14599   0.15229   0.11836   0.00000  Uiso   1.00
H256   H     0.07981   0.94196   0.04414   0.00000  Uiso   1.00
H257   H     0.02405   0.14487   0.85749   0.00000  Uiso   1.00
H258   H     0.22328   0.22937   0.19720   0.00000  Uiso   1.00
H259   H     0.08372   0.78588   0.04070   0.00000  Uiso   1.00
H260   H     0.96614   0.21375   0.64711   0.00000  Uiso   1.00
H261   H     0.16354   0.04507   0.54130   0.00000  Uiso   1.00
H262   H     0.22839   0.11672   0.64056   0.00000  Uiso   1.00
H263   H     0.16221   0.90639   0.56636   0.00000  Uiso   1.00
H264   H     0.10645   0.10930   0.37970   0.00000  Uiso   1.00
H265   H     0.29016   0.20050   0.80941   0.00000  Uiso   1.00
H266   H     0.15060   0.75701   0.65291   0.00000  Uiso   1.00
H267   H     0.03302   0.18488   0.25932   0.00000  Uiso   1.00
O268   O     0.29797   0.26266   0.07679   0.00000  Uiso   1.00
O269   O     0.11487   0.68081   0.87146   0.00000  Uiso   1.00
O270   O     0.96061   0.24217   0.35508   0.00000  Uiso   1.00
N271   N     0.23012   0.21276   0.09230   0.00000  Uiso   1.00
N272   N     0.09964   0.79812   0.94600   0.00000  Uiso   1.00
N273   N     0.98971   0.19812   0.57801   0.00000  Uiso   1.00
N274   N     0.26610   0.19722   0.88363   0.00000  Uiso   1.00
N275   N     0.13563   0.78258   0.73733   0.00000  Uiso   1.00
N276   N     0.02570   0.18259   0.36935   0.00000  Uiso   1.00
C277   C     0.60333   0.42893   0.10953   0.00000  Uiso   1.00
C278   C     0.64706   0.39367   0.10491   0.00000  Uiso   1.00
C279   C     0.66379   0.35537   0.98478   0.00000  Uiso   1.00
C280   C     0.70437   0.32732   0.00267   0.00000  Uiso   1.00
C281   C     0.76879   0.27109   0.97519   0.00000  Uiso   1.00
C282   C     0.61111   0.50795   0.14522   0.00000  Uiso   1.00
C283   C     0.59760   0.56574   0.05899   0.00000  Uiso   1.00
C284   C     0.60791   0.63389   0.11083   0.00000  Uiso   1.00
C285   C     0.61649   0.75508   0.14599   0.00000  Uiso   1.00
C286   C     0.58082   0.39770   0.24663   0.00000  Uiso   1.00
C287   C     0.54183   0.36280   0.24567   0.00000  Uiso   1.00
C288   C     0.52663   0.33814   0.38290   0.00000  Uiso   1.00
C289   C     0.48817   0.28816   0.57550   0.00000  Uiso   1.00
C290   C     0.64565   0.44720   0.35493   0.00000  Uiso   1.00
C291   C     0.67005   0.40359   0.23820   0.00000  Uiso   1.00
C292   C     0.71061   0.37559   0.25628   0.00000  Uiso   1.00
C293   C     0.72740   0.33726   0.13620   0.00000  Uiso   1.00
C294   C     0.63409   0.51787   0.27850   0.00000  Uiso   1.00
C295   C     0.64442   0.58595   0.33049   0.00000  Uiso   1.00
C296   C     0.63094   0.64383   0.24436   0.00000  Uiso   1.00
C297   C     0.60380   0.40762   0.37992   0.00000  Uiso   1.00
C298   C     0.58866   0.38302   0.51717   0.00000  Uiso   1.00
C299   C     0.54966   0.34809   0.51643   0.00000  Uiso   1.00
H300   H     0.58543   0.42121   0.00576   0.00000  Uiso   1.00
H301   H     0.64599   0.34771   0.88164   0.00000  Uiso   1.00
H302   H     0.57981   0.55804   0.95586   0.00000  Uiso   1.00
H303   H     0.52405   0.35513   0.14251   0.00000  Uiso   1.00
H304   H     0.72328   0.27063   0.80280   0.00000  Uiso   1.00
H305   H     0.58372   0.71412   0.95930   0.00000  Uiso   1.00
H306   H     0.46614   0.28625   0.35289   0.00000  Uiso   1.00
H307   H     0.66354   0.45493   0.45870   0.00000  Uiso   1.00
H308   H     0.72839   0.38328   0.35944   0.00000  Uiso   1.00
H309   H     0.66221   0.59361   0.43364   0.00000  Uiso   1.00
H310   H     0.60645   0.39070   0.62030   0.00000  Uiso   1.00
H311   H     0.79016   0.29950   0.19059   0.00000  Uiso   1.00
H312   H     0.65060   0.74299   0.34709   0.00000  Uiso   1.00
H313   H     0.53302   0.31512   0.74068   0.00000  Uiso   1.00
O314   O     0.79797   0.23734   0.92321   0.00000  Uiso   1.00
O315   O     0.61487   0.81919   0.12854   0.00000  Uiso   1.00
O316   O     0.46061   0.25783   0.64492   0.00000  Uiso   1.00
N317   N     0.73012   0.28724   0.90770   0.00000  Uiso   1.00
N318   N     0.59964   0.70188   0.05400   0.00000  Uiso   1.00
N319   N     0.48971   0.30188   0.42199   0.00000  Uiso   1.00
N320   N     0.76610   0.30278   0.11637   0.00000  Uiso   1.00
N321   N     0.63563   0.71742   0.26267   0.00000  Uiso   1.00
N322   N     0.52570   0.31741   0.63065   0.00000  Uiso   1.00
C323   C     0.89667   0.57107   0.60953   0.00000  Uiso   1.00
C324   C     0.85294   0.60633   0.60491   0.00000  Uiso   1.00
C325   C     0.83621   0.64463   0.48478   0.00000  Uiso   1.00
C326   C     0.79563   0.67268   0.50267   0.00000  Uiso   1.00
C327   C     0.73121   0.72891   0.47519   0.00000  Uiso   1.00
C328   C     0.88889   0.49205   0.64522   0.00000  Uiso   1.00
C329   C     0.90240   0.43426   0.55899   0.00000  Uiso   1.00
C330   C     0.89209   0.36611   0.61083   0.00000  Uiso   1.00
C331   C     0.88351   0.24492   0.64599   0.00000  Uiso   1.00
C332   C     0.91918   0.60230   0.74663   0.00000  Uiso   1.00
C333   C     0.95817   0.63720   0.74567   0.00000  Uiso   1.00
C334   C     0.97337   0.66186   0.88290   0.00000  Uiso   1.00
C335   C     0.01183   0.71184   0.07550   0.00000  Uiso   1.00
C336   C     0.85435   0.55280   0.85493   0.00000  Uiso   1.00
C337   C     0.82995   0.59641   0.73820   0.00000  Uiso   1.00
C338   C     0.78939   0.62441   0.75628   0.00000  Uiso   1.00
C339   C     0.77260   0.66274   0.63620   0.00000  Uiso   1.00
C340   C     0.86591   0.48213   0.77850   0.00000  Uiso   1.00
C341   C     0.85558   0.41405   0.83049   0.00000  Uiso   1.00
C342   C     0.86906   0.35617   0.74436   0.00000  Uiso   1.00
C343   C     0.89620   0.59238   0.87992   0.00000  Uiso   1.00
C344   C     0.91134   0.61698   0.01717   0.00000  Uiso   1.00
C345   C     0.95034   0.65191   0.01643   0.00000  Uiso   1.00
H346   H     0.91457   0.57879   0.50576   0.00000  Uiso   1.00
H347   H     0.85401   0.65229   0.38164   0.00000  Uiso   1.00
H348   H     0.92019   0.44196   0.45586   0.00000  Uiso   1.00
H349   H     0.97595   0.64487   0.64251   0.00000  Uiso   1.00
H350   H     0.77672   0.72937   0.30280   0.00000  Uiso   1.00
H351   H     0.91628   0.28588   0.45930   0.00000  Uiso   1.00
H352   H     0.03386   0.71375   0.85289   0.00000  Uiso   1.00
H353   H     0.83646   0.54507   0.95870   0.00000  Uiso   1.00
H354   H     0.77161   0.61672   0.85944   0.00000  Uiso   1.00
H355   H     0.83779   0.40639   0.93364   0.00000  Uiso   1.00
H356   H     0.89355   0.60930   0.12030   0.00000  Uiso   1.00
H357   H     0.70984   0.70050   0.69059   0.00000  Uiso   1.00
H358   H     0.84940   0.25701   0.84709   0.00000  Uiso   1.00
H359   H     0.96698   0.68488   0.24068   0.00000  Uiso   1.00
O360   O     0.70203   0.76266   0.42321   0.00000  Uiso   1.00
O361   O     0.88513   0.18081   0.62854   0.00000  Uiso   1.00
O362   O     0.03939   0.74217   0.14492   0.00000  Uiso   1.00
N363   N     0.76988   0.71276   0.40770   0.00000  Uiso   1.00
N364   N     0.90036   0.29812   0.55400   0.00000  Uiso   1.00
N365   N     0.01029   0.69812   0.92199   0.00000  Uiso   1.00
N366   N     0.73390   0.69722   0.61637   0.00000  Uiso   1.00
N367   N     0.86437   0.28258   0.76267   0.00000  Uiso   1.00
N368   N     0.97430   0.68259   0.13065   0.00000  Uiso   1.00
