data_job_04955
_audit_creation_date              2018-12-19
_audit_creation_method            'Materials Studio'
_symmetry_space_group_name_H-M    'P1'
_symmetry_Int_Tables_number       1
_symmetry_cell_setting            triclinic
loop_
_symmetry_equiv_pos_as_xyz
  x,y,z
_cell_length_a                    9.7365
_cell_length_b                    15.1154
_cell_length_c                    38.0334
_cell_angle_alpha                 90.0000
_cell_angle_beta                  90.0000
_cell_angle_gamma                 90.0000
loop_
_atom_site_label
_atom_site_type_symbol
_atom_site_fract_x
_atom_site_fract_y
_atom_site_fract_z
_atom_site_U_iso_or_equiv
_atom_site_adp_type
_atom_site_occupancy
C1     C     0.23121   0.49645   0.38471   0.00000  Uiso   1.00
C2     C     0.14124   0.57277   0.37217   0.00000  Uiso   1.00
C3     C     0.11810   0.59616   0.33739   0.00000  Uiso   1.00
C4     C     0.03252   0.66806   0.33138   0.00000  Uiso   1.00
C5     C     0.90202   0.77947   0.30769   0.00000  Uiso   1.00
C6     C     0.33709   0.53713   0.40944   0.00000  Uiso   1.00
C7     C     0.47863   0.53055   0.40598   0.00000  Uiso   1.00
C8     C     0.55792   0.57244   0.43135   0.00000  Uiso   1.00
C9     C     0.73150   0.62847   0.46552   0.00000  Uiso   1.00
C10    C     0.13937   0.43847   0.40759   0.00000  Uiso   1.00
C11    C     0.11469   0.34892   0.40259   0.00000  Uiso   1.00
C12    C     0.02754   0.30774   0.42641   0.00000  Uiso   1.00
C13    C     0.89412   0.21058   0.45772   0.00000  Uiso   1.00
C14    C     0.12038   0.58255   0.43589   0.00000  Uiso   1.00
C15    C     0.08104   0.61953   0.39997   0.00000  Uiso   1.00
C16    C     0.99547   0.69141   0.39402   0.00000  Uiso   1.00
C17    C     0.97221   0.71491   0.35923   0.00000  Uiso   1.00
C18    C     0.27690   0.58390   0.43724   0.00000  Uiso   1.00
C19    C     0.35601   0.62581   0.46261   0.00000  Uiso   1.00
C20    C     0.49762   0.61929   0.45920   0.00000  Uiso   1.00
C21    C     0.07917   0.48523   0.43539   0.00000  Uiso   1.00
C22    C     0.99206   0.44418   0.45922   0.00000  Uiso   1.00
C23    C     0.96724   0.35459   0.45426   0.00000  Uiso   1.00
H24    H     0.27809   0.46005   0.36306   0.00000  Uiso   1.00
H25    H     0.16471   0.55996   0.31588   0.00000  Uiso   1.00
H26    H     0.52518   0.49435   0.38447   0.00000  Uiso   1.00
H27    H     0.16129   0.31275   0.38108   0.00000  Uiso   1.00
H28    H     0.01251   0.69137   0.27583   0.00000  Uiso   1.00
H29    H     0.77258   0.55301   0.42046   0.00000  Uiso   1.00
H30    H     0.00525   0.17007   0.41331   0.00000  Uiso   1.00
H31    H     0.07352   0.61896   0.45754   0.00000  Uiso   1.00
H32    H     0.94890   0.72759   0.41553   0.00000  Uiso   1.00
H33    H     0.30938   0.66198   0.48412   0.00000  Uiso   1.00
H34    H     0.94549   0.48039   0.48073   0.00000  Uiso   1.00
H35    H     0.83735   0.82743   0.35671   0.00000  Uiso   1.00
H36    H     0.59743   0.68906   0.50134   0.00000  Uiso   1.00
H37    H     0.83009   0.30613   0.49419   0.00000  Uiso   1.00
O38    O     0.84669   0.82801   0.28694   0.00000  Uiso   1.00
O39    O     0.84387   0.64647   0.47669   0.00000  Uiso   1.00
O40    O     0.83714   0.14407   0.46730   0.00000  Uiso   1.00
N41    N     0.98836   0.70847   0.30063   0.00000  Uiso   1.00
N42    N     0.69899   0.57912   0.43585   0.00000  Uiso   1.00
N43    N     0.98162   0.22111   0.42916   0.00000  Uiso   1.00
N44    N     0.89411   0.78168   0.34415   0.00000  Uiso   1.00
N45    N     0.60474   0.65233   0.47937   0.00000  Uiso   1.00
N46    N     0.88737   0.29432   0.47269   0.00000  Uiso   1.00
C47    C     0.04195   0.00571   0.13423   0.00000  Uiso   1.00
C48    C     0.95183   0.93008   0.14733   0.00000  Uiso   1.00
C49    C     0.92944   0.90795   0.18228   0.00000  Uiso   1.00
C50    C     0.84357   0.83649   0.18882   0.00000  Uiso   1.00
C51    C     0.71299   0.72625   0.21334   0.00000  Uiso   1.00
C52    C     0.14694   0.96390   0.10955   0.00000  Uiso   1.00
C53    C     0.28860   0.97024   0.11273   0.00000  Uiso   1.00
C54    C     0.36698   0.92726   0.08747   0.00000  Uiso   1.00
C55    C     0.53933   0.86960   0.05331   0.00000  Uiso   1.00
C56    C     0.94989   0.06314   0.11119   0.00000  Uiso   1.00
C57    C     0.92589   0.15292   0.11574   0.00000  Uiso   1.00
C58    C     0.83838   0.19350   0.09184   0.00000  Uiso   1.00
C59    C     0.70477   0.28992   0.06023   0.00000  Uiso   1.00
C60    C     0.92928   0.91815   0.08371   0.00000  Uiso   1.00
C61    C     0.89063   0.88251   0.11989   0.00000  Uiso   1.00
C62    C     0.80477   0.81107   0.12638   0.00000  Uiso   1.00
C63    C     0.78226   0.78884   0.16133   0.00000  Uiso   1.00
C64    C     0.08575   0.91634   0.08211   0.00000  Uiso   1.00
C65    C     0.16394   0.87336   0.05683   0.00000  Uiso   1.00
C66    C     0.30568   0.87961   0.05997   0.00000  Uiso   1.00
C67    C     0.88868   0.01558   0.08375   0.00000  Uiso   1.00
C68    C     0.80121   0.05604   0.05984   0.00000  Uiso   1.00
C69    C     0.77708   0.14585   0.06435   0.00000  Uiso   1.00
H70    H     0.08961   0.04274   0.15560   0.00000  Uiso   1.00
H71    H     0.97683   0.94477   0.20351   0.00000  Uiso   1.00
H72    H     0.33593   0.00705   0.13397   0.00000  Uiso   1.00
H73    H     0.97326   0.18970   0.13697   0.00000  Uiso   1.00
H74    H     0.82484   0.81516   0.24453   0.00000  Uiso   1.00
H75    H     0.58203   0.94651   0.09789   0.00000  Uiso   1.00
H76    H     0.81728   0.33167   0.10423   0.00000  Uiso   1.00
H77    H     0.88163   0.88112   0.06235   0.00000  Uiso   1.00
H78    H     0.75743   0.77428   0.10514   0.00000  Uiso   1.00
H79    H     0.11654   0.83656   0.03560   0.00000  Uiso   1.00
H80    H     0.75387   0.01921   0.03861   0.00000  Uiso   1.00
H81    H     0.64677   0.67678   0.16469   0.00000  Uiso   1.00
H82    H     0.40397   0.80813   0.01805   0.00000  Uiso   1.00
H83    H     0.63921   0.19329   0.02439   0.00000  Uiso   1.00
O84    O     0.65789   0.67858   0.23444   0.00000  Uiso   1.00
O85    O     0.65130   0.85093   0.04206   0.00000  Uiso   1.00
O86    O     0.64796   0.35624   0.05038   0.00000  Uiso   1.00
N87    N     0.79995   0.79726   0.21987   0.00000  Uiso   1.00
N88    N     0.50789   0.92006   0.08277   0.00000  Uiso   1.00
N89    N     0.79294   0.28015   0.08869   0.00000  Uiso   1.00
N90    N     0.70414   0.72280   0.17691   0.00000  Uiso   1.00
N91    N     0.41207   0.84560   0.03981   0.00000  Uiso   1.00
N92    N     0.69712   0.20569   0.04573   0.00000  Uiso   1.00
C93    C     0.76879   0.50355   0.88471   0.00000  Uiso   1.00
C94    C     0.85876   0.42723   0.87217   0.00000  Uiso   1.00
C95    C     0.88190   0.40384   0.83739   0.00000  Uiso   1.00
C96    C     0.96748   0.33194   0.83138   0.00000  Uiso   1.00
C97    C     0.09798   0.22053   0.80769   0.00000  Uiso   1.00
C98    C     0.66291   0.46287   0.90944   0.00000  Uiso   1.00
C99    C     0.52137   0.46945   0.90598   0.00000  Uiso   1.00
C100   C     0.44208   0.42756   0.93135   0.00000  Uiso   1.00
C101   C     0.26850   0.37153   0.96552   0.00000  Uiso   1.00
C102   C     0.86063   0.56153   0.90759   0.00000  Uiso   1.00
C103   C     0.88531   0.65108   0.90259   0.00000  Uiso   1.00
C104   C     0.97246   0.69226   0.92641   0.00000  Uiso   1.00
C105   C     0.10588   0.78942   0.95772   0.00000  Uiso   1.00
C106   C     0.87962   0.41745   0.93589   0.00000  Uiso   1.00
C107   C     0.91896   0.38047   0.89997   0.00000  Uiso   1.00
C108   C     0.00453   0.30859   0.89402   0.00000  Uiso   1.00
C109   C     0.02779   0.28509   0.85923   0.00000  Uiso   1.00
C110   C     0.72310   0.41610   0.93724   0.00000  Uiso   1.00
C111   C     0.64399   0.37419   0.96261   0.00000  Uiso   1.00
C112   C     0.50238   0.38071   0.95920   0.00000  Uiso   1.00
C113   C     0.92083   0.51477   0.93539   0.00000  Uiso   1.00
C114   C     0.00794   0.55582   0.95922   0.00000  Uiso   1.00
C115   C     0.03276   0.64541   0.95426   0.00000  Uiso   1.00
H116   H     0.72191   0.53995   0.86306   0.00000  Uiso   1.00
H117   H     0.83529   0.44004   0.81588   0.00000  Uiso   1.00
H118   H     0.47482   0.50565   0.88447   0.00000  Uiso   1.00
H119   H     0.83871   0.68725   0.88108   0.00000  Uiso   1.00
H120   H     0.98749   0.30863   0.77583   0.00000  Uiso   1.00
H121   H     0.22742   0.44699   0.92046   0.00000  Uiso   1.00
H122   H     0.99475   0.82993   0.91331   0.00000  Uiso   1.00
H123   H     0.92648   0.38104   0.95754   0.00000  Uiso   1.00
H124   H     0.05110   0.27241   0.91553   0.00000  Uiso   1.00
H125   H     0.69062   0.33802   0.98412   0.00000  Uiso   1.00
H126   H     0.05451   0.51961   0.98073   0.00000  Uiso   1.00
H127   H     0.16265   0.17257   0.85671   0.00000  Uiso   1.00
H128   H     0.40257   0.31094   0.00134   0.00000  Uiso   1.00
H129   H     0.16991   0.69387   0.99419   0.00000  Uiso   1.00
O130   O     0.15331   0.17199   0.78694   0.00000  Uiso   1.00
O131   O     0.15613   0.35353   0.97669   0.00000  Uiso   1.00
O132   O     0.16286   0.85593   0.96730   0.00000  Uiso   1.00
N133   N     0.01164   0.29153   0.80063   0.00000  Uiso   1.00
N134   N     0.30101   0.42088   0.93585   0.00000  Uiso   1.00
N135   N     0.01838   0.77889   0.92916   0.00000  Uiso   1.00
N136   N     0.10589   0.21832   0.84415   0.00000  Uiso   1.00
N137   N     0.39526   0.34767   0.97937   0.00000  Uiso   1.00
N138   N     0.11263   0.70568   0.97269   0.00000  Uiso   1.00
C139   C     0.95805   0.99429   0.63423   0.00000  Uiso   1.00
C140   C     0.04817   0.06992   0.64733   0.00000  Uiso   1.00
C141   C     0.07056   0.09205   0.68228   0.00000  Uiso   1.00
C142   C     0.15643   0.16351   0.68882   0.00000  Uiso   1.00
C143   C     0.28701   0.27375   0.71334   0.00000  Uiso   1.00
C144   C     0.85306   0.03610   0.60955   0.00000  Uiso   1.00
C145   C     0.71140   0.02976   0.61273   0.00000  Uiso   1.00
C146   C     0.63302   0.07274   0.58747   0.00000  Uiso   1.00
C147   C     0.46067   0.13040   0.55331   0.00000  Uiso   1.00
C148   C     0.05011   0.93686   0.61119   0.00000  Uiso   1.00
C149   C     0.07411   0.84708   0.61574   0.00000  Uiso   1.00
C150   C     0.16162   0.80650   0.59184   0.00000  Uiso   1.00
C151   C     0.29523   0.71008   0.56023   0.00000  Uiso   1.00
C152   C     0.07072   0.08185   0.58371   0.00000  Uiso   1.00
C153   C     0.10937   0.11749   0.61989   0.00000  Uiso   1.00
C154   C     0.19523   0.18893   0.62638   0.00000  Uiso   1.00
C155   C     0.21774   0.21116   0.66133   0.00000  Uiso   1.00
C156   C     0.91425   0.08366   0.58211   0.00000  Uiso   1.00
C157   C     0.83606   0.12664   0.55683   0.00000  Uiso   1.00
C158   C     0.69432   0.12039   0.55997   0.00000  Uiso   1.00
C159   C     0.11132   0.98442   0.58375   0.00000  Uiso   1.00
C160   C     0.19879   0.94396   0.55984   0.00000  Uiso   1.00
C161   C     0.22292   0.85415   0.56435   0.00000  Uiso   1.00
H162   H     0.91039   0.95726   0.65560   0.00000  Uiso   1.00
H163   H     0.02317   0.05523   0.70351   0.00000  Uiso   1.00
H164   H     0.66407   0.99295   0.63397   0.00000  Uiso   1.00
H165   H     0.02674   0.81030   0.63697   0.00000  Uiso   1.00
H166   H     0.17516   0.18484   0.74453   0.00000  Uiso   1.00
H167   H     0.41797   0.05349   0.59789   0.00000  Uiso   1.00
H168   H     0.18272   0.66833   0.60423   0.00000  Uiso   1.00
H169   H     0.11837   0.11888   0.56235   0.00000  Uiso   1.00
H170   H     0.24257   0.22572   0.60514   0.00000  Uiso   1.00
H171   H     0.88346   0.16344   0.53560   0.00000  Uiso   1.00
H172   H     0.24613   0.98079   0.53861   0.00000  Uiso   1.00
H173   H     0.35323   0.32322   0.66469   0.00000  Uiso   1.00
H174   H     0.59603   0.19187   0.51805   0.00000  Uiso   1.00
H175   H     0.36079   0.80671   0.52439   0.00000  Uiso   1.00
O176   O     0.34211   0.32142   0.73444   0.00000  Uiso   1.00
O177   O     0.34870   0.14907   0.54206   0.00000  Uiso   1.00
O178   O     0.35204   0.64376   0.55038   0.00000  Uiso   1.00
N179   N     0.20005   0.20274   0.71987   0.00000  Uiso   1.00
N180   N     0.49211   0.07994   0.58277   0.00000  Uiso   1.00
N181   N     0.20706   0.71985   0.58869   0.00000  Uiso   1.00
N182   N     0.29586   0.27720   0.67691   0.00000  Uiso   1.00
N183   N     0.58793   0.15440   0.53981   0.00000  Uiso   1.00
N184   N     0.30288   0.79431   0.54573   0.00000  Uiso   1.00
C185   C     0.73121   0.00355   0.38471   0.00000  Uiso   1.00
C186   C     0.64124   0.92723   0.37217   0.00000  Uiso   1.00
C187   C     0.61810   0.90384   0.33739   0.00000  Uiso   1.00
C188   C     0.53252   0.83194   0.33138   0.00000  Uiso   1.00
C189   C     0.40202   0.72053   0.30769   0.00000  Uiso   1.00
C190   C     0.83709   0.96287   0.40944   0.00000  Uiso   1.00
C191   C     0.97863   0.96945   0.40598   0.00000  Uiso   1.00
C192   C     0.05792   0.92756   0.43135   0.00000  Uiso   1.00
C193   C     0.23150   0.87153   0.46552   0.00000  Uiso   1.00
C194   C     0.63937   0.06153   0.40759   0.00000  Uiso   1.00
C195   C     0.61469   0.15108   0.40259   0.00000  Uiso   1.00
C196   C     0.52754   0.19226   0.42641   0.00000  Uiso   1.00
C197   C     0.39412   0.28942   0.45772   0.00000  Uiso   1.00
C198   C     0.62038   0.91745   0.43589   0.00000  Uiso   1.00
C199   C     0.58104   0.88047   0.39997   0.00000  Uiso   1.00
C200   C     0.49547   0.80859   0.39402   0.00000  Uiso   1.00
C201   C     0.47221   0.78509   0.35923   0.00000  Uiso   1.00
C202   C     0.77690   0.91610   0.43724   0.00000  Uiso   1.00
C203   C     0.85601   0.87419   0.46261   0.00000  Uiso   1.00
C204   C     0.99762   0.88071   0.45920   0.00000  Uiso   1.00
C205   C     0.57917   0.01477   0.43539   0.00000  Uiso   1.00
C206   C     0.49206   0.05582   0.45922   0.00000  Uiso   1.00
C207   C     0.46724   0.14541   0.45426   0.00000  Uiso   1.00
H208   H     0.77809   0.03995   0.36306   0.00000  Uiso   1.00
H209   H     0.66471   0.94004   0.31588   0.00000  Uiso   1.00
H210   H     0.02518   0.00565   0.38447   0.00000  Uiso   1.00
H211   H     0.66129   0.18725   0.38108   0.00000  Uiso   1.00
H212   H     0.51251   0.80863   0.27583   0.00000  Uiso   1.00
H213   H     0.27258   0.94699   0.42046   0.00000  Uiso   1.00
H214   H     0.50525   0.32993   0.41331   0.00000  Uiso   1.00
H215   H     0.57352   0.88104   0.45754   0.00000  Uiso   1.00
H216   H     0.44890   0.77241   0.41553   0.00000  Uiso   1.00
H217   H     0.80938   0.83802   0.48412   0.00000  Uiso   1.00
H218   H     0.44549   0.01961   0.48073   0.00000  Uiso   1.00
H219   H     0.33735   0.67257   0.35671   0.00000  Uiso   1.00
H220   H     0.09743   0.81094   0.50134   0.00000  Uiso   1.00
H221   H     0.33009   0.19387   0.49419   0.00000  Uiso   1.00
O222   O     0.34669   0.67199   0.28694   0.00000  Uiso   1.00
O223   O     0.34387   0.85353   0.47669   0.00000  Uiso   1.00
O224   O     0.33714   0.35593   0.46730   0.00000  Uiso   1.00
N225   N     0.48836   0.79153   0.30063   0.00000  Uiso   1.00
N226   N     0.19899   0.92088   0.43585   0.00000  Uiso   1.00
N227   N     0.48162   0.27889   0.42916   0.00000  Uiso   1.00
N228   N     0.39411   0.71832   0.34415   0.00000  Uiso   1.00
N229   N     0.10474   0.84767   0.47937   0.00000  Uiso   1.00
N230   N     0.38737   0.20568   0.47269   0.00000  Uiso   1.00
C231   C     0.54195   0.49429   0.13423   0.00000  Uiso   1.00
C232   C     0.45183   0.56992   0.14733   0.00000  Uiso   1.00
C233   C     0.42944   0.59205   0.18228   0.00000  Uiso   1.00
C234   C     0.34357   0.66351   0.18882   0.00000  Uiso   1.00
C235   C     0.21299   0.77375   0.21334   0.00000  Uiso   1.00
C236   C     0.64694   0.53610   0.10955   0.00000  Uiso   1.00
C237   C     0.78860   0.52976   0.11273   0.00000  Uiso   1.00
C238   C     0.86698   0.57274   0.08747   0.00000  Uiso   1.00
C239   C     0.03933   0.63040   0.05331   0.00000  Uiso   1.00
C240   C     0.44989   0.43686   0.11119   0.00000  Uiso   1.00
C241   C     0.42589   0.34708   0.11574   0.00000  Uiso   1.00
C242   C     0.33838   0.30650   0.09184   0.00000  Uiso   1.00
C243   C     0.20477   0.21008   0.06023   0.00000  Uiso   1.00
C244   C     0.42928   0.58185   0.08371   0.00000  Uiso   1.00
C245   C     0.39063   0.61749   0.11989   0.00000  Uiso   1.00
C246   C     0.30477   0.68893   0.12638   0.00000  Uiso   1.00
C247   C     0.28226   0.71116   0.16133   0.00000  Uiso   1.00
C248   C     0.58575   0.58366   0.08211   0.00000  Uiso   1.00
C249   C     0.66394   0.62664   0.05683   0.00000  Uiso   1.00
C250   C     0.80568   0.62039   0.05997   0.00000  Uiso   1.00
C251   C     0.38868   0.48442   0.08375   0.00000  Uiso   1.00
C252   C     0.30121   0.44396   0.05984   0.00000  Uiso   1.00
C253   C     0.27708   0.35415   0.06435   0.00000  Uiso   1.00
H254   H     0.58961   0.45726   0.15560   0.00000  Uiso   1.00
H255   H     0.47683   0.55523   0.20351   0.00000  Uiso   1.00
H256   H     0.83593   0.49295   0.13397   0.00000  Uiso   1.00
H257   H     0.47326   0.31030   0.13697   0.00000  Uiso   1.00
H258   H     0.32484   0.68484   0.24453   0.00000  Uiso   1.00
H259   H     0.08203   0.55349   0.09789   0.00000  Uiso   1.00
H260   H     0.31728   0.16833   0.10423   0.00000  Uiso   1.00
H261   H     0.38163   0.61888   0.06235   0.00000  Uiso   1.00
H262   H     0.25743   0.72572   0.10514   0.00000  Uiso   1.00
H263   H     0.61654   0.66344   0.03560   0.00000  Uiso   1.00
H264   H     0.25387   0.48079   0.03861   0.00000  Uiso   1.00
H265   H     0.14677   0.82322   0.16469   0.00000  Uiso   1.00
H266   H     0.90397   0.69187   0.01805   0.00000  Uiso   1.00
H267   H     0.13921   0.30671   0.02439   0.00000  Uiso   1.00
O268   O     0.15789   0.82142   0.23444   0.00000  Uiso   1.00
O269   O     0.15130   0.64907   0.04206   0.00000  Uiso   1.00
O270   O     0.14796   0.14376   0.05038   0.00000  Uiso   1.00
N271   N     0.29995   0.70274   0.21987   0.00000  Uiso   1.00
N272   N     0.00789   0.57994   0.08277   0.00000  Uiso   1.00
N273   N     0.29294   0.21985   0.08869   0.00000  Uiso   1.00
N274   N     0.20414   0.77720   0.17691   0.00000  Uiso   1.00
N275   N     0.91207   0.65440   0.03981   0.00000  Uiso   1.00
N276   N     0.19712   0.29431   0.04573   0.00000  Uiso   1.00
C277   C     0.26879   0.99645   0.88471   0.00000  Uiso   1.00
C278   C     0.35876   0.07277   0.87217   0.00000  Uiso   1.00
C279   C     0.38190   0.09616   0.83739   0.00000  Uiso   1.00
C280   C     0.46748   0.16806   0.83138   0.00000  Uiso   1.00
C281   C     0.59798   0.27947   0.80769   0.00000  Uiso   1.00
C282   C     0.16291   0.03713   0.90944   0.00000  Uiso   1.00
C283   C     0.02137   0.03055   0.90598   0.00000  Uiso   1.00
C284   C     0.94208   0.07244   0.93135   0.00000  Uiso   1.00
C285   C     0.76850   0.12847   0.96552   0.00000  Uiso   1.00
C286   C     0.36063   0.93847   0.90759   0.00000  Uiso   1.00
C287   C     0.38531   0.84892   0.90259   0.00000  Uiso   1.00
C288   C     0.47246   0.80774   0.92641   0.00000  Uiso   1.00
C289   C     0.60588   0.71058   0.95772   0.00000  Uiso   1.00
C290   C     0.37962   0.08255   0.93589   0.00000  Uiso   1.00
C291   C     0.41896   0.11953   0.89997   0.00000  Uiso   1.00
C292   C     0.50453   0.19141   0.89402   0.00000  Uiso   1.00
C293   C     0.52779   0.21491   0.85923   0.00000  Uiso   1.00
C294   C     0.22310   0.08390   0.93724   0.00000  Uiso   1.00
C295   C     0.14399   0.12581   0.96261   0.00000  Uiso   1.00
C296   C     0.00238   0.11929   0.95920   0.00000  Uiso   1.00
C297   C     0.42083   0.98523   0.93539   0.00000  Uiso   1.00
C298   C     0.50794   0.94418   0.95922   0.00000  Uiso   1.00
C299   C     0.53276   0.85459   0.95426   0.00000  Uiso   1.00
H300   H     0.22191   0.96005   0.86306   0.00000  Uiso   1.00
H301   H     0.33529   0.05996   0.81588   0.00000  Uiso   1.00
H302   H     0.97482   0.99435   0.88447   0.00000  Uiso   1.00
H303   H     0.33871   0.81275   0.88108   0.00000  Uiso   1.00
H304   H     0.48749   0.19137   0.77583   0.00000  Uiso   1.00
H305   H     0.72742   0.05301   0.92046   0.00000  Uiso   1.00
H306   H     0.49475   0.67007   0.91331   0.00000  Uiso   1.00
H307   H     0.42648   0.11896   0.95754   0.00000  Uiso   1.00
H308   H     0.55110   0.22759   0.91553   0.00000  Uiso   1.00
H309   H     0.19062   0.16198   0.98412   0.00000  Uiso   1.00
H310   H     0.55451   0.98039   0.98073   0.00000  Uiso   1.00
H311   H     0.66265   0.32743   0.85671   0.00000  Uiso   1.00
H312   H     0.90257   0.18906   0.00134   0.00000  Uiso   1.00
H313   H     0.66991   0.80613   0.99419   0.00000  Uiso   1.00
O314   O     0.65331   0.32801   0.78694   0.00000  Uiso   1.00
O315   O     0.65613   0.14647   0.97669   0.00000  Uiso   1.00
O316   O     0.66286   0.64407   0.96730   0.00000  Uiso   1.00
N317   N     0.51164   0.20847   0.80063   0.00000  Uiso   1.00
N318   N     0.80101   0.07912   0.93585   0.00000  Uiso   1.00
N319   N     0.51838   0.72111   0.92916   0.00000  Uiso   1.00
N320   N     0.60589   0.28168   0.84415   0.00000  Uiso   1.00
N321   N     0.89526   0.15233   0.97937   0.00000  Uiso   1.00
N322   N     0.61263   0.79432   0.97269   0.00000  Uiso   1.00
C323   C     0.45805   0.50571   0.63423   0.00000  Uiso   1.00
C324   C     0.54817   0.43008   0.64733   0.00000  Uiso   1.00
C325   C     0.57056   0.40795   0.68228   0.00000  Uiso   1.00
C326   C     0.65643   0.33649   0.68882   0.00000  Uiso   1.00
C327   C     0.78701   0.22625   0.71334   0.00000  Uiso   1.00
C328   C     0.35306   0.46390   0.60955   0.00000  Uiso   1.00
C329   C     0.21140   0.47024   0.61273   0.00000  Uiso   1.00
C330   C     0.13302   0.42726   0.58747   0.00000  Uiso   1.00
C331   C     0.96067   0.36960   0.55331   0.00000  Uiso   1.00
C332   C     0.55011   0.56314   0.61119   0.00000  Uiso   1.00
C333   C     0.57411   0.65292   0.61574   0.00000  Uiso   1.00
C334   C     0.66162   0.69350   0.59184   0.00000  Uiso   1.00
C335   C     0.79523   0.78992   0.56023   0.00000  Uiso   1.00
C336   C     0.57072   0.41815   0.58371   0.00000  Uiso   1.00
C337   C     0.60937   0.38251   0.61989   0.00000  Uiso   1.00
C338   C     0.69523   0.31107   0.62638   0.00000  Uiso   1.00
C339   C     0.71774   0.28884   0.66133   0.00000  Uiso   1.00
C340   C     0.41425   0.41634   0.58211   0.00000  Uiso   1.00
C341   C     0.33606   0.37336   0.55683   0.00000  Uiso   1.00
C342   C     0.19432   0.37961   0.55997   0.00000  Uiso   1.00
C343   C     0.61132   0.51558   0.58375   0.00000  Uiso   1.00
C344   C     0.69879   0.55604   0.55984   0.00000  Uiso   1.00
C345   C     0.72292   0.64585   0.56435   0.00000  Uiso   1.00
H346   H     0.41039   0.54274   0.65560   0.00000  Uiso   1.00
H347   H     0.52317   0.44477   0.70351   0.00000  Uiso   1.00
H348   H     0.16407   0.50705   0.63397   0.00000  Uiso   1.00
H349   H     0.52674   0.68970   0.63697   0.00000  Uiso   1.00
H350   H     0.67516   0.31516   0.74453   0.00000  Uiso   1.00
H351   H     0.91797   0.44651   0.59789   0.00000  Uiso   1.00
H352   H     0.68272   0.83167   0.60423   0.00000  Uiso   1.00
H353   H     0.61837   0.38112   0.56235   0.00000  Uiso   1.00
H354   H     0.74257   0.27428   0.60514   0.00000  Uiso   1.00
H355   H     0.38346   0.33656   0.53560   0.00000  Uiso   1.00
H356   H     0.74613   0.51921   0.53861   0.00000  Uiso   1.00
H357   H     0.85323   0.17678   0.66469   0.00000  Uiso   1.00
H358   H     0.09603   0.30813   0.51805   0.00000  Uiso   1.00
H359   H     0.86079   0.69329   0.52439   0.00000  Uiso   1.00
O360   O     0.84211   0.17858   0.73444   0.00000  Uiso   1.00
O361   O     0.84870   0.35093   0.54206   0.00000  Uiso   1.00
O362   O     0.85204   0.85624   0.55038   0.00000  Uiso   1.00
N363   N     0.70005   0.29726   0.71987   0.00000  Uiso   1.00
N364   N     0.99211   0.42006   0.58277   0.00000  Uiso   1.00
N365   N     0.70706   0.78015   0.58869   0.00000  Uiso   1.00
N366   N     0.79586   0.22280   0.67691   0.00000  Uiso   1.00
N367   N     0.08793   0.34560   0.53981   0.00000  Uiso   1.00
N368   N     0.80288   0.70569   0.54573   0.00000  Uiso   1.00
