data_job_06239
_audit_creation_date              2018-12-19
_audit_creation_method            'Materials Studio'
_symmetry_space_group_name_H-M    'P1'
_symmetry_Int_Tables_number       1
_symmetry_cell_setting            triclinic
loop_
_symmetry_equiv_pos_as_xyz
  x,y,z
_cell_length_a                    16.5217
_cell_length_b                    16.4194
_cell_length_c                    16.3053
_cell_angle_alpha                 106.8980
_cell_angle_beta                  106.9120
_cell_angle_gamma                 106.8880
loop_
_atom_site_label
_atom_site_type_symbol
_atom_site_fract_x
_atom_site_fract_y
_atom_site_fract_z
_atom_site_U_iso_or_equiv
_atom_site_adp_type
_atom_site_occupancy
C1     C     0.86154   0.77497   0.62653   0.00000  Uiso   1.00
C2     C     0.80295   0.74019   0.52190   0.00000  Uiso   1.00
C3     C     0.70947   0.72124   0.48156   0.00000  Uiso   1.00
C4     C     0.66842   0.69001   0.38454   0.00000  Uiso   1.00
C5     C     0.56973   0.63776   0.23037   0.00000  Uiso   1.00
C6     C     0.90279   0.70457   0.63607   0.00000  Uiso   1.00
C7     C     0.89326   0.65568   0.69173   0.00000  Uiso   1.00
C8     C     0.93628   0.59448   0.69083   0.00000  Uiso   1.00
C9     C     0.99265   0.48698   0.71397   0.00000  Uiso   1.00
C10    C     0.94286   0.86522   0.65270   0.00000  Uiso   1.00
C11    C     0.96703   0.95142   0.72238   0.00000  Uiso   1.00
C12    C     0.04379   0.02547   0.73550   0.00000  Uiso   1.00
C13    C     0.16236   0.16742   0.78447   0.00000  Uiso   1.00
C14    C     0.95491   0.75321   0.52596   0.00000  Uiso   1.00
C15    C     0.85367   0.72837   0.46727   0.00000  Uiso   1.00
C16    C     0.81276   0.69716   0.37028   0.00000  Uiso   1.00
C17    C     0.71923   0.67817   0.32981   0.00000  Uiso   1.00
C18    C     0.95351   0.69275   0.58144   0.00000  Uiso   1.00
C19    C     0.99656   0.63161   0.58046   0.00000  Uiso   1.00
C20    C     0.98709   0.58264   0.63610   0.00000  Uiso   1.00
C21    C     0.99357   0.85341   0.59807   0.00000  Uiso   1.00
C22    C     0.07032   0.92734   0.61109   0.00000  Uiso   1.00
C23    C     0.09460   0.01363   0.68077   0.00000  Uiso   1.00
H24    H     0.82206   0.78417   0.66906   0.00000  Uiso   1.00
H25    H     0.67024   0.73039   0.52386   0.00000  Uiso   1.00
H26    H     0.85402   0.66485   0.73401   0.00000  Uiso   1.00
H27    H     0.92777   0.96054   0.76464   0.00000  Uiso   1.00
H28    H     0.52428   0.66552   0.33878   0.00000  Uiso   1.00
H29    H     0.91181   0.52736   0.78191   0.00000  Uiso   1.00
H30    H     0.06732   0.15087   0.84651   0.00000  Uiso   1.00
H31    H     0.99439   0.74400   0.48343   0.00000  Uiso   1.00
H32    H     0.85202   0.68802   0.32803   0.00000  Uiso   1.00
H33    H     0.03580   0.62248   0.53818   0.00000  Uiso   1.00
H34    H     0.10955   0.91817   0.56881   0.00000  Uiso   1.00
H35    H     0.67181   0.63113   0.17984   0.00000  Uiso   1.00
H36    H     0.05935   0.49297   0.62298   0.00000  Uiso   1.00
H37    H     0.21486   0.11648   0.68757   0.00000  Uiso   1.00
O38    O     0.50127   0.61219   0.16043   0.00000  Uiso   1.00
O39    O     0.00972   0.43095   0.74182   0.00000  Uiso   1.00
O40    O     0.21374   0.24898   0.82656   0.00000  Uiso   1.00
N41    N     0.57854   0.66513   0.32270   0.00000  Uiso   1.00
N42    N     0.94085   0.53594   0.73699   0.00000  Uiso   1.00
N43    N     0.08626   0.11887   0.79740   0.00000  Uiso   1.00
N44    N     0.65793   0.64662   0.23717   0.00000  Uiso   1.00
N45    N     0.02024   0.51744   0.65147   0.00000  Uiso   1.00
N46    N     0.16565   0.10036   0.71187   0.00000  Uiso   1.00
C47    C     0.62554   0.86089   0.77452   0.00000  Uiso   1.00
C48    C     0.52228   0.80212   0.73966   0.00000  Uiso   1.00
C49    C     0.48237   0.70808   0.72059   0.00000  Uiso   1.00
C50    C     0.38664   0.66696   0.68930   0.00000  Uiso   1.00
C51    C     0.23448   0.56791   0.63690   0.00000  Uiso   1.00
C52    C     0.63488   0.90235   0.70358   0.00000  Uiso   1.00
C53    C     0.68965   0.89258   0.65420   0.00000  Uiso   1.00
C54    C     0.68870   0.93585   0.59255   0.00000  Uiso   1.00
C55    C     0.71140   0.99245   0.48420   0.00000  Uiso   1.00
C56    C     0.65160   0.94277   0.86547   0.00000  Uiso   1.00
C57    C     0.72045   0.96702   0.95220   0.00000  Uiso   1.00
C58    C     0.73361   0.04434   0.02685   0.00000  Uiso   1.00
C59    C     0.78227   0.16371   0.16986   0.00000  Uiso   1.00
C60    C     0.52650   0.95511   0.75286   0.00000  Uiso   1.00
C61    C     0.46848   0.85330   0.72789   0.00000  Uiso   1.00
C62    C     0.37279   0.81231   0.69662   0.00000  Uiso   1.00
C63    C     0.33274   0.71823   0.67751   0.00000  Uiso   1.00
C64    C     0.58108   0.95352   0.69181   0.00000  Uiso   1.00
C65    C     0.58006   0.99682   0.63023   0.00000  Uiso   1.00
C66    C     0.63481   0.98712   0.58076   0.00000  Uiso   1.00
C67    C     0.59780   0.99395   0.85371   0.00000  Uiso   1.00
C68    C     0.61086   0.07125   0.92823   0.00000  Uiso   1.00
C69    C     0.67971   0.09560   0.01506   0.00000  Uiso   1.00
H70    H     0.66743   0.82106   0.78368   0.00000  Uiso   1.00
H71    H     0.52403   0.66850   0.72969   0.00000  Uiso   1.00
H72    H     0.73128   0.85299   0.66332   0.00000  Uiso   1.00
H73    H     0.76207   0.92740   0.96128   0.00000  Uiso   1.00
H74    H     0.34131   0.52192   0.66462   0.00000  Uiso   1.00
H75    H     0.77833   0.91094   0.52470   0.00000  Uiso   1.00
H76    H     0.84327   0.06787   0.15300   0.00000  Uiso   1.00
H77    H     0.48461   0.99495   0.74370   0.00000  Uiso   1.00
H78    H     0.33117   0.85193   0.68752   0.00000  Uiso   1.00
H79    H     0.53843   0.03642   0.62115   0.00000  Uiso   1.00
H80    H     0.56922   0.11083   0.91910   0.00000  Uiso   1.00
H81    H     0.18478   0.67080   0.63039   0.00000  Uiso   1.00
H82    H     0.62181   0.05982   0.49047   0.00000  Uiso   1.00
H83    H     0.68674   0.21675   0.11877   0.00000  Uiso   1.00
O84    O     0.16541   0.49913   0.61124   0.00000  Uiso   1.00
O85    O     0.73878   0.00953   0.42768   0.00000  Uiso   1.00
O86    O     0.82396   0.21541   0.25200   0.00000  Uiso   1.00
N87    N     0.32553   0.57659   0.66429   0.00000  Uiso   1.00
N88    N     0.73411   0.94029   0.53346   0.00000  Uiso   1.00
N89    N     0.79484   0.08702   0.12086   0.00000  Uiso   1.00
N90    N     0.24130   0.65670   0.64587   0.00000  Uiso   1.00
N91    N     0.64988   0.02040   0.51504   0.00000  Uiso   1.00
N92    N     0.71061   0.16713   0.10245   0.00000  Uiso   1.00
C93    C     0.77502   0.62596   0.86043   0.00000  Uiso   1.00
C94    C     0.74043   0.52203   0.80121   0.00000  Uiso   1.00
C95    C     0.72142   0.48182   0.70646   0.00000  Uiso   1.00
C96    C     0.69039   0.38548   0.66503   0.00000  Uiso   1.00
C97    C     0.63838   0.23232   0.56523   0.00000  Uiso   1.00
C98    C     0.70519   0.63555   0.90236   0.00000  Uiso   1.00
C99    C     0.65657   0.69080   0.89266   0.00000  Uiso   1.00
C100   C     0.59588   0.69003   0.93639   0.00000  Uiso   1.00
C101   C     0.48922   0.71318   0.99367   0.00000  Uiso   1.00
C102   C     0.86484   0.65205   0.94277   0.00000  Uiso   1.00
C103   C     0.95046   0.72119   0.96706   0.00000  Uiso   1.00
C104   C     0.02418   0.73432   0.04483   0.00000  Uiso   1.00
C105   C     0.16540   0.78308   0.16486   0.00000  Uiso   1.00
C106   C     0.75371   0.52637   0.95536   0.00000  Uiso   1.00
C107   C     0.72885   0.46794   0.85278   0.00000  Uiso   1.00
C108   C     0.69784   0.37163   0.81148   0.00000  Uiso   1.00
C109   C     0.67879   0.33128   0.71668   0.00000  Uiso   1.00
C110   C     0.69361   0.58147   0.95392   0.00000  Uiso   1.00
C111   C     0.63298   0.58062   0.99768   0.00000  Uiso   1.00
C112   C     0.58428   0.63584   0.98804   0.00000  Uiso   1.00
C113   C     0.85327   0.59796   0.99433   0.00000  Uiso   1.00
C114   C     0.92687   0.61100   0.07208   0.00000  Uiso   1.00
C115   C     0.01258   0.68013   0.09649   0.00000  Uiso   1.00
H116   H     0.78403   0.66808   0.82029   0.00000  Uiso   1.00
H117   H     0.73038   0.52370   0.66658   0.00000  Uiso   1.00
H118   H     0.66555   0.73266   0.85276   0.00000  Uiso   1.00
H119   H     0.95939   0.76303   0.92715   0.00000  Uiso   1.00
H120   H     0.66576   0.33978   0.51889   0.00000  Uiso   1.00
H121   H     0.52907   0.78041   0.91149   0.00000  Uiso   1.00
H122   H     0.14870   0.84446   0.06835   0.00000  Uiso   1.00
H123   H     0.74469   0.48426   0.99551   0.00000  Uiso   1.00
H124   H     0.68889   0.32979   0.85140   0.00000  Uiso   1.00
H125   H     0.62405   0.53875   0.03758   0.00000  Uiso   1.00
H126   H     0.91789   0.56912   0.11197   0.00000  Uiso   1.00
H127   H     0.63208   0.18239   0.66890   0.00000  Uiso   1.00
H128   H     0.49539   0.62303   0.06150   0.00000  Uiso   1.00
H129   H     0.11501   0.68707   0.21836   0.00000  Uiso   1.00
O130   O     0.61288   0.16279   0.49593   0.00000  Uiso   1.00
O131   O     0.43358   0.74089   0.01102   0.00000  Uiso   1.00
O132   O     0.24650   0.82491   0.21681   0.00000  Uiso   1.00
N133   N     0.66551   0.32394   0.57397   0.00000  Uiso   1.00
N134   N     0.53771   0.73589   0.94102   0.00000  Uiso   1.00
N135   N     0.11700   0.79578   0.08769   0.00000  Uiso   1.00
N136   N     0.64739   0.23925   0.65469   0.00000  Uiso   1.00
N137   N     0.51958   0.65120   0.02174   0.00000  Uiso   1.00
N138   N     0.09887   0.71110   0.16840   0.00000  Uiso   1.00
C139   C     0.13846   0.22503   0.37347   0.00000  Uiso   1.00
C140   C     0.19705   0.25981   0.47810   0.00000  Uiso   1.00
C141   C     0.29053   0.27876   0.51844   0.00000  Uiso   1.00
C142   C     0.33158   0.30999   0.61546   0.00000  Uiso   1.00
C143   C     0.43027   0.36224   0.76963   0.00000  Uiso   1.00
C144   C     0.09721   0.29543   0.36393   0.00000  Uiso   1.00
C145   C     0.10674   0.34432   0.30827   0.00000  Uiso   1.00
C146   C     0.06372   0.40552   0.30917   0.00000  Uiso   1.00
C147   C     0.00735   0.51302   0.28603   0.00000  Uiso   1.00
C148   C     0.05714   0.13478   0.34730   0.00000  Uiso   1.00
C149   C     0.03297   0.04858   0.27762   0.00000  Uiso   1.00
C150   C     0.95621   0.97453   0.26450   0.00000  Uiso   1.00
C151   C     0.83764   0.83258   0.21553   0.00000  Uiso   1.00
C152   C     0.04509   0.24679   0.47404   0.00000  Uiso   1.00
C153   C     0.14633   0.27163   0.53273   0.00000  Uiso   1.00
C154   C     0.18724   0.30284   0.62972   0.00000  Uiso   1.00
C155   C     0.28077   0.32183   0.67019   0.00000  Uiso   1.00
C156   C     0.04649   0.30725   0.41856   0.00000  Uiso   1.00
C157   C     0.00344   0.36839   0.41954   0.00000  Uiso   1.00
C158   C     0.01291   0.41736   0.36390   0.00000  Uiso   1.00
C159   C     0.00643   0.14659   0.40193   0.00000  Uiso   1.00
C160   C     0.92968   0.07266   0.38890   0.00000  Uiso   1.00
C161   C     0.90540   0.98637   0.31923   0.00000  Uiso   1.00
H162   H     0.17794   0.21583   0.33094   0.00000  Uiso   1.00
H163   H     0.32976   0.26961   0.47614   0.00000  Uiso   1.00
H164   H     0.14598   0.33515   0.26599   0.00000  Uiso   1.00
H165   H     0.07223   0.03946   0.23536   0.00000  Uiso   1.00
H166   H     0.47572   0.33448   0.66122   0.00000  Uiso   1.00
H167   H     0.08819   0.47264   0.21809   0.00000  Uiso   1.00
H168   H     0.93268   0.84913   0.15349   0.00000  Uiso   1.00
H169   H     0.00561   0.25600   0.51657   0.00000  Uiso   1.00
H170   H     0.14798   0.31198   0.67197   0.00000  Uiso   1.00
H171   H     0.96420   0.37752   0.46182   0.00000  Uiso   1.00
H172   H     0.89045   0.08183   0.43119   0.00000  Uiso   1.00
H173   H     0.32819   0.36887   0.82016   0.00000  Uiso   1.00
H174   H     0.94065   0.50703   0.37702   0.00000  Uiso   1.00
H175   H     0.78514   0.88352   0.31243   0.00000  Uiso   1.00
O176   O     0.49873   0.38781   0.83957   0.00000  Uiso   1.00
O177   O     0.99028   0.56905   0.25818   0.00000  Uiso   1.00
O178   O     0.78626   0.75102   0.17344   0.00000  Uiso   1.00
N179   N     0.42146   0.33487   0.67730   0.00000  Uiso   1.00
N180   N     0.05915   0.46406   0.26301   0.00000  Uiso   1.00
N181   N     0.91374   0.88113   0.20260   0.00000  Uiso   1.00
N182   N     0.34207   0.35338   0.76283   0.00000  Uiso   1.00
N183   N     0.97976   0.48256   0.34853   0.00000  Uiso   1.00
N184   N     0.83435   0.89964   0.28813   0.00000  Uiso   1.00
C185   C     0.37446   0.13911   0.22548   0.00000  Uiso   1.00
C186   C     0.47772   0.19788   0.26034   0.00000  Uiso   1.00
C187   C     0.51763   0.29192   0.27941   0.00000  Uiso   1.00
C188   C     0.61336   0.33304   0.31070   0.00000  Uiso   1.00
C189   C     0.76552   0.43209   0.36310   0.00000  Uiso   1.00
C190   C     0.36512   0.09765   0.29642   0.00000  Uiso   1.00
C191   C     0.31035   0.10742   0.34580   0.00000  Uiso   1.00
C192   C     0.31130   0.06415   0.40745   0.00000  Uiso   1.00
C193   C     0.28860   0.00754   0.51580   0.00000  Uiso   1.00
C194   C     0.34840   0.05723   0.13453   0.00000  Uiso   1.00
C195   C     0.27955   0.03298   0.04780   0.00000  Uiso   1.00
C196   C     0.26639   0.95566   0.97315   0.00000  Uiso   1.00
C197   C     0.21773   0.83629   0.83014   0.00000  Uiso   1.00
C198   C     0.47350   0.04489   0.24714   0.00000  Uiso   1.00
C199   C     0.53152   0.14670   0.27211   0.00000  Uiso   1.00
C200   C     0.62721   0.18769   0.30338   0.00000  Uiso   1.00
C201   C     0.66726   0.28177   0.32249   0.00000  Uiso   1.00
C202   C     0.41892   0.04648   0.30819   0.00000  Uiso   1.00
C203   C     0.41994   0.00318   0.36977   0.00000  Uiso   1.00
C204   C     0.36519   0.01288   0.41924   0.00000  Uiso   1.00
C205   C     0.40220   0.00605   0.14629   0.00000  Uiso   1.00
C206   C     0.38914   0.92875   0.07177   0.00000  Uiso   1.00
C207   C     0.32029   0.90440   0.98494   0.00000  Uiso   1.00
H208   H     0.33257   0.17894   0.21632   0.00000  Uiso   1.00
H209   H     0.47597   0.33150   0.27031   0.00000  Uiso   1.00
H210   H     0.26872   0.14701   0.33668   0.00000  Uiso   1.00
H211   H     0.23793   0.07260   0.03872   0.00000  Uiso   1.00
H212   H     0.65869   0.47808   0.33538   0.00000  Uiso   1.00
H213   H     0.22167   0.08906   0.47530   0.00000  Uiso   1.00
H214   H     0.15673   0.93213   0.84700   0.00000  Uiso   1.00
H215   H     0.51539   0.00505   0.25630   0.00000  Uiso   1.00
H216   H     0.66883   0.14807   0.31248   0.00000  Uiso   1.00
H217   H     0.46157   0.96358   0.37885   0.00000  Uiso   1.00
H218   H     0.43078   0.88917   0.08090   0.00000  Uiso   1.00
H219   H     0.81522   0.32920   0.36961   0.00000  Uiso   1.00
H220   H     0.37819   0.94017   0.50953   0.00000  Uiso   1.00
H221   H     0.31326   0.78325   0.88123   0.00000  Uiso   1.00
O222   O     0.83459   0.50087   0.38876   0.00000  Uiso   1.00
O223   O     0.26122   0.99047   0.57232   0.00000  Uiso   1.00
O224   O     0.17603   0.78459   0.74800   0.00000  Uiso   1.00
N225   N     0.67447   0.42341   0.33571   0.00000  Uiso   1.00
N226   N     0.26589   0.05971   0.46654   0.00000  Uiso   1.00
N227   N     0.20516   0.91298   0.87914   0.00000  Uiso   1.00
N228   N     0.75870   0.34330   0.35413   0.00000  Uiso   1.00
N229   N     0.35012   0.97960   0.48496   0.00000  Uiso   1.00
N230   N     0.28939   0.83287   0.89755   0.00000  Uiso   1.00
C231   C     0.22498   0.37404   0.13957   0.00000  Uiso   1.00
C232   C     0.25957   0.47797   0.19878   0.00000  Uiso   1.00
C233   C     0.27858   0.51818   0.29354   0.00000  Uiso   1.00
C234   C     0.30961   0.61452   0.33497   0.00000  Uiso   1.00
C235   C     0.36162   0.76768   0.43477   0.00000  Uiso   1.00
C236   C     0.29481   0.36445   0.09764   0.00000  Uiso   1.00
C237   C     0.34343   0.30920   0.10734   0.00000  Uiso   1.00
C238   C     0.40412   0.30997   0.06361   0.00000  Uiso   1.00
C239   C     0.51078   0.28682   0.00633   0.00000  Uiso   1.00
C240   C     0.13516   0.34795   0.05723   0.00000  Uiso   1.00
C241   C     0.04954   0.27881   0.03294   0.00000  Uiso   1.00
C242   C     0.97582   0.26568   0.95517   0.00000  Uiso   1.00
C243   C     0.83460   0.21692   0.83514   0.00000  Uiso   1.00
C244   C     0.24629   0.47363   0.04464   0.00000  Uiso   1.00
C245   C     0.27115   0.53206   0.14722   0.00000  Uiso   1.00
C246   C     0.30216   0.62837   0.18852   0.00000  Uiso   1.00
C247   C     0.32121   0.66872   0.28332   0.00000  Uiso   1.00
C248   C     0.30639   0.41853   0.04608   0.00000  Uiso   1.00
C249   C     0.36702   0.41938   0.00232   0.00000  Uiso   1.00
C250   C     0.41572   0.36416   0.01196   0.00000  Uiso   1.00
C251   C     0.14673   0.40204   0.00567   0.00000  Uiso   1.00
C252   C     0.07313   0.38900   0.92792   0.00000  Uiso   1.00
C253   C     0.98742   0.31987   0.90351   0.00000  Uiso   1.00
H254   H     0.21597   0.33192   0.17971   0.00000  Uiso   1.00
H255   H     0.26962   0.47630   0.33342   0.00000  Uiso   1.00
H256   H     0.33445   0.26734   0.14724   0.00000  Uiso   1.00
H257   H     0.04061   0.23697   0.07285   0.00000  Uiso   1.00
H258   H     0.33424   0.66022   0.48111   0.00000  Uiso   1.00
H259   H     0.47092   0.21959   0.08851   0.00000  Uiso   1.00
H260   H     0.85130   0.15554   0.93165   0.00000  Uiso   1.00
H261   H     0.25531   0.51574   0.00449   0.00000  Uiso   1.00
H262   H     0.31111   0.67021   0.14860   0.00000  Uiso   1.00
H263   H     0.37595   0.46125   0.96242   0.00000  Uiso   1.00
H264   H     0.08211   0.43088   0.88803   0.00000  Uiso   1.00
H265   H     0.36792   0.81761   0.33110   0.00000  Uiso   1.00
H266   H     0.50461   0.37697   0.93850   0.00000  Uiso   1.00
H267   H     0.88499   0.31293   0.78164   0.00000  Uiso   1.00
O268   O     0.38712   0.83721   0.50407   0.00000  Uiso   1.00
O269   O     0.56642   0.25911   0.98898   0.00000  Uiso   1.00
O270   O     0.75350   0.17509   0.78319   0.00000  Uiso   1.00
N271   N     0.33449   0.67606   0.42603   0.00000  Uiso   1.00
N272   N     0.46229   0.26411   0.05898   0.00000  Uiso   1.00
N273   N     0.88300   0.20422   0.91231   0.00000  Uiso   1.00
N274   N     0.35261   0.76075   0.34531   0.00000  Uiso   1.00
N275   N     0.48042   0.34880   0.97826   0.00000  Uiso   1.00
N276   N     0.90113   0.28890   0.83160   0.00000  Uiso   1.00
