data_job_02615
_audit_creation_date              2018-12-19
_audit_creation_method            'Materials Studio'
_symmetry_space_group_name_H-M    'P1'
_symmetry_Int_Tables_number       1
_symmetry_cell_setting            triclinic
loop_
_symmetry_equiv_pos_as_xyz
  x,y,z
_cell_length_a                    20.3306
_cell_length_b                    14.5117
_cell_length_c                    9.3413
_cell_angle_alpha                 90.0000
_cell_angle_beta                  104.6660
_cell_angle_gamma                 90.0000
loop_
_atom_site_label
_atom_site_type_symbol
_atom_site_fract_x
_atom_site_fract_y
_atom_site_fract_z
_atom_site_U_iso_or_equiv
_atom_site_adp_type
_atom_site_occupancy
C1     C     0.84360   0.76171   0.10213   0.00000  Uiso   1.00
C2     C     0.76947   0.74165   0.09752   0.00000  Uiso   1.00
C3     C     0.72968   0.79094   0.17147   0.00000  Uiso   1.00
C4     C     0.66305   0.76164   0.15302   0.00000  Uiso   1.00
C5     C     0.55188   0.74202   0.15949   0.00000  Uiso   1.00
C6     C     0.88249   0.67302   0.15462   0.00000  Uiso   1.00
C7     C     0.93773   0.66461   0.27656   0.00000  Uiso   1.00
C8     C     0.96624   0.57754   0.30616   0.00000  Uiso   1.00
C9     C     0.03056   0.45137   0.40121   0.00000  Uiso   1.00
C10    C     0.84624   0.77473   0.94170   0.00000  Uiso   1.00
C11    C     0.87103   0.85182   0.88462   0.00000  Uiso   1.00
C12    C     0.86904   0.85037   0.73495   0.00000  Uiso   1.00
C13    C     0.87708   0.88212   0.49942   0.00000  Uiso   1.00
C14    C     0.79601   0.62203   0.93786   0.00000  Uiso   1.00
C15    C     0.74362   0.66578   0.00830   0.00000  Uiso   1.00
C16    C     0.67702   0.63641   0.98972   0.00000  Uiso   1.00
C17    C     0.63714   0.68565   0.06363   0.00000  Uiso   1.00
C18    C     0.85663   0.59715   0.06540   0.00000  Uiso   1.00
C19    C     0.88507   0.51008   0.09481   0.00000  Uiso   1.00
C20    C     0.94034   0.50153   0.21678   0.00000  Uiso   1.00
C21    C     0.82039   0.69886   0.85247   0.00000  Uiso   1.00
C22    C     0.81836   0.69729   0.70287   0.00000  Uiso   1.00
C23    C     0.84314   0.77437   0.64557   0.00000  Uiso   1.00
H24    H     0.86374   0.82077   0.17160   0.00000  Uiso   1.00
H25    H     0.74971   0.84964   0.24052   0.00000  Uiso   1.00
H26    H     0.95773   0.72333   0.34558   0.00000  Uiso   1.00
H27    H     0.89103   0.91052   0.95370   0.00000  Uiso   1.00
H28    H     0.61190   0.84818   0.27763   0.00000  Uiso   1.00
H29    H     0.05054   0.58186   0.49912   0.00000  Uiso   1.00
H30    H     0.90990   0.97657   0.67276   0.00000  Uiso   1.00
H31    H     0.77588   0.56296   0.86839   0.00000  Uiso   1.00
H32    H     0.65703   0.57769   0.92067   0.00000  Uiso   1.00
H33    H     0.86505   0.45138   0.02574   0.00000  Uiso   1.00
H34    H     0.79835   0.63857   0.63385   0.00000  Uiso   1.00
H35    H     0.53668   0.62745   0.01803   0.00000  Uiso   1.00
H36    H     0.97532   0.36113   0.23953   0.00000  Uiso   1.00
H37    H     0.83467   0.75584   0.41316   0.00000  Uiso   1.00
O38    O     0.49770   0.75214   0.18773   0.00000  Uiso   1.00
O39    O     0.07318   0.40274   0.47831   0.00000  Uiso   1.00
O40    O     0.88866   0.92060   0.39414   0.00000  Uiso   1.00
N41    N     0.61050   0.79422   0.20933   0.00000  Uiso   1.00
N42    N     0.02059   0.54522   0.41643   0.00000  Uiso   1.00
N43    N     0.88912   0.91424   0.64386   0.00000  Uiso   1.00
N44    N     0.57003   0.67545   0.06964   0.00000  Uiso   1.00
N45    N     0.98012   0.42645   0.27674   0.00000  Uiso   1.00
N46    N     0.84865   0.79547   0.50417   0.00000  Uiso   1.00
C47    C     0.34360   0.26171   0.10213   0.00000  Uiso   1.00
C48    C     0.26947   0.24165   0.09752   0.00000  Uiso   1.00
C49    C     0.22968   0.29094   0.17147   0.00000  Uiso   1.00
C50    C     0.16305   0.26164   0.15302   0.00000  Uiso   1.00
C51    C     0.05188   0.24202   0.15949   0.00000  Uiso   1.00
C52    C     0.38249   0.17302   0.15462   0.00000  Uiso   1.00
C53    C     0.43773   0.16461   0.27656   0.00000  Uiso   1.00
C54    C     0.46624   0.07754   0.30616   0.00000  Uiso   1.00
C55    C     0.53056   0.95137   0.40121   0.00000  Uiso   1.00
C56    C     0.34624   0.27473   0.94170   0.00000  Uiso   1.00
C57    C     0.37103   0.35182   0.88462   0.00000  Uiso   1.00
C58    C     0.36904   0.35037   0.73495   0.00000  Uiso   1.00
C59    C     0.37708   0.38212   0.49942   0.00000  Uiso   1.00
C60    C     0.29601   0.12203   0.93786   0.00000  Uiso   1.00
C61    C     0.24362   0.16578   0.00830   0.00000  Uiso   1.00
C62    C     0.17702   0.13641   0.98972   0.00000  Uiso   1.00
C63    C     0.13714   0.18565   0.06363   0.00000  Uiso   1.00
C64    C     0.35663   0.09715   0.06540   0.00000  Uiso   1.00
C65    C     0.38507   0.01008   0.09481   0.00000  Uiso   1.00
C66    C     0.44034   0.00153   0.21678   0.00000  Uiso   1.00
C67    C     0.32039   0.19886   0.85247   0.00000  Uiso   1.00
C68    C     0.31836   0.19729   0.70287   0.00000  Uiso   1.00
C69    C     0.34314   0.27437   0.64557   0.00000  Uiso   1.00
H70    H     0.36374   0.32077   0.17160   0.00000  Uiso   1.00
H71    H     0.24971   0.34964   0.24052   0.00000  Uiso   1.00
H72    H     0.45773   0.22333   0.34558   0.00000  Uiso   1.00
H73    H     0.39103   0.41052   0.95370   0.00000  Uiso   1.00
H74    H     0.11190   0.34818   0.27763   0.00000  Uiso   1.00
H75    H     0.55054   0.08186   0.49912   0.00000  Uiso   1.00
H76    H     0.40990   0.47657   0.67276   0.00000  Uiso   1.00
H77    H     0.27588   0.06296   0.86839   0.00000  Uiso   1.00
H78    H     0.15703   0.07769   0.92067   0.00000  Uiso   1.00
H79    H     0.36505   0.95138   0.02574   0.00000  Uiso   1.00
H80    H     0.29835   0.13857   0.63385   0.00000  Uiso   1.00
H81    H     0.03668   0.12745   0.01803   0.00000  Uiso   1.00
H82    H     0.47532   0.86113   0.23953   0.00000  Uiso   1.00
H83    H     0.33467   0.25584   0.41316   0.00000  Uiso   1.00
O84    O     0.99770   0.25214   0.18773   0.00000  Uiso   1.00
O85    O     0.57318   0.90274   0.47831   0.00000  Uiso   1.00
O86    O     0.38866   0.42060   0.39414   0.00000  Uiso   1.00
N87    N     0.11050   0.29422   0.20933   0.00000  Uiso   1.00
N88    N     0.52059   0.04522   0.41643   0.00000  Uiso   1.00
N89    N     0.38912   0.41424   0.64386   0.00000  Uiso   1.00
N90    N     0.07003   0.17545   0.06964   0.00000  Uiso   1.00
N91    N     0.48012   0.92645   0.27674   0.00000  Uiso   1.00
N92    N     0.34865   0.29547   0.50417   0.00000  Uiso   1.00
C93    C     0.84360   0.23829   0.60213   0.00000  Uiso   1.00
C94    C     0.76947   0.25835   0.59752   0.00000  Uiso   1.00
C95    C     0.72968   0.20906   0.67147   0.00000  Uiso   1.00
C96    C     0.66305   0.23836   0.65302   0.00000  Uiso   1.00
C97    C     0.55188   0.25798   0.65949   0.00000  Uiso   1.00
C98    C     0.88249   0.32698   0.65462   0.00000  Uiso   1.00
C99    C     0.93773   0.33539   0.77656   0.00000  Uiso   1.00
C100   C     0.96624   0.42246   0.80616   0.00000  Uiso   1.00
C101   C     0.03056   0.54863   0.90121   0.00000  Uiso   1.00
C102   C     0.84624   0.22527   0.44170   0.00000  Uiso   1.00
C103   C     0.87103   0.14818   0.38462   0.00000  Uiso   1.00
C104   C     0.86904   0.14963   0.23495   0.00000  Uiso   1.00
C105   C     0.87708   0.11788   0.99942   0.00000  Uiso   1.00
C106   C     0.79601   0.37797   0.43786   0.00000  Uiso   1.00
C107   C     0.74362   0.33422   0.50830   0.00000  Uiso   1.00
C108   C     0.67702   0.36359   0.48972   0.00000  Uiso   1.00
C109   C     0.63714   0.31435   0.56363   0.00000  Uiso   1.00
C110   C     0.85663   0.40285   0.56540   0.00000  Uiso   1.00
C111   C     0.88507   0.48992   0.59481   0.00000  Uiso   1.00
C112   C     0.94034   0.49847   0.71678   0.00000  Uiso   1.00
C113   C     0.82039   0.30114   0.35247   0.00000  Uiso   1.00
C114   C     0.81836   0.30271   0.20287   0.00000  Uiso   1.00
C115   C     0.84314   0.22563   0.14557   0.00000  Uiso   1.00
H116   H     0.86374   0.17923   0.67160   0.00000  Uiso   1.00
H117   H     0.74971   0.15036   0.74052   0.00000  Uiso   1.00
H118   H     0.95773   0.27667   0.84558   0.00000  Uiso   1.00
H119   H     0.89103   0.08948   0.45370   0.00000  Uiso   1.00
H120   H     0.61190   0.15182   0.77763   0.00000  Uiso   1.00
H121   H     0.05054   0.41814   0.99912   0.00000  Uiso   1.00
H122   H     0.90990   0.02343   0.17276   0.00000  Uiso   1.00
H123   H     0.77588   0.43704   0.36839   0.00000  Uiso   1.00
H124   H     0.65703   0.42231   0.42067   0.00000  Uiso   1.00
H125   H     0.86505   0.54862   0.52574   0.00000  Uiso   1.00
H126   H     0.79835   0.36143   0.13385   0.00000  Uiso   1.00
H127   H     0.53668   0.37255   0.51803   0.00000  Uiso   1.00
H128   H     0.97532   0.63887   0.73953   0.00000  Uiso   1.00
H129   H     0.83467   0.24416   0.91316   0.00000  Uiso   1.00
O130   O     0.49770   0.24786   0.68773   0.00000  Uiso   1.00
O131   O     0.07318   0.59726   0.97831   0.00000  Uiso   1.00
O132   O     0.88866   0.07940   0.89414   0.00000  Uiso   1.00
N133   N     0.61050   0.20578   0.70933   0.00000  Uiso   1.00
N134   N     0.02059   0.45478   0.91643   0.00000  Uiso   1.00
N135   N     0.88912   0.08576   0.14386   0.00000  Uiso   1.00
N136   N     0.57003   0.32455   0.56964   0.00000  Uiso   1.00
N137   N     0.98012   0.57355   0.77674   0.00000  Uiso   1.00
N138   N     0.84865   0.20453   0.00417   0.00000  Uiso   1.00
C139   C     0.34360   0.73829   0.60213   0.00000  Uiso   1.00
C140   C     0.26947   0.75835   0.59752   0.00000  Uiso   1.00
C141   C     0.22968   0.70906   0.67147   0.00000  Uiso   1.00
C142   C     0.16305   0.73836   0.65302   0.00000  Uiso   1.00
C143   C     0.05188   0.75798   0.65949   0.00000  Uiso   1.00
C144   C     0.38249   0.82698   0.65462   0.00000  Uiso   1.00
C145   C     0.43773   0.83539   0.77656   0.00000  Uiso   1.00
C146   C     0.46624   0.92246   0.80616   0.00000  Uiso   1.00
C147   C     0.53056   0.04863   0.90121   0.00000  Uiso   1.00
C148   C     0.34624   0.72527   0.44170   0.00000  Uiso   1.00
C149   C     0.37103   0.64818   0.38462   0.00000  Uiso   1.00
C150   C     0.36904   0.64963   0.23495   0.00000  Uiso   1.00
C151   C     0.37708   0.61788   0.99942   0.00000  Uiso   1.00
C152   C     0.29601   0.87797   0.43786   0.00000  Uiso   1.00
C153   C     0.24362   0.83422   0.50830   0.00000  Uiso   1.00
C154   C     0.17702   0.86359   0.48972   0.00000  Uiso   1.00
C155   C     0.13714   0.81435   0.56363   0.00000  Uiso   1.00
C156   C     0.35663   0.90285   0.56540   0.00000  Uiso   1.00
C157   C     0.38507   0.98992   0.59481   0.00000  Uiso   1.00
C158   C     0.44034   0.99847   0.71678   0.00000  Uiso   1.00
C159   C     0.32039   0.80114   0.35247   0.00000  Uiso   1.00
C160   C     0.31836   0.80271   0.20287   0.00000  Uiso   1.00
C161   C     0.34314   0.72563   0.14557   0.00000  Uiso   1.00
H162   H     0.36374   0.67923   0.67160   0.00000  Uiso   1.00
H163   H     0.24971   0.65036   0.74052   0.00000  Uiso   1.00
H164   H     0.45773   0.77667   0.84558   0.00000  Uiso   1.00
H165   H     0.39103   0.58948   0.45370   0.00000  Uiso   1.00
H166   H     0.11190   0.65182   0.77763   0.00000  Uiso   1.00
H167   H     0.55054   0.91814   0.99912   0.00000  Uiso   1.00
H168   H     0.40990   0.52343   0.17276   0.00000  Uiso   1.00
H169   H     0.27588   0.93704   0.36839   0.00000  Uiso   1.00
H170   H     0.15703   0.92231   0.42067   0.00000  Uiso   1.00
H171   H     0.36505   0.04862   0.52574   0.00000  Uiso   1.00
H172   H     0.29835   0.86143   0.13385   0.00000  Uiso   1.00
H173   H     0.03668   0.87255   0.51803   0.00000  Uiso   1.00
H174   H     0.47532   0.13887   0.73953   0.00000  Uiso   1.00
H175   H     0.33467   0.74416   0.91316   0.00000  Uiso   1.00
O176   O     0.99770   0.74786   0.68773   0.00000  Uiso   1.00
O177   O     0.57318   0.09726   0.97831   0.00000  Uiso   1.00
O178   O     0.38866   0.57940   0.89414   0.00000  Uiso   1.00
N179   N     0.11050   0.70578   0.70933   0.00000  Uiso   1.00
N180   N     0.52059   0.95478   0.91643   0.00000  Uiso   1.00
N181   N     0.38912   0.58576   0.14386   0.00000  Uiso   1.00
N182   N     0.07003   0.82455   0.56964   0.00000  Uiso   1.00
N183   N     0.48012   0.07355   0.77674   0.00000  Uiso   1.00
N184   N     0.34865   0.70453   0.00417   0.00000  Uiso   1.00
