data_job_06928
_audit_creation_date              2018-12-19
_audit_creation_method            'Materials Studio'
_symmetry_space_group_name_H-M    'P1'
_symmetry_Int_Tables_number       1
_symmetry_cell_setting            triclinic
loop_
_symmetry_equiv_pos_as_xyz
  x,y,z
_cell_length_a                    19.5450
_cell_length_b                    23.0007
_cell_length_c                    22.6660
_cell_angle_alpha                 108.2720
_cell_angle_beta                  84.0404
_cell_angle_gamma                 69.1210
loop_
_atom_site_label
_atom_site_type_symbol
_atom_site_fract_x
_atom_site_fract_y
_atom_site_fract_z
_atom_site_U_iso_or_equiv
_atom_site_adp_type
_atom_site_occupancy
C1     C     0.24577   0.37797   0.55550   0.00000  Uiso   1.00
C2     C     0.26669   0.38450   0.49189   0.00000  Uiso   1.00
C3     C     0.33720   0.37728   0.46355   0.00000  Uiso   1.00
C4     C     0.34489   0.38517   0.40529   0.00000  Uiso   1.00
C5     C     0.38659   0.39312   0.31092   0.00000  Uiso   1.00
C6     C     0.17903   0.44379   0.59718   0.00000  Uiso   1.00
C7     C     0.17585   0.48641   0.65737   0.00000  Uiso   1.00
C8     C     0.10973   0.54420   0.68775   0.00000  Uiso   1.00
C9     C     0.01533   0.64417   0.75687   0.00000  Uiso   1.00
C10    C     0.21501   0.32404   0.54107   0.00000  Uiso   1.00
C11    C     0.24206   0.26598   0.55409   0.00000  Uiso   1.00
C12    C     0.20623   0.22297   0.53724   0.00000  Uiso   1.00
C13    C     0.16769   0.13701   0.51924   0.00000  Uiso   1.00
C14    C     0.13402   0.40482   0.50244   0.00000  Uiso   1.00
C15    C     0.20599   0.39909   0.46308   0.00000  Uiso   1.00
C16    C     0.21357   0.40698   0.40484   0.00000  Uiso   1.00
C17    C     0.28408   0.39978   0.37642   0.00000  Uiso   1.00
C18    C     0.11834   0.45837   0.56837   0.00000  Uiso   1.00
C19    C     0.05221   0.51611   0.59867   0.00000  Uiso   1.00
C20    C     0.04893   0.55881   0.65888   0.00000  Uiso   1.00
C21    C     0.15432   0.33862   0.51225   0.00000  Uiso   1.00
C22    C     0.11843   0.29569   0.49538   0.00000  Uiso   1.00
C23    C     0.14542   0.23758   0.50837   0.00000  Uiso   1.00
H24    H     0.29302   0.36662   0.57794   0.00000  Uiso   1.00
H25    H     0.38416   0.36600   0.48587   0.00000  Uiso   1.00
H26    H     0.22282   0.47511   0.67966   0.00000  Uiso   1.00
H27    H     0.28903   0.25472   0.57639   0.00000  Uiso   1.00
H28    H     0.45843   0.37176   0.37109   0.00000  Uiso   1.00
H29    H     0.11823   0.60181   0.77973   0.00000  Uiso   1.00
H30    H     0.25785   0.13707   0.56197   0.00000  Uiso   1.00
H31    H     0.08677   0.41618   0.48001   0.00000  Uiso   1.00
H32    H     0.16659   0.41827   0.38255   0.00000  Uiso   1.00
H33    H     0.00525   0.52738   0.57635   0.00000  Uiso   1.00
H34    H     0.07146   0.30699   0.47308   0.00000  Uiso   1.00
H35    H     0.28184   0.41419   0.28724   0.00000  Uiso   1.00
H36    H     0.94164   0.64424   0.69588   0.00000  Uiso   1.00
H37    H     0.08126   0.17950   0.47812   0.00000  Uiso   1.00
O38    O     0.42636   0.39348   0.26683   0.00000  Uiso   1.00
O39    O     0.98003   0.69528   0.80296   0.00000  Uiso   1.00
O40    O     0.16320   0.08556   0.51726   0.00000  Uiso   1.00
N41    N     0.40592   0.38145   0.36472   0.00000  Uiso   1.00
N42    N     0.08786   0.59653   0.74677   0.00000  Uiso   1.00
N43    N     0.21837   0.16205   0.54320   0.00000  Uiso   1.00
N44    N     0.31089   0.40428   0.31960   0.00000  Uiso   1.00
N45    N     0.99284   0.61936   0.70165   0.00000  Uiso   1.00
N46    N     0.12335   0.18488   0.49808   0.00000  Uiso   1.00
C47    C     0.49367   0.18376   0.54548   0.00000  Uiso   1.00
C48    C     0.46104   0.14571   0.57572   0.00000  Uiso   1.00
C49    C     0.39900   0.17461   0.62738   0.00000  Uiso   1.00
C50    C     0.37802   0.13116   0.64792   0.00000  Uiso   1.00
C51    C     0.32133   0.08270   0.69946   0.00000  Uiso   1.00
C52    C     0.57640   0.15975   0.54800   0.00000  Uiso   1.00
C53    C     0.61136   0.20046   0.57635   0.00000  Uiso   1.00
C54    C     0.68751   0.16883   0.57354   0.00000  Uiso   1.00
C55    C     0.80995   0.14217   0.58201   0.00000  Uiso   1.00
C56    C     0.49364   0.15773   0.47478   0.00000  Uiso   1.00
C57    C     0.45904   0.19674   0.44156   0.00000  Uiso   1.00
C58    C     0.46552   0.16340   0.37712   0.00000  Uiso   1.00
C59    C     0.45946   0.13361   0.27190   0.00000  Uiso   1.00
C60    C     0.56674   0.05522   0.49009   0.00000  Uiso   1.00
C61    C     0.50073   0.07589   0.54563   0.00000  Uiso   1.00
C62    C     0.47984   0.03239   0.56610   0.00000  Uiso   1.00
C63    C     0.41777   0.06122   0.61778   0.00000  Uiso   1.00
C64    C     0.61609   0.08994   0.51791   0.00000  Uiso   1.00
C65    C     0.69220   0.05824   0.51506   0.00000  Uiso   1.00
C66    C     0.72727   0.09888   0.54340   0.00000  Uiso   1.00
C67    C     0.53333   0.08791   0.44470   0.00000  Uiso   1.00
C68    C     0.53987   0.05451   0.38028   0.00000  Uiso   1.00
C69    C     0.50528   0.09346   0.34698   0.00000  Uiso   1.00
H70    H     0.46278   0.23812   0.56891   0.00000  Uiso   1.00
H71    H     0.36830   0.22865   0.65065   0.00000  Uiso   1.00
H72    H     0.58064   0.25449   0.59962   0.00000  Uiso   1.00
H73    H     0.42833   0.25076   0.46486   0.00000  Uiso   1.00
H74    H     0.28108   0.18735   0.72803   0.00000  Uiso   1.00
H75    H     0.72881   0.24184   0.62041   0.00000  Uiso   1.00
H76    H     0.40764   0.23399   0.33624   0.00000  Uiso   1.00
H77    H     0.59764   0.00086   0.46667   0.00000  Uiso   1.00
H78    H     0.51056   0.97836   0.54281   0.00000  Uiso   1.00
H79    H     0.72290   0.00421   0.49178   0.00000  Uiso   1.00
H80    H     0.57059   0.00048   0.35702   0.00000  Uiso   1.00
H81    H     0.39654   0.98421   0.64050   0.00000  Uiso   1.00
H82    H     0.84427   0.03870   0.53287   0.00000  Uiso   1.00
H83    H     0.52310   0.03085   0.24871   0.00000  Uiso   1.00
O84    O     0.27911   0.07526   0.73621   0.00000  Uiso   1.00
O85    O     0.86651   0.14676   0.59500   0.00000  Uiso   1.00
O86    O     0.44514   0.13646   0.22218   0.00000  Uiso   1.00
N87    N     0.32019   0.14263   0.69697   0.00000  Uiso   1.00
N88    N     0.73879   0.19357   0.59636   0.00000  Uiso   1.00
N89    N     0.43854   0.18624   0.33069   0.00000  Uiso   1.00
N90    N     0.38232   0.03332   0.64987   0.00000  Uiso   1.00
N91    N     0.80092   0.08426   0.54926   0.00000  Uiso   1.00
N92    N     0.50067   0.07693   0.28359   0.00000  Uiso   1.00
C93    C     0.30574   0.69701   0.26009   0.00000  Uiso   1.00
C94    C     0.35924   0.63929   0.27475   0.00000  Uiso   1.00
C95    C     0.34990   0.62966   0.33200   0.00000  Uiso   1.00
C96    C     0.40513   0.57378   0.33592   0.00000  Uiso   1.00
C97    C     0.47874   0.49096   0.36653   0.00000  Uiso   1.00
C98    C     0.35342   0.73094   0.24046   0.00000  Uiso   1.00
C99    C     0.33918   0.79837   0.26887   0.00000  Uiso   1.00
C100   C     0.38951   0.81964   0.24392   0.00000  Uiso   1.00
C101   C     0.45406   0.87911   0.22126   0.00000  Uiso   1.00
C102   C     0.28317   0.66454   0.20008   0.00000  Uiso   1.00
C103   C     0.20985   0.67614   0.19453   0.00000  Uiso   1.00
C104   C     0.20103   0.64152   0.13558   0.00000  Uiso   1.00
C105   C     0.15649   0.59790   0.05023   0.00000  Uiso   1.00
C106   C     0.42043   0.61490   0.16526   0.00000  Uiso   1.00
C107   C     0.42154   0.59470   0.22324   0.00000  Uiso   1.00
C108   C     0.47679   0.53882   0.22708   0.00000  Uiso   1.00
C109   C     0.46754   0.52910   0.28432   0.00000  Uiso   1.00
C110   C     0.41571   0.68635   0.18896   0.00000  Uiso   1.00
C111   C     0.46607   0.70752   0.16395   0.00000  Uiso   1.00
C112   C     0.45192   0.77496   0.19232   0.00000  Uiso   1.00
C113   C     0.34546   0.61994   0.14857   0.00000  Uiso   1.00
C114   C     0.33674   0.58530   0.08962   0.00000  Uiso   1.00
C115   C     0.26344   0.59684   0.08398   0.00000  Uiso   1.00
H116   H     0.25725   0.73173   0.30019   0.00000  Uiso   1.00
H117   H     0.30169   0.66419   0.37185   0.00000  Uiso   1.00
H118   H     0.29097   0.83287   0.30872   0.00000  Uiso   1.00
H119   H     0.16166   0.71066   0.23440   0.00000  Uiso   1.00
H120   H     0.37845   0.56964   0.42859   0.00000  Uiso   1.00
H121   H     0.35583   0.92532   0.29547   0.00000  Uiso   1.00
H122   H     0.08316   0.66762   0.13875   0.00000  Uiso   1.00
H123   H     0.46893   0.58018   0.12516   0.00000  Uiso   1.00
H124   H     0.52499   0.50431   0.18721   0.00000  Uiso   1.00
H125   H     0.51427   0.67300   0.12409   0.00000  Uiso   1.00
H126   H     0.38496   0.55079   0.04977   0.00000  Uiso   1.00
H127   H     0.55969   0.43989   0.27873   0.00000  Uiso   1.00
H128   H     0.53706   0.79557   0.14562   0.00000  Uiso   1.00
H129   H     0.26440   0.53787   0.98889   0.00000  Uiso   1.00
O130   O     0.50214   0.45761   0.39765   0.00000  Uiso   1.00
O131   O     0.47245   0.92424   0.22300   0.00000  Uiso   1.00
O132   O     0.11472   0.58615   0.01738   0.00000  Uiso   1.00
N133   N     0.41340   0.54951   0.38480   0.00000  Uiso   1.00
N134   N     0.39226   0.88204   0.26035   0.00000  Uiso   1.00
N135   N     0.13734   0.64113   0.11382   0.00000  Uiso   1.00
N136   N     0.51093   0.47969   0.30416   0.00000  Uiso   1.00
N137   N     0.48978   0.81222   0.17972   0.00000  Uiso   1.00
N138   N     0.23486   0.57131   0.03319   0.00000  Uiso   1.00
C139   C     0.72599   0.03445   0.03470   0.00000  Uiso   1.00
C140   C     0.69454   0.99738   0.06730   0.00000  Uiso   1.00
C141   C     0.73699   0.94302   0.08157   0.00000  Uiso   1.00
C142   C     0.69760   0.91616   0.11149   0.00000  Uiso   1.00
C143   C     0.66079   0.85457   0.15985   0.00000  Uiso   1.00
C144   C     0.68979   0.10803   0.08002   0.00000  Uiso   1.00
C145   C     0.72825   0.14672   0.10498   0.00000  Uiso   1.00
C146   C     0.68486   0.21301   0.14560   0.00000  Uiso   1.00
C147   C     0.64068   0.32322   0.21367   0.00000  Uiso   1.00
C148   C     0.69396   0.03150   0.97581   0.00000  Uiso   1.00
C149   C     0.73592   0.00585   0.91314   0.00000  Uiso   1.00
C150   C     0.69604   0.00773   0.86602   0.00000  Uiso   1.00
C151   C     0.65833   0.99912   0.77229   0.00000  Uiso   1.00
C152   C     0.58054   0.08341   0.06246   0.00000  Uiso   1.00
C153   C     0.61554   0.02397   0.08238   0.00000  Uiso   1.00
C154   C     0.57607   0.99718   0.11228   0.00000  Uiso   1.00
C155   C     0.61846   0.94280   0.12659   0.00000  Uiso   1.00
C156   C     0.61079   0.13462   0.09510   0.00000  Uiso   1.00
C157   C     0.56734   0.20088   0.13569   0.00000  Uiso   1.00
C158   C     0.60572   0.23965   0.16071   0.00000  Uiso   1.00
C159   C     0.61496   0.05809   0.99089   0.00000  Uiso   1.00
C160   C     0.57500   0.06001   0.94386   0.00000  Uiso   1.00
C161   C     0.61690   0.03437   0.88113   0.00000  Uiso   1.00
H162   H     0.78749   0.01376   0.02296   0.00000  Uiso   1.00
H163   H     0.79813   0.92246   0.06990   0.00000  Uiso   1.00
H164   H     0.78939   0.12613   0.09330   0.00000  Uiso   1.00
H165   H     0.79706   0.98528   0.90149   0.00000  Uiso   1.00
H166   H     0.77508   0.83299   0.12861   0.00000  Uiso   1.00
H167   H     0.75665   0.26243   0.17792   0.00000  Uiso   1.00
H168   H     0.77282   0.96544   0.77347   0.00000  Uiso   1.00
H169   H     0.51904   0.10411   0.07420   0.00000  Uiso   1.00
H170   H     0.51494   0.01777   0.12395   0.00000  Uiso   1.00
H171   H     0.50620   0.22144   0.14735   0.00000  Uiso   1.00
H172   H     0.51387   0.08059   0.95554   0.00000  Uiso   1.00
H173   H     0.54523   0.91035   0.17248   0.00000  Uiso   1.00
H174   H     0.52681   0.33979   0.22179   0.00000  Uiso   1.00
H175   H     0.54298   0.04279   0.81734   0.00000  Uiso   1.00
O176   O     0.66231   0.81326   0.18236   0.00000  Uiso   1.00
O177   O     0.63813   0.37667   0.24705   0.00000  Uiso   1.00
O178   O     0.65935   0.98701   0.71642   0.00000  Uiso   1.00
N179   N     0.72155   0.86304   0.13209   0.00000  Uiso   1.00
N180   N     0.70432   0.26454   0.17821   0.00000  Uiso   1.00
N181   N     0.71944   0.98689   0.80008   0.00000  Uiso   1.00
N182   N     0.59787   0.90466   0.15570   0.00000  Uiso   1.00
N183   N     0.58064   0.30616   0.20181   0.00000  Uiso   1.00
N184   N     0.59576   0.02851   0.82368   0.00000  Uiso   1.00
C185   C     0.94976   0.01288   0.89220   0.00000  Uiso   1.00
C186   C     0.88897   0.07929   0.89729   0.00000  Uiso   1.00
C187   C     0.83011   0.12393   0.95050   0.00000  Uiso   1.00
C188   C     0.78040   0.18194   0.94562   0.00000  Uiso   1.00
C189   C     0.68468   0.28312   0.96207   0.00000  Uiso   1.00
C190   C     0.02508   0.01658   0.87437   0.00000  Uiso   1.00
C191   C     0.08067   0.00850   0.90832   0.00000  Uiso   1.00
C192   C     0.14554   0.01372   0.88414   0.00000  Uiso   1.00
C193   C     0.26116   0.01750   0.86499   0.00000  Uiso   1.00
C194   C     0.94645   0.95896   0.83414   0.00000  Uiso   1.00
C195   C     0.93594   0.90242   0.83425   0.00000  Uiso   1.00
C196   C     0.93462   0.85912   0.77619   0.00000  Uiso   1.00
C197   C     0.92815   0.77344   0.69458   0.00000  Uiso   1.00
C198   C     0.96613   0.03651   0.78889   0.00000  Uiso   1.00
C199   C     0.89787   0.09212   0.84117   0.00000  Uiso   1.00
C200   C     0.84823   0.15008   0.83620   0.00000  Uiso   1.00
C201   C     0.78931   0.19480   0.88940   0.00000  Uiso   1.00
C202   C     0.03398   0.02942   0.81826   0.00000  Uiso   1.00
C203   C     0.09878   0.03465   0.79402   0.00000  Uiso   1.00
C204   C     0.15445   0.02658   0.82792   0.00000  Uiso   1.00
C205   C     0.95534   0.97180   0.77803   0.00000  Uiso   1.00
C206   C     0.95405   0.92857   0.71995   0.00000  Uiso   1.00
C207   C     0.94353   0.87198   0.71998   0.00000  Uiso   1.00
H208   H     0.94284   0.00288   0.93588   0.00000  Uiso   1.00
H209   H     0.82325   0.11398   0.99392   0.00000  Uiso   1.00
H210   H     0.07377   0.99856   0.95174   0.00000  Uiso   1.00
H211   H     0.92906   0.89250   0.87768   0.00000  Uiso   1.00
H212   H     0.69461   0.24283   0.03353   0.00000  Uiso   1.00
H213   H     0.22285   0.99943   0.94457   0.00000  Uiso   1.00
H214   H     0.91769   0.77579   0.78842   0.00000  Uiso   1.00
H215   H     0.97306   0.04651   0.74520   0.00000  Uiso   1.00
H216   H     0.85513   0.16000   0.79277   0.00000  Uiso   1.00
H217   H     0.10565   0.04458   0.75059   0.00000  Uiso   1.00
H218   H     0.96093   0.93852   0.67654   0.00000  Uiso   1.00
H219   H     0.72048   0.28018   0.87027   0.00000  Uiso   1.00
H220   H     0.24873   0.03678   0.78132   0.00000  Uiso   1.00
H221   H     0.94357   0.81314   0.62516   0.00000  Uiso   1.00
O222   O     0.62944   0.33539   0.98664   0.00000  Uiso   1.00
O223   O     0.32247   0.01605   0.86993   0.00000  Uiso   1.00
O224   O     0.92211   0.72264   0.66506   0.00000  Uiso   1.00
N225   N     0.71687   0.23604   0.98857   0.00000  Uiso   1.00
N226   N     0.21074   0.00849   0.90541   0.00000  Uiso   1.00
N227   N     0.92547   0.79939   0.75941   0.00000  Uiso   1.00
N228   N     0.73080   0.25613   0.90073   0.00000  Uiso   1.00
N229   N     0.22466   0.02858   0.81756   0.00000  Uiso   1.00
N230   N     0.93939   0.81949   0.67157   0.00000  Uiso   1.00
C231   C     0.84698   0.72132   0.24224   0.00000  Uiso   1.00
C232   C     0.86869   0.76182   0.20782   0.00000  Uiso   1.00
C233   C     0.84352   0.83121   0.23143   0.00000  Uiso   1.00
C234   C     0.86996   0.85868   0.19260   0.00000  Uiso   1.00
C235   C     0.89613   0.92773   0.14833   0.00000  Uiso   1.00
C236   C     0.92094   0.67103   0.24581   0.00000  Uiso   1.00
C237   C     0.93969   0.66409   0.30138   0.00000  Uiso   1.00
C238   C     0.01011   0.61512   0.29453   0.00000  Uiso   1.00
C239   C     0.11737   0.54319   0.30924   0.00000  Uiso   1.00
C240   C     0.81415   0.67998   0.19706   0.00000  Uiso   1.00
C241   C     0.74312   0.68054   0.21164   0.00000  Uiso   1.00
C242   C     0.72363   0.63910   0.16375   0.00000  Uiso   1.00
C243   C     0.66509   0.58105   0.10277   0.00000  Uiso   1.00
C244   C     0.93868   0.64671   0.13129   0.00000  Uiso   1.00
C245   C     0.91851   0.72129   0.14755   0.00000  Uiso   1.00
C246   C     0.94499   0.74866   0.10867   0.00000  Uiso   1.00
C247   C     0.91986   0.81808   0.13222   0.00000  Uiso   1.00
C248   C     0.97075   0.63051   0.18555   0.00000  Uiso   1.00
C249   C     0.04115   0.58153   0.17862   0.00000  Uiso   1.00
C250   C     0.06001   0.57452   0.23415   0.00000  Uiso   1.00
C251   C     0.86396   0.63945   0.13679   0.00000  Uiso   1.00
C252   C     0.84458   0.59799   0.08888   0.00000  Uiso   1.00
C253   C     0.77353   0.59849   0.10337   0.00000  Uiso   1.00
H254   H     0.80820   0.75287   0.28916   0.00000  Uiso   1.00
H255   H     0.80498   0.86256   0.27808   0.00000  Uiso   1.00
H256   H     0.90113   0.69546   0.34801   0.00000  Uiso   1.00
H257   H     0.70459   0.71191   0.25828   0.00000  Uiso   1.00
H258   H     0.82340   0.96629   0.23922   0.00000  Uiso   1.00
H259   H     0.02612   0.61393   0.38667   0.00000  Uiso   1.00
H260   H     0.61168   0.64863   0.19746   0.00000  Uiso   1.00
H261   H     0.97747   0.61515   0.08436   0.00000  Uiso   1.00
H262   H     0.98353   0.71728   0.06204   0.00000  Uiso   1.00
H263   H     0.07968   0.55018   0.13197   0.00000  Uiso   1.00
H264   H     0.88314   0.56663   0.04224   0.00000  Uiso   1.00
H265   H     0.96832   0.84838   0.06387   0.00000  Uiso   1.00
H266   H     0.17104   0.49601   0.21133   0.00000  Uiso   1.00
H267   H     0.75660   0.53072   0.02212   0.00000  Uiso   1.00
O268   O     0.89682   0.97701   0.14056   0.00000  Uiso   1.00
O269   O     0.16277   0.51471   0.33401   0.00000  Uiso   1.00
O270   O     0.61903   0.56024   0.08578   0.00000  Uiso   1.00
N271   N     0.85666   0.92453   0.20101   0.00000  Uiso   1.00
N272   N     0.04620   0.59510   0.33887   0.00000  Uiso   1.00
N273   N     0.65874   0.62752   0.16198   0.00000  Uiso   1.00
N274   N     0.93464   0.86108   0.10666   0.00000  Uiso   1.00
N275   N     0.12418   0.53165   0.24452   0.00000  Uiso   1.00
N276   N     0.73672   0.56407   0.06763   0.00000  Uiso   1.00
C277   C     0.75230   0.53381   0.45518   0.00000  Uiso   1.00
C278   C     0.76691   0.47989   0.48368   0.00000  Uiso   1.00
C279   C     0.71571   0.47941   0.53059   0.00000  Uiso   1.00
C280   C     0.73991   0.42560   0.55027   0.00000  Uiso   1.00
C281   C     0.75150   0.34968   0.59851   0.00000  Uiso   1.00
C282   C     0.76794   0.49730   0.38302   0.00000  Uiso   1.00
C283   C     0.71761   0.51147   0.34529   0.00000  Uiso   1.00
C284   C     0.74268   0.47232   0.28025   0.00000  Uiso   1.00
C285   C     0.75589   0.42347   0.17220   0.00000  Uiso   1.00
C286   C     0.81389   0.55933   0.46563   0.00000  Uiso   1.00
C287   C     0.80220   0.62565   0.49734   0.00000  Uiso   1.00
C288   C     0.86596   0.63873   0.50182   0.00000  Uiso   1.00
C289   C     0.95052   0.68618   0.52204   0.00000  Uiso   1.00
C290   C     0.88631   0.43909   0.40674   0.00000  Uiso   1.00
C291   C     0.83970   0.42844   0.45737   0.00000  Uiso   1.00
C292   C     0.86398   0.37462   0.47699   0.00000  Uiso   1.00
C293   C     0.81283   0.37406   0.52392   0.00000  Uiso   1.00
C294   C     0.84073   0.44585   0.35671   0.00000  Uiso   1.00
C295   C     0.86588   0.40668   0.29170   0.00000  Uiso   1.00
C296   C     0.81560   0.42078   0.25388   0.00000  Uiso   1.00
C297   C     0.88668   0.50788   0.43932   0.00000  Uiso   1.00
C298   C     0.95047   0.52086   0.44375   0.00000  Uiso   1.00
C299   C     0.93888   0.58719   0.47546   0.00000  Uiso   1.00
H300   H     0.69564   0.57386   0.47566   0.00000  Uiso   1.00
H301   H     0.65938   0.51923   0.55093   0.00000  Uiso   1.00
H302   H     0.66129   0.55129   0.36567   0.00000  Uiso   1.00
H303   H     0.74587   0.66545   0.51769   0.00000  Uiso   1.00
H304   H     0.65129   0.43596   0.62277   0.00000  Uiso   1.00
H305   H     0.65530   0.50358   0.23213   0.00000  Uiso   1.00
H306   H     0.83366   0.74431   0.55270   0.00000  Uiso   1.00
H307   H     0.94299   0.39904   0.38625   0.00000  Uiso   1.00
H308   H     0.92031   0.33481   0.45662   0.00000  Uiso   1.00
H309   H     0.92221   0.36687   0.27136   0.00000  Uiso   1.00
H310   H     0.00679   0.48103   0.42338   0.00000  Uiso   1.00
H311   H     0.86306   0.28628   0.54622   0.00000  Uiso   1.00
H312   H     0.86708   0.35390   0.15558   0.00000  Uiso   1.00
H313   H     0.04544   0.59463   0.47615   0.00000  Uiso   1.00
O314   O     0.73779   0.32202   0.63238   0.00000  Uiso   1.00
O315   O     0.74306   0.41074   0.11988   0.00000  Uiso   1.00
O316   O     0.97706   0.72657   0.54046   0.00000  Uiso   1.00
N317   N     0.70425   0.40956   0.59510   0.00000  Uiso   1.00
N318   N     0.70800   0.47277   0.22988   0.00000  Uiso   1.00
N319   N     0.87474   0.69783   0.52957   0.00000  Uiso   1.00
N320   N     0.81820   0.32901   0.55391   0.00000  Uiso   1.00
N321   N     0.82195   0.39222   0.18869   0.00000  Uiso   1.00
N322   N     0.98870   0.61729   0.48838   0.00000  Uiso   1.00
C323   C     0.42342   0.77134   0.57997   0.00000  Uiso   1.00
C324   C     0.38606   0.82256   0.55097   0.00000  Uiso   1.00
C325   C     0.39585   0.81042   0.48605   0.00000  Uiso   1.00
C326   C     0.35666   0.86390   0.46924   0.00000  Uiso   1.00
C327   C     0.30581   0.93380   0.41714   0.00000  Uiso   1.00
C328   C     0.35928   0.76956   0.62283   0.00000  Uiso   1.00
C329   C     0.34657   0.71286   0.61832   0.00000  Uiso   1.00
C330   C     0.28484   0.72172   0.66201   0.00000  Uiso   1.00
C331   C     0.19244   0.70933   0.72151   0.00000  Uiso   1.00
C332   C     0.46529   0.80176   0.62476   0.00000  Uiso   1.00
C333   C     0.54170   0.77211   0.62189   0.00000  Uiso   1.00
C334   C     0.56923   0.80807   0.66722   0.00000  Uiso   1.00
C335   C     0.64143   0.84566   0.72971   0.00000  Uiso   1.00
C336   C     0.33641   0.88790   0.66557   0.00000  Uiso   1.00
C337   C     0.33879   0.88588   0.59747   0.00000  Uiso   1.00
C338   C     0.29958   0.93939   0.58075   0.00000  Uiso   1.00
C339   C     0.30932   0.92732   0.51581   0.00000  Uiso   1.00
C340   C     0.31202   0.83287   0.66932   0.00000  Uiso   1.00
C341   C     0.25030   0.84182   0.71303   0.00000  Uiso   1.00
C342   C     0.23749   0.78515   0.70859   0.00000  Uiso   1.00
C343   C     0.41803   0.86507   0.67126   0.00000  Uiso   1.00
C344   C     0.44543   0.90108   0.71660   0.00000  Uiso   1.00
C345   C     0.52188   0.87150   0.71380   0.00000  Uiso   1.00
H346   H     0.46021   0.72204   0.54377   0.00000  Uiso   1.00
H347   H     0.43242   0.76141   0.45008   0.00000  Uiso   1.00
H348   H     0.38315   0.66387   0.58234   0.00000  Uiso   1.00
H349   H     0.57826   0.72312   0.58591   0.00000  Uiso   1.00
H350   H     0.38075   0.83298   0.36671   0.00000  Uiso   1.00
H351   H     0.27688   0.62729   0.64560   0.00000  Uiso   1.00
H352   H     0.68830   0.75223   0.65312   0.00000  Uiso   1.00
H353   H     0.29961   0.93719   0.70177   0.00000  Uiso   1.00
H354   H     0.26301   0.98837   0.61674   0.00000  Uiso   1.00
H355   H     0.21374   0.89082   0.74901   0.00000  Uiso   1.00
H356   H     0.40885   0.95007   0.75257   0.00000  Uiso   1.00
H357   H     0.24325   0.01719   0.50198   0.00000  Uiso   1.00
H358   H     0.13937   0.81150   0.78088   0.00000  Uiso   1.00
H359   H     0.55079   0.93643   0.78840   0.00000  Uiso   1.00
O360   O     0.29080   0.95486   0.37556   0.00000  Uiso   1.00
O361   O     0.15453   0.68501   0.74147   0.00000  Uiso   1.00
O362   O     0.69431   0.84892   0.75133   0.00000  Uiso   1.00
N363   N     0.35343   0.86931   0.41021   0.00000  Uiso   1.00
N364   N     0.25630   0.67701   0.67096   0.00000  Uiso   1.00
N365   N     0.64094   0.79380   0.67800   0.00000  Uiso   1.00
N366   N     0.27944   0.96843   0.48300   0.00000  Uiso   1.00
N367   N     0.18231   0.77613   0.74375   0.00000  Uiso   1.00
N368   N     0.56695   0.89292   0.75079   0.00000  Uiso   1.00
C369   C     0.57888   0.33161   0.74194   0.00000  Uiso   1.00
C370   C     0.51682   0.38501   0.72840   0.00000  Uiso   1.00
C371   C     0.51633   0.39188   0.66975   0.00000  Uiso   1.00
C372   C     0.45439   0.44395   0.66721   0.00000  Uiso   1.00
C373   C     0.36703   0.52021   0.63794   0.00000  Uiso   1.00
C374   C     0.54032   0.29519   0.76909   0.00000  Uiso   1.00
C375   C     0.55960   0.22655   0.74465   0.00000  Uiso   1.00
C376   C     0.51744   0.20301   0.77637   0.00000  Uiso   1.00
C377   C     0.46660   0.13983   0.81030   0.00000  Uiso   1.00
C378   C     0.60471   0.36964   0.79671   0.00000  Uiso   1.00
C379   C     0.67813   0.36357   0.79551   0.00000  Uiso   1.00
C380   C     0.69019   0.40271   0.85049   0.00000  Uiso   1.00
C381   C     0.73932   0.45511   0.92731   0.00000  Uiso   1.00
C382   C     0.46975   0.41188   0.84174   0.00000  Uiso   1.00
C383   C     0.45755   0.42861   0.78261   0.00000  Uiso   1.00
C384   C     0.39559   0.48069   0.78017   0.00000  Uiso   1.00
C385   C     0.39501   0.48763   0.72152   0.00000  Uiso   1.00
C386   C     0.48105   0.33879   0.82330   0.00000  Uiso   1.00
C387   C     0.43886   0.31536   0.85507   0.00000  Uiso   1.00
C388   C     0.45806   0.24669   0.83068   0.00000  Uiso   1.00
C389   C     0.54544   0.41324   0.85092   0.00000  Uiso   1.00
C390   C     0.55739   0.45239   0.90593   0.00000  Uiso   1.00
C391   C     0.63081   0.44639   0.90480   0.00000  Uiso   1.00
H392   H     0.62503   0.29767   0.69974   0.00000  Uiso   1.00
H393   H     0.56221   0.35812   0.62780   0.00000  Uiso   1.00
H394   H     0.60547   0.19282   0.70270   0.00000  Uiso   1.00
H395   H     0.72399   0.32983   0.75355   0.00000  Uiso   1.00
H396   H     0.46642   0.44436   0.57195   0.00000  Uiso   1.00
H397   H     0.55765   0.09580   0.72989   0.00000  Uiso   1.00
H398   H     0.80756   0.38472   0.83712   0.00000  Uiso   1.00
H399   H     0.42360   0.44583   0.88395   0.00000  Uiso   1.00
H400   H     0.34973   0.51442   0.82212   0.00000  Uiso   1.00
H401   H     0.39299   0.34911   0.89702   0.00000  Uiso   1.00
H402   H     0.51150   0.48612   0.94787   0.00000  Uiso   1.00
H403   H     0.29395   0.57121   0.72967   0.00000  Uiso   1.00
H404   H     0.38519   0.22266   0.88761   0.00000  Uiso   1.00
H405   H     0.63510   0.51157   0.99483   0.00000  Uiso   1.00
O406   O     0.33521   0.55022   0.60681   0.00000  Uiso   1.00
O407   O     0.45492   0.09293   0.81403   0.00000  Uiso   1.00
O408   O     0.78279   0.47197   0.95470   0.00000  Uiso   1.00
N409   N     0.43597   0.46481   0.61756   0.00000  Uiso   1.00
N410   N     0.52126   0.13893   0.76522   0.00000  Uiso   1.00
N411   N     0.75491   0.40903   0.86547   0.00000  Uiso   1.00
N412   N     0.34317   0.53307   0.70243   0.00000  Uiso   1.00
N413   N     0.42846   0.20719   0.85008   0.00000  Uiso   1.00
N414   N     0.66211   0.47729   0.95033   0.00000  Uiso   1.00
C415   C     0.15575   0.11420   0.14476   0.00000  Uiso   1.00
C416   C     0.20055   0.12698   0.09472   0.00000  Uiso   1.00
C417   C     0.17739   0.18492   0.08132   0.00000  Uiso   1.00
C418   C     0.22649   0.18683   0.03381   0.00000  Uiso   1.00
C419   C     0.28542   0.21489   0.96110   0.00000  Uiso   1.00
C420   C     0.14787   0.04955   0.10900   0.00000  Uiso   1.00
C421   C     0.08042   0.04239   0.10760   0.00000  Uiso   1.00
C422   C     0.08520   0.97911   0.07212   0.00000  Uiso   1.00
C423   C     0.06235   0.88694   0.02160   0.00000  Uiso   1.00
C424   C     0.20682   0.09778   0.18907   0.00000  Uiso   1.00
C425   C     0.18893   0.13116   0.25501   0.00000  Uiso   1.00
C426   C     0.24333   0.10847   0.28695   0.00000  Uiso   1.00
C427   C     0.31202   0.09119   0.36076   0.00000  Uiso   1.00
C428   C     0.28416   0.01454   0.08423   0.00000  Uiso   1.00
C429   C     0.27029   0.07284   0.06184   0.00000  Uiso   1.00
C430   C     0.31945   0.07466   0.01434   0.00000  Uiso   1.00
C431   C     0.29637   0.13260   0.00087   0.00000  Uiso   1.00
C432   C     0.21762   0.99542   0.07612   0.00000  Uiso   1.00
C433   C     0.22249   0.93213   0.04063   0.00000  Uiso   1.00
C434   C     0.15507   0.92488   0.03918   0.00000  Uiso   1.00
C435   C     0.27657   0.04365   0.15619   0.00000  Uiso   1.00
C436   C     0.33100   0.02090   0.18803   0.00000  Uiso   1.00
C437   C     0.31320   0.05424   0.25401   0.00000  Uiso   1.00
H438   H     0.10145   0.15634   0.17036   0.00000  Uiso   1.00
H439   H     0.12340   0.22680   0.10677   0.00000  Uiso   1.00
H440   H     0.02646   0.08429   0.13306   0.00000  Uiso   1.00
H441   H     0.13496   0.17304   0.28044   0.00000  Uiso   1.00
H442   H     0.17849   0.28104   0.02176   0.00000  Uiso   1.00
H443   H     0.97408   0.98053   0.07720   0.00000  Uiso   1.00
H444   H     0.20286   0.16770   0.38799   0.00000  Uiso   1.00
H445   H     0.33846   0.97239   0.05863   0.00000  Uiso   1.00
H446   H     0.37342   0.03276   0.98891   0.00000  Uiso   1.00
H447   H     0.27647   0.89025   0.01519   0.00000  Uiso   1.00
H448   H     0.38497   0.97901   0.16257   0.00000  Uiso   1.00
H449   H     0.38141   0.12355   0.92609   0.00000  Uiso   1.00
H450   H     0.17700   0.82304   0.98154   0.00000  Uiso   1.00
H451   H     0.40578   0.01021   0.29232   0.00000  Uiso   1.00
O452   O     0.29866   0.24531   0.93006   0.00000  Uiso   1.00
O453   O     0.03048   0.85106   0.00281   0.00000  Uiso   1.00
O454   O     0.33064   0.09662   0.41055   0.00000  Uiso   1.00
N455   N     0.22145   0.23569   0.00882   0.00000  Uiso   1.00
N456   N     0.03034   0.95474   0.06065   0.00000  Uiso   1.00
N457   N     0.24423   0.12971   0.35121   0.00000  Uiso   1.00
N458   N     0.33064   0.15095   0.95734   0.00000  Uiso   1.00
N459   N     0.13953   0.87000   0.00917   0.00000  Uiso   1.00
N460   N     0.35342   0.04497   0.29973   0.00000  Uiso   1.00
C461   C     0.97357   0.83389   0.41736   0.00000  Uiso   1.00
C462   C     0.03443   0.79798   0.44622   0.00000  Uiso   1.00
C463   C     0.09118   0.73375   0.41519   0.00000  Uiso   1.00
C464   C     0.14136   0.70988   0.44986   0.00000  Uiso   1.00
C465   C     0.23681   0.64816   0.48504   0.00000  Uiso   1.00
C466   C     0.89826   0.85321   0.46184   0.00000  Uiso   1.00
C467   C     0.84051   0.83543   0.44393   0.00000  Uiso   1.00
C468   C     0.77605   0.85808   0.49174   0.00000  Uiso   1.00
C469   C     0.66006   0.88216   0.55116   0.00000  Uiso   1.00
C470   C     0.97995   0.89972   0.42404   0.00000  Uiso   1.00
C471   C     0.99086   0.92105   0.37435   0.00000  Uiso   1.00
C472   C     0.99516   0.98286   0.39034   0.00000  Uiso   1.00
C473   C     0.00601   0.07914   0.39107   0.00000  Uiso   1.00
C474   C     0.96178   0.90573   0.53413   0.00000  Uiso   1.00
C475   C     0.02802   0.83700   0.50965   0.00000  Uiso   1.00
C476   C     0.07814   0.81323   0.54437   0.00000  Uiso   1.00
C477   C     0.13495   0.74897   0.51339   0.00000  Uiso   1.00
C478   C     0.89185   0.89223   0.52526   0.00000  Uiso   1.00
C479   C     0.82746   0.91491   0.57311   0.00000  Uiso   1.00
C480   C     0.76963   0.89717   0.55528   0.00000  Uiso   1.00
C481   C     0.97354   0.93874   0.48746   0.00000  Uiso   1.00
C482   C     0.97782   0.00053   0.50354   0.00000  Uiso   1.00
C483   C     0.98875   0.02195   0.45388   0.00000  Uiso   1.00
H484   H     0.97855   0.80351   0.36798   0.00000  Uiso   1.00
H485   H     0.09611   0.70356   0.36611   0.00000  Uiso   1.00
H486   H     0.84548   0.80524   0.39484   0.00000  Uiso   1.00
H487   H     0.99581   0.89084   0.32527   0.00000  Uiso   1.00
H488   H     0.22361   0.60994   0.39200   0.00000  Uiso   1.00
H489   H     0.69512   0.82436   0.45258   0.00000  Uiso   1.00
H490   H     0.01213   0.00486   0.30589   0.00000  Uiso   1.00
H491   H     0.95680   0.93611   0.58350   0.00000  Uiso   1.00
H492   H     0.07317   0.84343   0.59345   0.00000  Uiso   1.00
H493   H     0.82253   0.94511   0.62219   0.00000  Uiso   1.00
H494   H     0.97286   0.03071   0.55262   0.00000  Uiso   1.00
H495   H     0.20498   0.72347   0.57652   0.00000  Uiso   1.00
H496   H     0.67649   0.93789   0.63711   0.00000  Uiso   1.00
H497   H     0.99350   0.11839   0.49041   0.00000  Uiso   1.00
O498   O     0.29122   0.60334   0.48693   0.00000  Uiso   1.00
O499   O     0.59786   0.88466   0.56640   0.00000  Uiso   1.00
O500   O     0.01378   0.12146   0.37394   0.00000  Uiso   1.00
N501   N     0.20326   0.64939   0.43406   0.00000  Uiso   1.00
N502   N     0.70916   0.84984   0.49070   0.00000  Uiso   1.00
N503   N     0.00552   0.01860   0.35356   0.00000  Uiso   1.00
N504   N     0.19324   0.71047   0.53335   0.00000  Uiso   1.00
N505   N     0.69914   0.91093   0.58999   0.00000  Uiso   1.00
N506   N     0.99550   0.07969   0.45285   0.00000  Uiso   1.00
C507   C     0.08277   0.24001   0.83568   0.00000  Uiso   1.00
C508   C     0.02324   0.25096   0.89194   0.00000  Uiso   1.00
C509   C     0.02645   0.20535   0.92084   0.00000  Uiso   1.00
C510   C     0.96634   0.22483   0.97165   0.00000  Uiso   1.00
C511   C     0.88317   0.23225   0.05578   0.00000  Uiso   1.00
C512   C     0.04165   0.25014   0.78367   0.00000  Uiso   1.00
C513   C     0.06035   0.20385   0.72153   0.00000  Uiso   1.00
C514   C     0.01574   0.22264   0.68119   0.00000  Uiso   1.00
C515   C     0.96120   0.22881   0.59722   0.00000  Uiso   1.00
C516   C     0.10636   0.29823   0.85804   0.00000  Uiso   1.00
C517   C     0.17946   0.29238   0.85842   0.00000  Uiso   1.00
C518   C     0.18933   0.35167   0.88068   0.00000  Uiso   1.00
C519   C     0.23525   0.43251   0.91218   0.00000  Uiso   1.00
C520   C     0.97031   0.35571   0.87452   0.00000  Uiso   1.00
C521   C     0.96216   0.31380   0.91303   0.00000  Uiso   1.00
C522   C     0.90202   0.33335   0.96382   0.00000  Uiso   1.00
C523   C     0.90514   0.28779   0.99279   0.00000  Uiso   1.00
C524   C     0.98057   0.31298   0.80476   0.00000  Uiso   1.00
C525   C     0.93593   0.33185   0.76450   0.00000  Uiso   1.00
C526   C     0.95455   0.28560   0.70233   0.00000  Uiso   1.00
C527   C     0.04527   0.36107   0.87914   0.00000  Uiso   1.00
C528   C     0.05504   0.42039   0.90140   0.00000  Uiso   1.00
C529   C     0.12814   0.41463   0.90182   0.00000  Uiso   1.00
H530   H     0.13033   0.19109   0.81925   0.00000  Uiso   1.00
H531   H     0.07373   0.15672   0.90450   0.00000  Uiso   1.00
H532   H     0.10763   0.15522   0.70522   0.00000  Uiso   1.00
H533   H     0.22672   0.24374   0.84209   0.00000  Uiso   1.00
H534   H     0.98402   0.14632   0.00830   0.00000  Uiso   1.00
H535   H     0.05552   0.14317   0.58810   0.00000  Uiso   1.00
H536   H     0.30665   0.32983   0.87672   0.00000  Uiso   1.00
H537   H     0.92276   0.40464   0.89094   0.00000  Uiso   1.00
H538   H     0.85476   0.38199   0.98013   0.00000  Uiso   1.00
H539   H     0.88866   0.38048   0.78085   0.00000  Uiso   1.00
H540   H     0.00775   0.46901   0.91772   0.00000  Uiso   1.00
H541   H     0.80630   0.32915   0.06968   0.00000  Uiso   1.00
H542   H     0.87780   0.32600   0.64948   0.00000  Uiso   1.00
H543   H     0.12893   0.51266   0.93810   0.00000  Uiso   1.00
O544   O     0.85416   0.21898   0.09635   0.00000  Uiso   1.00
O545   O     0.94798   0.21484   0.54507   0.00000  Uiso   1.00
O546   O     0.27745   0.45974   0.92373   0.00000  Uiso   1.00
N547   N     0.95153   0.19246   0.01052   0.00000  Uiso   1.00
N548   N     0.01837   0.18951   0.61766   0.00000  Uiso   1.00
N549   N     0.25316   0.36403   0.88748   0.00000  Uiso   1.00
N550   N     0.85590   0.29085   0.04355   0.00000  Uiso   1.00
N551   N     0.92274   0.28789   0.65069   0.00000  Uiso   1.00
N552   N     0.15753   0.46241   0.92051   0.00000  Uiso   1.00
