data_job_06100
_audit_creation_date              2018-12-19
_audit_creation_method            'Materials Studio'
_symmetry_space_group_name_H-M    'P1'
_symmetry_Int_Tables_number       1
_symmetry_cell_setting            triclinic
loop_
_symmetry_equiv_pos_as_xyz
  x,y,z
_cell_length_a                    15.3186
_cell_length_b                    15.3262
_cell_length_c                    15.3348
_cell_angle_alpha                 85.7084
_cell_angle_beta                  85.7005
_cell_angle_gamma                 85.6948
loop_
_atom_site_label
_atom_site_type_symbol
_atom_site_fract_x
_atom_site_fract_y
_atom_site_fract_z
_atom_site_U_iso_or_equiv
_atom_site_adp_type
_atom_site_occupancy
C1     C     0.71013   0.88552   0.44248   0.00000  Uiso   1.00
C2     C     0.80493   0.87127   0.46739   0.00000  Uiso   1.00
C3     C     0.83725   0.80594   0.52649   0.00000  Uiso   1.00
C4     C     0.92593   0.80395   0.54032   0.00000  Uiso   1.00
C5     C     0.06485   0.77254   0.58569   0.00000  Uiso   1.00
C6     C     0.68044   0.97976   0.46179   0.00000  Uiso   1.00
C7     C     0.60809   0.00564   0.51616   0.00000  Uiso   1.00
C8     C     0.59198   0.09498   0.52527   0.00000  Uiso   1.00
C9     C     0.53760   0.23199   0.56188   0.00000  Uiso   1.00
C10    C     0.71358   0.88274   0.34309   0.00000  Uiso   1.00
C11    C     0.66906   0.82706   0.29765   0.00000  Uiso   1.00
C12    C     0.68083   0.83473   0.20681   0.00000  Uiso   1.00
C13    C     0.67788   0.82111   0.05913   0.00000  Uiso   1.00
C14    C     0.81017   0.99815   0.36195   0.00000  Uiso   1.00
C15    C     0.85926   0.93245   0.42365   0.00000  Uiso   1.00
C16    C     0.94793   0.93056   0.43739   0.00000  Uiso   1.00
C17    C     0.98037   0.86524   0.49650   0.00000  Uiso   1.00
C18    C     0.73478   0.04093   0.41805   0.00000  Uiso   1.00
C19    C     0.71877   0.13025   0.42706   0.00000  Uiso   1.00
C20    C     0.64641   0.15627   0.48144   0.00000  Uiso   1.00
C21    C     0.76791   0.94391   0.29934   0.00000  Uiso   1.00
C22    C     0.77974   0.95167   0.20855   0.00000  Uiso   1.00
C23    C     0.73526   0.89602   0.16299   0.00000  Uiso   1.00
H24    H     0.66783   0.83790   0.47654   0.00000  Uiso   1.00
H25    H     0.79517   0.75862   0.56034   0.00000  Uiso   1.00
H26    H     0.56605   0.95828   0.55000   0.00000  Uiso   1.00
H27    H     0.62702   0.77973   0.33153   0.00000  Uiso   1.00
H28    H     0.96032   0.69771   0.63398   0.00000  Uiso   1.00
H29    H     0.47718   0.11872   0.61216   0.00000  Uiso   1.00
H30    H     0.60573   0.74221   0.15146   0.00000  Uiso   1.00
H31    H     0.85247   0.04579   0.32789   0.00000  Uiso   1.00
H32    H     0.98996   0.97791   0.40353   0.00000  Uiso   1.00
H33    H     0.76083   0.17758   0.39320   0.00000  Uiso   1.00
H34    H     0.82180   0.99902   0.17472   0.00000  Uiso   1.00
H35    H     0.11841   0.87570   0.50671   0.00000  Uiso   1.00
H36    H     0.63526   0.29671   0.48489   0.00000  Uiso   1.00
H37    H     0.76382   0.92020   0.02419   0.00000  Uiso   1.00
O38    O     0.12647   0.73832   0.62280   0.00000  Uiso   1.00
O39    O     0.49259   0.29067   0.59417   0.00000  Uiso   1.00
O40    O     0.66126   0.79669   0.98975   0.00000  Uiso   1.00
N41    N     0.97866   0.74891   0.59363   0.00000  Uiso   1.00
N42    N     0.52696   0.14253   0.57324   0.00000  Uiso   1.00
N43    N     0.64713   0.79054   0.14253   0.00000  Uiso   1.00
N44    N     0.06373   0.84468   0.52515   0.00000  Uiso   1.00
N45    N     0.61203   0.23830   0.50476   0.00000  Uiso   1.00
N46    N     0.73220   0.88631   0.07405   0.00000  Uiso   1.00
C47    C     0.44235   0.71010   0.88557   0.00000  Uiso   1.00
C48    C     0.46729   0.80485   0.87133   0.00000  Uiso   1.00
C49    C     0.52645   0.83714   0.80604   0.00000  Uiso   1.00
C50    C     0.54030   0.92578   0.80406   0.00000  Uiso   1.00
C51    C     0.58571   0.06462   0.77268   0.00000  Uiso   1.00
C52    C     0.46168   0.68044   0.97974   0.00000  Uiso   1.00
C53    C     0.51611   0.60812   0.00560   0.00000  Uiso   1.00
C54    C     0.52522   0.59203   0.09488   0.00000  Uiso   1.00
C55    C     0.56187   0.53769   0.23181   0.00000  Uiso   1.00
C56    C     0.34285   0.71355   0.88280   0.00000  Uiso   1.00
C57    C     0.29737   0.66906   0.82716   0.00000  Uiso   1.00
C58    C     0.20643   0.68083   0.83483   0.00000  Uiso   1.00
C59    C     0.05859   0.67790   0.82124   0.00000  Uiso   1.00
C60    C     0.36173   0.81011   0.99816   0.00000  Uiso   1.00
C61    C     0.42350   0.85917   0.93249   0.00000  Uiso   1.00
C62    C     0.43725   0.94778   0.93061   0.00000  Uiso   1.00
C63    C     0.49643   0.98020   0.86532   0.00000  Uiso   1.00
C64    C     0.41789   0.73476   0.04090   0.00000  Uiso   1.00
C65    C     0.42691   0.71876   0.13016   0.00000  Uiso   1.00
C66    C     0.48135   0.64644   0.15615   0.00000  Uiso   1.00
C67    C     0.29906   0.76787   0.94395   0.00000  Uiso   1.00
C68    C     0.20817   0.77971   0.95172   0.00000  Uiso   1.00
C69    C     0.16256   0.73524   0.89610   0.00000  Uiso   1.00
H70    H     0.47645   0.66781   0.83797   0.00000  Uiso   1.00
H71    H     0.56034   0.79508   0.75873   0.00000  Uiso   1.00
H72    H     0.54999   0.56609   0.95826   0.00000  Uiso   1.00
H73    H     0.33128   0.62703   0.77984   0.00000  Uiso   1.00
H74    H     0.63406   0.96012   0.69788   0.00000  Uiso   1.00
H75    H     0.61221   0.47728   0.11859   0.00000  Uiso   1.00
H76    H     0.15102   0.60576   0.74236   0.00000  Uiso   1.00
H77    H     0.32763   0.85240   0.04577   0.00000  Uiso   1.00
H78    H     0.40335   0.98980   0.97794   0.00000  Uiso   1.00
H79    H     0.39301   0.76081   0.17747   0.00000  Uiso   1.00
H80    H     0.17430   0.82175   0.99905   0.00000  Uiso   1.00
H81    H     0.50665   0.11817   0.87580   0.00000  Uiso   1.00
H82    H     0.48480   0.63532   0.29651   0.00000  Uiso   1.00
H83    H     0.02361   0.76381   0.92028   0.00000  Uiso   1.00
O84    O     0.62287   0.12619   0.73848   0.00000  Uiso   1.00
O85    O     0.59419   0.49271   0.29044   0.00000  Uiso   1.00
O86    O     0.98913   0.66129   0.79684   0.00000  Uiso   1.00
N87    N     0.59366   0.97847   0.74905   0.00000  Uiso   1.00
N88    N     0.57325   0.52704   0.14239   0.00000  Uiso   1.00
N89    N     0.14208   0.64715   0.79067   0.00000  Uiso   1.00
N90    N     0.52511   0.06351   0.84479   0.00000  Uiso   1.00
N91    N     0.50469   0.61208   0.23813   0.00000  Uiso   1.00
N92    N     0.07352   0.73219   0.88640   0.00000  Uiso   1.00
C93    C     0.88549   0.44242   0.71007   0.00000  Uiso   1.00
C94    C     0.87124   0.46736   0.80477   0.00000  Uiso   1.00
C95    C     0.80587   0.52650   0.83705   0.00000  Uiso   1.00
C96    C     0.80389   0.54035   0.92564   0.00000  Uiso   1.00
C97    C     0.77247   0.58576   0.06441   0.00000  Uiso   1.00
C98    C     0.97977   0.46172   0.68042   0.00000  Uiso   1.00
C99    C     0.00565   0.51612   0.60814   0.00000  Uiso   1.00
C100   C     0.09503   0.52521   0.59205   0.00000  Uiso   1.00
C101   C     0.23211   0.56182   0.53773   0.00000  Uiso   1.00
C102   C     0.88272   0.34297   0.71351   0.00000  Uiso   1.00
C103   C     0.82702   0.29751   0.66904   0.00000  Uiso   1.00
C104   C     0.83470   0.20662   0.68079   0.00000  Uiso   1.00
C105   C     0.82110   0.05885   0.67785   0.00000  Uiso   1.00
C106   C     0.99820   0.36184   0.81000   0.00000  Uiso   1.00
C107   C     0.93246   0.42359   0.85904   0.00000  Uiso   1.00
C108   C     0.93057   0.43735   0.94761   0.00000  Uiso   1.00
C109   C     0.86522   0.49650   0.98002   0.00000  Uiso   1.00
C110   C     0.04099   0.41796   0.73469   0.00000  Uiso   1.00
C111   C     0.13035   0.42696   0.71870   0.00000  Uiso   1.00
C112   C     0.15636   0.48136   0.64642   0.00000  Uiso   1.00
C113   C     0.94393   0.29920   0.76779   0.00000  Uiso   1.00
C114   C     0.95171   0.20836   0.77960   0.00000  Uiso   1.00
C115   C     0.89603   0.16277   0.73516   0.00000  Uiso   1.00
H116   H     0.83784   0.47650   0.66781   0.00000  Uiso   1.00
H117   H     0.75851   0.56037   0.79502   0.00000  Uiso   1.00
H118   H     0.95826   0.54997   0.56615   0.00000  Uiso   1.00
H119   H     0.77965   0.33140   0.62704   0.00000  Uiso   1.00
H120   H     0.69759   0.63407   0.95999   0.00000  Uiso   1.00
H121   H     0.11877   0.61214   0.47737   0.00000  Uiso   1.00
H122   H     0.74214   0.15124   0.60578   0.00000  Uiso   1.00
H123   H     0.04587   0.32776   0.85226   0.00000  Uiso   1.00
H124   H     0.97795   0.40347   0.98959   0.00000  Uiso   1.00
H125   H     0.17770   0.39308   0.76071   0.00000  Uiso   1.00
H126   H     0.99909   0.17451   0.82161   0.00000  Uiso   1.00
H127   H     0.87570   0.50673   0.11791   0.00000  Uiso   1.00
H128   H     0.29688   0.48479   0.63529   0.00000  Uiso   1.00
H129   H     0.92024   0.02389   0.76370   0.00000  Uiso   1.00
O130   O     0.73823   0.62291   0.12596   0.00000  Uiso   1.00
O131   O     0.29080   0.59412   0.49277   0.00000  Uiso   1.00
O132   O     0.79667   0.98943   0.66124   0.00000  Uiso   1.00
N133   N     0.74882   0.59370   0.97831   0.00000  Uiso   1.00
N134   N     0.14259   0.57320   0.52710   0.00000  Uiso   1.00
N135   N     0.79049   0.14230   0.64713   0.00000  Uiso   1.00
N136   N     0.84465   0.52518   0.06329   0.00000  Uiso   1.00
N137   N     0.23843   0.50468   0.61208   0.00000  Uiso   1.00
N138   N     0.88633   0.07378   0.73211   0.00000  Uiso   1.00
C139   C     0.28987   0.11448   0.55752   0.00000  Uiso   1.00
C140   C     0.19507   0.12873   0.53261   0.00000  Uiso   1.00
C141   C     0.16275   0.19406   0.47351   0.00000  Uiso   1.00
C142   C     0.07407   0.19605   0.45968   0.00000  Uiso   1.00
C143   C     0.93515   0.22746   0.41431   0.00000  Uiso   1.00
C144   C     0.31956   0.02024   0.53821   0.00000  Uiso   1.00
C145   C     0.39191   0.99436   0.48384   0.00000  Uiso   1.00
C146   C     0.40802   0.90502   0.47473   0.00000  Uiso   1.00
C147   C     0.46240   0.76801   0.43812   0.00000  Uiso   1.00
C148   C     0.28642   0.11726   0.65691   0.00000  Uiso   1.00
C149   C     0.33094   0.17294   0.70235   0.00000  Uiso   1.00
C150   C     0.31917   0.16527   0.79319   0.00000  Uiso   1.00
C151   C     0.32212   0.17889   0.94087   0.00000  Uiso   1.00
C152   C     0.18983   0.00185   0.63805   0.00000  Uiso   1.00
C153   C     0.14074   0.06755   0.57635   0.00000  Uiso   1.00
C154   C     0.05207   0.06944   0.56261   0.00000  Uiso   1.00
C155   C     0.01963   0.13476   0.50350   0.00000  Uiso   1.00
C156   C     0.26522   0.95907   0.58195   0.00000  Uiso   1.00
C157   C     0.28123   0.86975   0.57294   0.00000  Uiso   1.00
C158   C     0.35359   0.84374   0.51856   0.00000  Uiso   1.00
C159   C     0.23209   0.05609   0.70066   0.00000  Uiso   1.00
C160   C     0.22026   0.04833   0.79145   0.00000  Uiso   1.00
C161   C     0.26474   0.10398   0.83701   0.00000  Uiso   1.00
H162   H     0.33217   0.16210   0.52346   0.00000  Uiso   1.00
H163   H     0.20483   0.24138   0.43966   0.00000  Uiso   1.00
H164   H     0.43395   0.04172   0.45000   0.00000  Uiso   1.00
H165   H     0.37298   0.22027   0.66847   0.00000  Uiso   1.00
H166   H     0.03968   0.30229   0.36602   0.00000  Uiso   1.00
H167   H     0.52282   0.88128   0.38784   0.00000  Uiso   1.00
H168   H     0.39427   0.25779   0.84854   0.00000  Uiso   1.00
H169   H     0.14753   0.95421   0.67211   0.00000  Uiso   1.00
H170   H     0.01004   0.02209   0.59647   0.00000  Uiso   1.00
H171   H     0.23917   0.82242   0.60680   0.00000  Uiso   1.00
H172   H     0.17820   0.00098   0.82528   0.00000  Uiso   1.00
H173   H     0.88159   0.12430   0.49329   0.00000  Uiso   1.00
H174   H     0.36474   0.70329   0.51511   0.00000  Uiso   1.00
H175   H     0.23617   0.07980   0.97581   0.00000  Uiso   1.00
O176   O     0.87353   0.26168   0.37720   0.00000  Uiso   1.00
O177   O     0.50741   0.70933   0.40583   0.00000  Uiso   1.00
O178   O     0.33874   0.20331   0.01025   0.00000  Uiso   1.00
N179   N     0.02134   0.25109   0.40637   0.00000  Uiso   1.00
N180   N     0.47304   0.85747   0.42676   0.00000  Uiso   1.00
N181   N     0.35287   0.20946   0.85747   0.00000  Uiso   1.00
N182   N     0.93627   0.15532   0.47485   0.00000  Uiso   1.00
N183   N     0.38797   0.76170   0.49524   0.00000  Uiso   1.00
N184   N     0.26780   0.11369   0.92595   0.00000  Uiso   1.00
C185   C     0.55765   0.28990   0.11443   0.00000  Uiso   1.00
C186   C     0.53271   0.19515   0.12867   0.00000  Uiso   1.00
C187   C     0.47354   0.16286   0.19396   0.00000  Uiso   1.00
C188   C     0.45970   0.07422   0.19594   0.00000  Uiso   1.00
C189   C     0.41429   0.93538   0.22732   0.00000  Uiso   1.00
C190   C     0.53832   0.31956   0.02026   0.00000  Uiso   1.00
C191   C     0.48389   0.39188   0.99440   0.00000  Uiso   1.00
C192   C     0.47478   0.40797   0.90512   0.00000  Uiso   1.00
C193   C     0.43813   0.46231   0.76819   0.00000  Uiso   1.00
C194   C     0.65715   0.28645   0.11720   0.00000  Uiso   1.00
C195   C     0.70263   0.33094   0.17284   0.00000  Uiso   1.00
C196   C     0.79357   0.31917   0.16517   0.00000  Uiso   1.00
C197   C     0.94141   0.32210   0.17876   0.00000  Uiso   1.00
C198   C     0.63827   0.18989   0.00184   0.00000  Uiso   1.00
C199   C     0.57650   0.14083   0.06751   0.00000  Uiso   1.00
C200   C     0.56275   0.05222   0.06939   0.00000  Uiso   1.00
C201   C     0.50357   0.01980   0.13468   0.00000  Uiso   1.00
C202   C     0.58211   0.26524   0.95910   0.00000  Uiso   1.00
C203   C     0.57309   0.28123   0.86984   0.00000  Uiso   1.00
C204   C     0.51865   0.35356   0.84385   0.00000  Uiso   1.00
C205   C     0.70094   0.23213   0.05605   0.00000  Uiso   1.00
C206   C     0.79183   0.22029   0.04828   0.00000  Uiso   1.00
C207   C     0.83744   0.26476   0.10390   0.00000  Uiso   1.00
H208   H     0.52355   0.33219   0.16203   0.00000  Uiso   1.00
H209   H     0.43966   0.20492   0.24127   0.00000  Uiso   1.00
H210   H     0.45001   0.43391   0.04174   0.00000  Uiso   1.00
H211   H     0.66872   0.37297   0.22016   0.00000  Uiso   1.00
H212   H     0.36594   0.03988   0.30212   0.00000  Uiso   1.00
H213   H     0.38779   0.52272   0.88141   0.00000  Uiso   1.00
H214   H     0.84898   0.39424   0.25764   0.00000  Uiso   1.00
H215   H     0.67237   0.14760   0.95422   0.00000  Uiso   1.00
H216   H     0.59665   0.01020   0.02206   0.00000  Uiso   1.00
H217   H     0.60699   0.23919   0.82253   0.00000  Uiso   1.00
H218   H     0.82570   0.17825   0.00095   0.00000  Uiso   1.00
H219   H     0.49335   0.88183   0.12420   0.00000  Uiso   1.00
H220   H     0.51520   0.36468   0.70349   0.00000  Uiso   1.00
H221   H     0.97639   0.23619   0.07972   0.00000  Uiso   1.00
O222   O     0.37713   0.87381   0.26152   0.00000  Uiso   1.00
O223   O     0.40581   0.50729   0.70956   0.00000  Uiso   1.00
O224   O     0.01087   0.33871   0.20316   0.00000  Uiso   1.00
N225   N     0.40634   0.02153   0.25095   0.00000  Uiso   1.00
N226   N     0.42675   0.47296   0.85761   0.00000  Uiso   1.00
N227   N     0.85792   0.35285   0.20933   0.00000  Uiso   1.00
N228   N     0.47489   0.93649   0.15521   0.00000  Uiso   1.00
N229   N     0.49531   0.38792   0.76187   0.00000  Uiso   1.00
N230   N     0.92648   0.26781   0.11360   0.00000  Uiso   1.00
C231   C     0.11451   0.55758   0.28993   0.00000  Uiso   1.00
C232   C     0.12876   0.53264   0.19523   0.00000  Uiso   1.00
C233   C     0.19413   0.47350   0.16295   0.00000  Uiso   1.00
C234   C     0.19611   0.45965   0.07436   0.00000  Uiso   1.00
C235   C     0.22753   0.41424   0.93558   0.00000  Uiso   1.00
C236   C     0.02023   0.53828   0.31958   0.00000  Uiso   1.00
C237   C     0.99435   0.48388   0.39186   0.00000  Uiso   1.00
C238   C     0.90497   0.47479   0.40795   0.00000  Uiso   1.00
C239   C     0.76789   0.43818   0.46227   0.00000  Uiso   1.00
C240   C     0.11728   0.65703   0.28649   0.00000  Uiso   1.00
C241   C     0.17298   0.70249   0.33096   0.00000  Uiso   1.00
C242   C     0.16530   0.79338   0.31921   0.00000  Uiso   1.00
C243   C     0.17890   0.94115   0.32215   0.00000  Uiso   1.00
C244   C     0.00180   0.63816   0.19000   0.00000  Uiso   1.00
C245   C     0.06754   0.57641   0.14096   0.00000  Uiso   1.00
C246   C     0.06943   0.56265   0.05239   0.00000  Uiso   1.00
C247   C     0.13478   0.50350   0.01998   0.00000  Uiso   1.00
C248   C     0.95901   0.58204   0.26531   0.00000  Uiso   1.00
C249   C     0.86965   0.57304   0.28130   0.00000  Uiso   1.00
C250   C     0.84364   0.51864   0.35358   0.00000  Uiso   1.00
C251   C     0.05606   0.70080   0.23221   0.00000  Uiso   1.00
C252   C     0.04829   0.79164   0.22040   0.00000  Uiso   1.00
C253   C     0.10397   0.83723   0.26484   0.00000  Uiso   1.00
H254   H     0.16216   0.52350   0.33219   0.00000  Uiso   1.00
H255   H     0.24149   0.43963   0.20498   0.00000  Uiso   1.00
H256   H     0.04174   0.45003   0.43385   0.00000  Uiso   1.00
H257   H     0.22035   0.66860   0.37296   0.00000  Uiso   1.00
H258   H     0.30241   0.36593   0.04001   0.00000  Uiso   1.00
H259   H     0.88123   0.38786   0.52263   0.00000  Uiso   1.00
H260   H     0.25786   0.84876   0.39422   0.00000  Uiso   1.00
H261   H     0.95413   0.67224   0.14774   0.00000  Uiso   1.00
H262   H     0.02205   0.59653   0.01041   0.00000  Uiso   1.00
H263   H     0.82230   0.60692   0.23929   0.00000  Uiso   1.00
H264   H     0.00091   0.82549   0.17839   0.00000  Uiso   1.00
H265   H     0.12430   0.49327   0.88209   0.00000  Uiso   1.00
H266   H     0.70312   0.51521   0.36471   0.00000  Uiso   1.00
H267   H     0.07976   0.97611   0.23630   0.00000  Uiso   1.00
O268   O     0.26176   0.37709   0.87404   0.00000  Uiso   1.00
O269   O     0.70920   0.40588   0.50723   0.00000  Uiso   1.00
O270   O     0.20333   0.01057   0.33876   0.00000  Uiso   1.00
N271   N     0.25118   0.40630   0.02169   0.00000  Uiso   1.00
N272   N     0.85741   0.42680   0.47290   0.00000  Uiso   1.00
N273   N     0.20951   0.85770   0.35287   0.00000  Uiso   1.00
N274   N     0.15535   0.47482   0.93671   0.00000  Uiso   1.00
N275   N     0.76157   0.49532   0.38792   0.00000  Uiso   1.00
N276   N     0.11367   0.92622   0.26789   0.00000  Uiso   1.00
