data_job_05121
_audit_creation_date              2018-12-19
_audit_creation_method            'Materials Studio'
_symmetry_space_group_name_H-M    'P1'
_symmetry_Int_Tables_number       1
_symmetry_cell_setting            triclinic
loop_
_symmetry_equiv_pos_as_xyz
  x,y,z
_cell_length_a                    22.1466
_cell_length_b                    22.1466
_cell_length_c                    12.5191
_cell_angle_alpha                 90.0000
_cell_angle_beta                  90.0000
_cell_angle_gamma                 90.0000
loop_
_atom_site_label
_atom_site_type_symbol
_atom_site_fract_x
_atom_site_fract_y
_atom_site_fract_z
_atom_site_U_iso_or_equiv
_atom_site_adp_type
_atom_site_occupancy
C1     C     0.27284   0.79491   0.93207   0.00000  Uiso   1.00
C2     C     0.30402   0.80593   0.03891   0.00000  Uiso   1.00
C3     C     0.33003   0.76198   0.10316   0.00000  Uiso   1.00
C4     C     0.35631   0.78124   0.19791   0.00000  Uiso   1.00
C5     C     0.40466   0.78906   0.35937   0.00000  Uiso   1.00
C6     C     0.20944   0.82101   0.94320   0.00000  Uiso   1.00
C7     C     0.15591   0.78973   0.92696   0.00000  Uiso   1.00
C8     C     0.10257   0.82168   0.94113   0.00000  Uiso   1.00
C9     C     0.00407   0.85292   0.95392   0.00000  Uiso   1.00
C10    C     0.30536   0.83478   0.85112   0.00000  Uiso   1.00
C11    C     0.33248   0.81510   0.75745   0.00000  Uiso   1.00
C12    C     0.35989   0.85865   0.69408   0.00000  Uiso   1.00
C13    C     0.41033   0.91128   0.56392   0.00000  Uiso   1.00
C14    C     0.27328   0.90725   0.98609   0.00000  Uiso   1.00
C15    C     0.30426   0.86695   0.06825   0.00000  Uiso   1.00
C16    C     0.33051   0.88628   0.16293   0.00000  Uiso   1.00
C17    C     0.35655   0.84237   0.22730   0.00000  Uiso   1.00
C18    C     0.20967   0.88202   0.97254   0.00000  Uiso   1.00
C19    C     0.15639   0.91403   0.98673   0.00000  Uiso   1.00
C20    C     0.10280   0.88281   0.97052   0.00000  Uiso   1.00
C21    C     0.30560   0.89580   0.88047   0.00000  Uiso   1.00
C22    C     0.33296   0.93939   0.81723   0.00000  Uiso   1.00
C23    C     0.36012   0.91978   0.72348   0.00000  Uiso   1.00
H24    H     0.27266   0.74741   0.90922   0.00000  Uiso   1.00
H25    H     0.32983   0.71476   0.08042   0.00000  Uiso   1.00
H26    H     0.15574   0.74251   0.90424   0.00000  Uiso   1.00
H27    H     0.33229   0.76787   0.73477   0.00000  Uiso   1.00
H28    H     0.39330   0.70548   0.28319   0.00000  Uiso   1.00
H29    H     0.02623   0.76400   0.91167   0.00000  Uiso   1.00
H30    H     0.39851   0.81747   0.55429   0.00000  Uiso   1.00
H31    H     0.27346   0.95476   0.00893   0.00000  Uiso   1.00
H32    H     0.33068   0.93350   0.18561   0.00000  Uiso   1.00
H33    H     0.15659   0.96125   0.00943   0.00000  Uiso   1.00
H34    H     0.33314   0.98661   0.83996   0.00000  Uiso   1.00
H35    H     0.39399   0.88302   0.36857   0.00000  Uiso   1.00
H36    H     0.02692   0.94153   0.99704   0.00000  Uiso   1.00
H37    H     0.39920   0.99501   0.63967   0.00000  Uiso   1.00
O38    O     0.43126   0.77652   0.44032   0.00000  Uiso   1.00
O39    O     0.94967   0.85329   0.95288   0.00000  Uiso   1.00
O40    O     0.43810   0.92345   0.48402   0.00000  Uiso   1.00
N41    N     0.38562   0.75019   0.27903   0.00000  Uiso   1.00
N42    N     0.04243   0.80489   0.93169   0.00000  Uiso   1.00
N43    N     0.39047   0.85489   0.59756   0.00000  Uiso   1.00
N44    N     0.38599   0.84572   0.32497   0.00000  Uiso   1.00
N45    N     0.04280   0.90042   0.97763   0.00000  Uiso   1.00
N46    N     0.39084   0.95042   0.64351   0.00000  Uiso   1.00
C47    C     0.72716   0.20509   0.43207   0.00000  Uiso   1.00
C48    C     0.69598   0.19407   0.53891   0.00000  Uiso   1.00
C49    C     0.66997   0.23802   0.60316   0.00000  Uiso   1.00
C50    C     0.64369   0.21876   0.69791   0.00000  Uiso   1.00
C51    C     0.59534   0.21094   0.85937   0.00000  Uiso   1.00
C52    C     0.79056   0.17899   0.44320   0.00000  Uiso   1.00
C53    C     0.84409   0.21027   0.42696   0.00000  Uiso   1.00
C54    C     0.89743   0.17832   0.44113   0.00000  Uiso   1.00
C55    C     0.99593   0.14708   0.45392   0.00000  Uiso   1.00
C56    C     0.69464   0.16522   0.35112   0.00000  Uiso   1.00
C57    C     0.66752   0.18490   0.25745   0.00000  Uiso   1.00
C58    C     0.64011   0.14135   0.19408   0.00000  Uiso   1.00
C59    C     0.58967   0.08872   0.06392   0.00000  Uiso   1.00
C60    C     0.72672   0.09275   0.48609   0.00000  Uiso   1.00
C61    C     0.69574   0.13305   0.56825   0.00000  Uiso   1.00
C62    C     0.66949   0.11372   0.66293   0.00000  Uiso   1.00
C63    C     0.64345   0.15763   0.72730   0.00000  Uiso   1.00
C64    C     0.79033   0.11798   0.47254   0.00000  Uiso   1.00
C65    C     0.84361   0.08597   0.48673   0.00000  Uiso   1.00
C66    C     0.89720   0.11719   0.47052   0.00000  Uiso   1.00
C67    C     0.69440   0.10420   0.38047   0.00000  Uiso   1.00
C68    C     0.66704   0.06061   0.31723   0.00000  Uiso   1.00
C69    C     0.63988   0.08022   0.22348   0.00000  Uiso   1.00
H70    H     0.72734   0.25259   0.40922   0.00000  Uiso   1.00
H71    H     0.67017   0.28524   0.58042   0.00000  Uiso   1.00
H72    H     0.84426   0.25749   0.40424   0.00000  Uiso   1.00
H73    H     0.66771   0.23213   0.23477   0.00000  Uiso   1.00
H74    H     0.60670   0.29452   0.78319   0.00000  Uiso   1.00
H75    H     0.97377   0.23600   0.41167   0.00000  Uiso   1.00
H76    H     0.60149   0.18253   0.05429   0.00000  Uiso   1.00
H77    H     0.72654   0.04524   0.50893   0.00000  Uiso   1.00
H78    H     0.66932   0.06650   0.68561   0.00000  Uiso   1.00
H79    H     0.84341   0.03875   0.50943   0.00000  Uiso   1.00
H80    H     0.66686   0.01339   0.33996   0.00000  Uiso   1.00
H81    H     0.60601   0.11698   0.86857   0.00000  Uiso   1.00
H82    H     0.97308   0.05847   0.49704   0.00000  Uiso   1.00
H83    H     0.60080   0.00499   0.13967   0.00000  Uiso   1.00
O84    O     0.56874   0.22348   0.94032   0.00000  Uiso   1.00
O85    O     0.05033   0.14671   0.45288   0.00000  Uiso   1.00
O86    O     0.56190   0.07655   0.98402   0.00000  Uiso   1.00
N87    N     0.61438   0.24981   0.77903   0.00000  Uiso   1.00
N88    N     0.95757   0.19511   0.43169   0.00000  Uiso   1.00
N89    N     0.60953   0.14511   0.09756   0.00000  Uiso   1.00
N90    N     0.61401   0.15428   0.82497   0.00000  Uiso   1.00
N91    N     0.95720   0.09958   0.47763   0.00000  Uiso   1.00
N92    N     0.60916   0.04958   0.14351   0.00000  Uiso   1.00
C93    C     0.70509   0.77284   0.68207   0.00000  Uiso   1.00
C94    C     0.69407   0.80402   0.78891   0.00000  Uiso   1.00
C95    C     0.73802   0.83003   0.85316   0.00000  Uiso   1.00
C96    C     0.71876   0.85631   0.94791   0.00000  Uiso   1.00
C97    C     0.71094   0.90466   0.10937   0.00000  Uiso   1.00
C98    C     0.67899   0.70944   0.69320   0.00000  Uiso   1.00
C99    C     0.71027   0.65591   0.67696   0.00000  Uiso   1.00
C100   C     0.67832   0.60257   0.69113   0.00000  Uiso   1.00
C101   C     0.64708   0.50407   0.70392   0.00000  Uiso   1.00
C102   C     0.66522   0.80536   0.60112   0.00000  Uiso   1.00
C103   C     0.68490   0.83248   0.50745   0.00000  Uiso   1.00
C104   C     0.64135   0.85989   0.44408   0.00000  Uiso   1.00
C105   C     0.58872   0.91033   0.31392   0.00000  Uiso   1.00
C106   C     0.59275   0.77328   0.73609   0.00000  Uiso   1.00
C107   C     0.63305   0.80426   0.81825   0.00000  Uiso   1.00
C108   C     0.61372   0.83051   0.91293   0.00000  Uiso   1.00
C109   C     0.65763   0.85655   0.97730   0.00000  Uiso   1.00
C110   C     0.61798   0.70967   0.72254   0.00000  Uiso   1.00
C111   C     0.58597   0.65639   0.73673   0.00000  Uiso   1.00
C112   C     0.61719   0.60280   0.72052   0.00000  Uiso   1.00
C113   C     0.60420   0.80560   0.63047   0.00000  Uiso   1.00
C114   C     0.56061   0.83296   0.56723   0.00000  Uiso   1.00
C115   C     0.58022   0.86012   0.47348   0.00000  Uiso   1.00
H116   H     0.75259   0.77266   0.65922   0.00000  Uiso   1.00
H117   H     0.78524   0.82983   0.83042   0.00000  Uiso   1.00
H118   H     0.75749   0.65574   0.65424   0.00000  Uiso   1.00
H119   H     0.73213   0.83229   0.48477   0.00000  Uiso   1.00
H120   H     0.79452   0.89330   0.03319   0.00000  Uiso   1.00
H121   H     0.73600   0.52623   0.66167   0.00000  Uiso   1.00
H122   H     0.68253   0.89851   0.30429   0.00000  Uiso   1.00
H123   H     0.54524   0.77346   0.75893   0.00000  Uiso   1.00
H124   H     0.56650   0.83068   0.93561   0.00000  Uiso   1.00
H125   H     0.53875   0.65659   0.75943   0.00000  Uiso   1.00
H126   H     0.51339   0.83314   0.58996   0.00000  Uiso   1.00
H127   H     0.61698   0.89399   0.11857   0.00000  Uiso   1.00
H128   H     0.55847   0.52692   0.74704   0.00000  Uiso   1.00
H129   H     0.50499   0.89920   0.38967   0.00000  Uiso   1.00
O130   O     0.72348   0.93126   0.19032   0.00000  Uiso   1.00
O131   O     0.64671   0.44967   0.70288   0.00000  Uiso   1.00
O132   O     0.57655   0.93810   0.23402   0.00000  Uiso   1.00
N133   N     0.74981   0.88562   0.02903   0.00000  Uiso   1.00
N134   N     0.69511   0.54243   0.68169   0.00000  Uiso   1.00
N135   N     0.64511   0.89047   0.34756   0.00000  Uiso   1.00
N136   N     0.65428   0.88599   0.07497   0.00000  Uiso   1.00
N137   N     0.59958   0.54280   0.72763   0.00000  Uiso   1.00
N138   N     0.54958   0.89084   0.39351   0.00000  Uiso   1.00
C139   C     0.29491   0.22716   0.18207   0.00000  Uiso   1.00
C140   C     0.30593   0.19598   0.28891   0.00000  Uiso   1.00
C141   C     0.26198   0.16997   0.35316   0.00000  Uiso   1.00
C142   C     0.28124   0.14369   0.44791   0.00000  Uiso   1.00
C143   C     0.28906   0.09534   0.60937   0.00000  Uiso   1.00
C144   C     0.32101   0.29056   0.19320   0.00000  Uiso   1.00
C145   C     0.28973   0.34409   0.17696   0.00000  Uiso   1.00
C146   C     0.32168   0.39743   0.19113   0.00000  Uiso   1.00
C147   C     0.35292   0.49593   0.20392   0.00000  Uiso   1.00
C148   C     0.33478   0.19464   0.10112   0.00000  Uiso   1.00
C149   C     0.31510   0.16752   0.00745   0.00000  Uiso   1.00
C150   C     0.35865   0.14011   0.94408   0.00000  Uiso   1.00
C151   C     0.41128   0.08967   0.81392   0.00000  Uiso   1.00
C152   C     0.40725   0.22672   0.23609   0.00000  Uiso   1.00
C153   C     0.36695   0.19574   0.31825   0.00000  Uiso   1.00
C154   C     0.38628   0.16949   0.41293   0.00000  Uiso   1.00
C155   C     0.34237   0.14345   0.47730   0.00000  Uiso   1.00
C156   C     0.38202   0.29033   0.22254   0.00000  Uiso   1.00
C157   C     0.41403   0.34361   0.23673   0.00000  Uiso   1.00
C158   C     0.38281   0.39720   0.22052   0.00000  Uiso   1.00
C159   C     0.39580   0.19440   0.13047   0.00000  Uiso   1.00
C160   C     0.43939   0.16704   0.06723   0.00000  Uiso   1.00
C161   C     0.41978   0.13988   0.97348   0.00000  Uiso   1.00
H162   H     0.24741   0.22734   0.15922   0.00000  Uiso   1.00
H163   H     0.21476   0.17017   0.33042   0.00000  Uiso   1.00
H164   H     0.24251   0.34426   0.15424   0.00000  Uiso   1.00
H165   H     0.26787   0.16771   0.98477   0.00000  Uiso   1.00
H166   H     0.20548   0.10670   0.53319   0.00000  Uiso   1.00
H167   H     0.26400   0.47377   0.16167   0.00000  Uiso   1.00
H168   H     0.31747   0.10149   0.80429   0.00000  Uiso   1.00
H169   H     0.45476   0.22654   0.25893   0.00000  Uiso   1.00
H170   H     0.43350   0.16932   0.43561   0.00000  Uiso   1.00
H171   H     0.46125   0.34341   0.25943   0.00000  Uiso   1.00
H172   H     0.48661   0.16686   0.08996   0.00000  Uiso   1.00
H173   H     0.38302   0.10601   0.61857   0.00000  Uiso   1.00
H174   H     0.44153   0.47308   0.24704   0.00000  Uiso   1.00
H175   H     0.49501   0.10080   0.88967   0.00000  Uiso   1.00
O176   O     0.27652   0.06874   0.69032   0.00000  Uiso   1.00
O177   O     0.35329   0.55033   0.20288   0.00000  Uiso   1.00
O178   O     0.42345   0.06190   0.73402   0.00000  Uiso   1.00
N179   N     0.25019   0.11438   0.52903   0.00000  Uiso   1.00
N180   N     0.30489   0.45757   0.18169   0.00000  Uiso   1.00
N181   N     0.35489   0.10953   0.84756   0.00000  Uiso   1.00
N182   N     0.34572   0.11401   0.57497   0.00000  Uiso   1.00
N183   N     0.40042   0.45720   0.22763   0.00000  Uiso   1.00
N184   N     0.45042   0.10916   0.89351   0.00000  Uiso   1.00
C185   C     0.22716   0.29491   0.81793   0.00000  Uiso   1.00
C186   C     0.19598   0.30593   0.71109   0.00000  Uiso   1.00
C187   C     0.16997   0.26198   0.64684   0.00000  Uiso   1.00
C188   C     0.14369   0.28124   0.55209   0.00000  Uiso   1.00
C189   C     0.09534   0.28906   0.39063   0.00000  Uiso   1.00
C190   C     0.29056   0.32101   0.80680   0.00000  Uiso   1.00
C191   C     0.34409   0.28973   0.82304   0.00000  Uiso   1.00
C192   C     0.39743   0.32168   0.80887   0.00000  Uiso   1.00
C193   C     0.49593   0.35292   0.79608   0.00000  Uiso   1.00
C194   C     0.19464   0.33478   0.89888   0.00000  Uiso   1.00
C195   C     0.16752   0.31510   0.99255   0.00000  Uiso   1.00
C196   C     0.14011   0.35865   0.05592   0.00000  Uiso   1.00
C197   C     0.08967   0.41128   0.18608   0.00000  Uiso   1.00
C198   C     0.22672   0.40725   0.76391   0.00000  Uiso   1.00
C199   C     0.19574   0.36695   0.68175   0.00000  Uiso   1.00
C200   C     0.16949   0.38628   0.58707   0.00000  Uiso   1.00
C201   C     0.14345   0.34237   0.52270   0.00000  Uiso   1.00
C202   C     0.29033   0.38202   0.77746   0.00000  Uiso   1.00
C203   C     0.34361   0.41403   0.76327   0.00000  Uiso   1.00
C204   C     0.39720   0.38281   0.77948   0.00000  Uiso   1.00
C205   C     0.19440   0.39580   0.86953   0.00000  Uiso   1.00
C206   C     0.16704   0.43939   0.93277   0.00000  Uiso   1.00
C207   C     0.13988   0.41978   0.02652   0.00000  Uiso   1.00
H208   H     0.22734   0.24741   0.84078   0.00000  Uiso   1.00
H209   H     0.17017   0.21476   0.66958   0.00000  Uiso   1.00
H210   H     0.34426   0.24251   0.84576   0.00000  Uiso   1.00
H211   H     0.16771   0.26787   0.01523   0.00000  Uiso   1.00
H212   H     0.10670   0.20548   0.46681   0.00000  Uiso   1.00
H213   H     0.47377   0.26400   0.83833   0.00000  Uiso   1.00
H214   H     0.10149   0.31747   0.19571   0.00000  Uiso   1.00
H215   H     0.22654   0.45476   0.74107   0.00000  Uiso   1.00
H216   H     0.16932   0.43350   0.56439   0.00000  Uiso   1.00
H217   H     0.34341   0.46125   0.74057   0.00000  Uiso   1.00
H218   H     0.16686   0.48661   0.91004   0.00000  Uiso   1.00
H219   H     0.10601   0.38302   0.38143   0.00000  Uiso   1.00
H220   H     0.47308   0.44153   0.75296   0.00000  Uiso   1.00
H221   H     0.10080   0.49501   0.11033   0.00000  Uiso   1.00
O222   O     0.06874   0.27652   0.30968   0.00000  Uiso   1.00
O223   O     0.55033   0.35329   0.79712   0.00000  Uiso   1.00
O224   O     0.06190   0.42345   0.26598   0.00000  Uiso   1.00
N225   N     0.11438   0.25019   0.47097   0.00000  Uiso   1.00
N226   N     0.45757   0.30489   0.81831   0.00000  Uiso   1.00
N227   N     0.10953   0.35489   0.15244   0.00000  Uiso   1.00
N228   N     0.11401   0.34572   0.42503   0.00000  Uiso   1.00
N229   N     0.45720   0.40042   0.77237   0.00000  Uiso   1.00
N230   N     0.10916   0.45042   0.10649   0.00000  Uiso   1.00
C231   C     0.77284   0.70509   0.31793   0.00000  Uiso   1.00
C232   C     0.80402   0.69407   0.21109   0.00000  Uiso   1.00
C233   C     0.83003   0.73802   0.14684   0.00000  Uiso   1.00
C234   C     0.85631   0.71876   0.05209   0.00000  Uiso   1.00
C235   C     0.90466   0.71094   0.89063   0.00000  Uiso   1.00
C236   C     0.70944   0.67899   0.30680   0.00000  Uiso   1.00
C237   C     0.65591   0.71027   0.32304   0.00000  Uiso   1.00
C238   C     0.60257   0.67832   0.30887   0.00000  Uiso   1.00
C239   C     0.50407   0.64708   0.29608   0.00000  Uiso   1.00
C240   C     0.80536   0.66522   0.39888   0.00000  Uiso   1.00
C241   C     0.83248   0.68490   0.49255   0.00000  Uiso   1.00
C242   C     0.85989   0.64135   0.55592   0.00000  Uiso   1.00
C243   C     0.91033   0.58872   0.68608   0.00000  Uiso   1.00
C244   C     0.77328   0.59275   0.26391   0.00000  Uiso   1.00
C245   C     0.80426   0.63305   0.18175   0.00000  Uiso   1.00
C246   C     0.83051   0.61372   0.08707   0.00000  Uiso   1.00
C247   C     0.85655   0.65763   0.02270   0.00000  Uiso   1.00
C248   C     0.70967   0.61798   0.27746   0.00000  Uiso   1.00
C249   C     0.65639   0.58597   0.26327   0.00000  Uiso   1.00
C250   C     0.60280   0.61719   0.27948   0.00000  Uiso   1.00
C251   C     0.80560   0.60420   0.36953   0.00000  Uiso   1.00
C252   C     0.83296   0.56061   0.43277   0.00000  Uiso   1.00
C253   C     0.86012   0.58022   0.52652   0.00000  Uiso   1.00
H254   H     0.77266   0.75259   0.34078   0.00000  Uiso   1.00
H255   H     0.82983   0.78524   0.16958   0.00000  Uiso   1.00
H256   H     0.65574   0.75749   0.34576   0.00000  Uiso   1.00
H257   H     0.83229   0.73213   0.51523   0.00000  Uiso   1.00
H258   H     0.89330   0.79452   0.96681   0.00000  Uiso   1.00
H259   H     0.52623   0.73600   0.33833   0.00000  Uiso   1.00
H260   H     0.89851   0.68253   0.69571   0.00000  Uiso   1.00
H261   H     0.77346   0.54524   0.24107   0.00000  Uiso   1.00
H262   H     0.83068   0.56650   0.06439   0.00000  Uiso   1.00
H263   H     0.65659   0.53875   0.24057   0.00000  Uiso   1.00
H264   H     0.83314   0.51339   0.41004   0.00000  Uiso   1.00
H265   H     0.89399   0.61698   0.88143   0.00000  Uiso   1.00
H266   H     0.52692   0.55847   0.25296   0.00000  Uiso   1.00
H267   H     0.89920   0.50499   0.61033   0.00000  Uiso   1.00
O268   O     0.93126   0.72348   0.80968   0.00000  Uiso   1.00
O269   O     0.44967   0.64671   0.29712   0.00000  Uiso   1.00
O270   O     0.93810   0.57655   0.76598   0.00000  Uiso   1.00
N271   N     0.88562   0.74981   0.97097   0.00000  Uiso   1.00
N272   N     0.54243   0.69511   0.31831   0.00000  Uiso   1.00
N273   N     0.89047   0.64511   0.65244   0.00000  Uiso   1.00
N274   N     0.88599   0.65428   0.92503   0.00000  Uiso   1.00
N275   N     0.54280   0.59958   0.27237   0.00000  Uiso   1.00
N276   N     0.89084   0.54958   0.60649   0.00000  Uiso   1.00
C277   C     0.79491   0.27284   0.06793   0.00000  Uiso   1.00
C278   C     0.80593   0.30402   0.96109   0.00000  Uiso   1.00
C279   C     0.76198   0.33003   0.89684   0.00000  Uiso   1.00
C280   C     0.78124   0.35631   0.80209   0.00000  Uiso   1.00
C281   C     0.78906   0.40466   0.64063   0.00000  Uiso   1.00
C282   C     0.82101   0.20944   0.05680   0.00000  Uiso   1.00
C283   C     0.78973   0.15591   0.07304   0.00000  Uiso   1.00
C284   C     0.82168   0.10257   0.05887   0.00000  Uiso   1.00
C285   C     0.85292   0.00407   0.04608   0.00000  Uiso   1.00
C286   C     0.83478   0.30536   0.14888   0.00000  Uiso   1.00
C287   C     0.81510   0.33248   0.24255   0.00000  Uiso   1.00
C288   C     0.85865   0.35989   0.30592   0.00000  Uiso   1.00
C289   C     0.91128   0.41033   0.43608   0.00000  Uiso   1.00
C290   C     0.90725   0.27328   0.01391   0.00000  Uiso   1.00
C291   C     0.86695   0.30426   0.93175   0.00000  Uiso   1.00
C292   C     0.88628   0.33051   0.83707   0.00000  Uiso   1.00
C293   C     0.84237   0.35655   0.77270   0.00000  Uiso   1.00
C294   C     0.88202   0.20967   0.02746   0.00000  Uiso   1.00
C295   C     0.91403   0.15639   0.01327   0.00000  Uiso   1.00
C296   C     0.88281   0.10280   0.02948   0.00000  Uiso   1.00
C297   C     0.89580   0.30560   0.11953   0.00000  Uiso   1.00
C298   C     0.93939   0.33296   0.18277   0.00000  Uiso   1.00
C299   C     0.91978   0.36012   0.27652   0.00000  Uiso   1.00
H300   H     0.74741   0.27266   0.09078   0.00000  Uiso   1.00
H301   H     0.71476   0.32983   0.91958   0.00000  Uiso   1.00
H302   H     0.74251   0.15574   0.09576   0.00000  Uiso   1.00
H303   H     0.76787   0.33229   0.26523   0.00000  Uiso   1.00
H304   H     0.70548   0.39330   0.71681   0.00000  Uiso   1.00
H305   H     0.76400   0.02623   0.08833   0.00000  Uiso   1.00
H306   H     0.81747   0.39851   0.44571   0.00000  Uiso   1.00
H307   H     0.95476   0.27346   0.99107   0.00000  Uiso   1.00
H308   H     0.93350   0.33068   0.81439   0.00000  Uiso   1.00
H309   H     0.96125   0.15659   0.99057   0.00000  Uiso   1.00
H310   H     0.98661   0.33314   0.16004   0.00000  Uiso   1.00
H311   H     0.88302   0.39399   0.63143   0.00000  Uiso   1.00
H312   H     0.94153   0.02692   0.00296   0.00000  Uiso   1.00
H313   H     0.99501   0.39920   0.36033   0.00000  Uiso   1.00
O314   O     0.77652   0.43126   0.55968   0.00000  Uiso   1.00
O315   O     0.85329   0.94967   0.04712   0.00000  Uiso   1.00
O316   O     0.92345   0.43810   0.51598   0.00000  Uiso   1.00
N317   N     0.75019   0.38562   0.72097   0.00000  Uiso   1.00
N318   N     0.80489   0.04243   0.06831   0.00000  Uiso   1.00
N319   N     0.85489   0.39047   0.40244   0.00000  Uiso   1.00
N320   N     0.84572   0.38599   0.67503   0.00000  Uiso   1.00
N321   N     0.90042   0.04280   0.02237   0.00000  Uiso   1.00
N322   N     0.95042   0.39084   0.35649   0.00000  Uiso   1.00
C323   C     0.20509   0.72716   0.56793   0.00000  Uiso   1.00
C324   C     0.19407   0.69598   0.46109   0.00000  Uiso   1.00
C325   C     0.23802   0.66997   0.39684   0.00000  Uiso   1.00
C326   C     0.21876   0.64369   0.30209   0.00000  Uiso   1.00
C327   C     0.21094   0.59534   0.14063   0.00000  Uiso   1.00
C328   C     0.17899   0.79056   0.55680   0.00000  Uiso   1.00
C329   C     0.21027   0.84409   0.57304   0.00000  Uiso   1.00
C330   C     0.17832   0.89743   0.55887   0.00000  Uiso   1.00
C331   C     0.14708   0.99593   0.54608   0.00000  Uiso   1.00
C332   C     0.16522   0.69464   0.64888   0.00000  Uiso   1.00
C333   C     0.18490   0.66752   0.74255   0.00000  Uiso   1.00
C334   C     0.14135   0.64011   0.80592   0.00000  Uiso   1.00
C335   C     0.08872   0.58967   0.93608   0.00000  Uiso   1.00
C336   C     0.09275   0.72672   0.51391   0.00000  Uiso   1.00
C337   C     0.13305   0.69574   0.43175   0.00000  Uiso   1.00
C338   C     0.11372   0.66949   0.33707   0.00000  Uiso   1.00
C339   C     0.15763   0.64345   0.27270   0.00000  Uiso   1.00
C340   C     0.11798   0.79033   0.52746   0.00000  Uiso   1.00
C341   C     0.08597   0.84361   0.51327   0.00000  Uiso   1.00
C342   C     0.11719   0.89720   0.52948   0.00000  Uiso   1.00
C343   C     0.10420   0.69440   0.61953   0.00000  Uiso   1.00
C344   C     0.06061   0.66704   0.68277   0.00000  Uiso   1.00
C345   C     0.08022   0.63988   0.77652   0.00000  Uiso   1.00
H346   H     0.25259   0.72734   0.59078   0.00000  Uiso   1.00
H347   H     0.28524   0.67017   0.41958   0.00000  Uiso   1.00
H348   H     0.25749   0.84426   0.59576   0.00000  Uiso   1.00
H349   H     0.23213   0.66771   0.76523   0.00000  Uiso   1.00
H350   H     0.29452   0.60670   0.21681   0.00000  Uiso   1.00
H351   H     0.23600   0.97377   0.58833   0.00000  Uiso   1.00
H352   H     0.18253   0.60149   0.94571   0.00000  Uiso   1.00
H353   H     0.04524   0.72654   0.49107   0.00000  Uiso   1.00
H354   H     0.06650   0.66932   0.31439   0.00000  Uiso   1.00
H355   H     0.03875   0.84341   0.49057   0.00000  Uiso   1.00
H356   H     0.01339   0.66686   0.66004   0.00000  Uiso   1.00
H357   H     0.11698   0.60601   0.13143   0.00000  Uiso   1.00
H358   H     0.05847   0.97308   0.50296   0.00000  Uiso   1.00
H359   H     0.00499   0.60080   0.86033   0.00000  Uiso   1.00
O360   O     0.22348   0.56874   0.05968   0.00000  Uiso   1.00
O361   O     0.14671   0.05033   0.54712   0.00000  Uiso   1.00
O362   O     0.07655   0.56190   0.01598   0.00000  Uiso   1.00
N363   N     0.24981   0.61438   0.22097   0.00000  Uiso   1.00
N364   N     0.19511   0.95757   0.56831   0.00000  Uiso   1.00
N365   N     0.14511   0.60953   0.90244   0.00000  Uiso   1.00
N366   N     0.15428   0.61401   0.17503   0.00000  Uiso   1.00
N367   N     0.09958   0.95720   0.52237   0.00000  Uiso   1.00
N368   N     0.04958   0.60916   0.85649   0.00000  Uiso   1.00
