data_job_04564
_audit_creation_date              2018-12-19
_audit_creation_method            'Materials Studio'
_symmetry_space_group_name_H-M    'P1'
_symmetry_Int_Tables_number       1
_symmetry_cell_setting            triclinic
loop_
_symmetry_equiv_pos_as_xyz
  x,y,z
_cell_length_a                    12.4309
_cell_length_b                    10.9545
_cell_length_c                    18.0302
_cell_angle_alpha                 90.0000
_cell_angle_beta                  94.0758
_cell_angle_gamma                 90.0000
loop_
_atom_site_label
_atom_site_type_symbol
_atom_site_fract_x
_atom_site_fract_y
_atom_site_fract_z
_atom_site_U_iso_or_equiv
_atom_site_adp_type
_atom_site_occupancy
C1     C     0.73065   0.83654   0.53401   0.00000  Uiso   1.00
C2     C     0.84050   0.81215   0.57442   0.00000  Uiso   1.00
C3     C     0.90668   0.89898   0.61037   0.00000  Uiso   1.00
C4     C     0.00407   0.85833   0.64401   0.00000  Uiso   1.00
C5     C     0.17009   0.83918   0.70707   0.00000  Uiso   1.00
C6     C     0.73805   0.78955   0.45492   0.00000  Uiso   1.00
C7     C     0.71807   0.85738   0.39040   0.00000  Uiso   1.00
C8     C     0.72921   0.79770   0.32344   0.00000  Uiso   1.00
C9     C     0.73609   0.74345   0.20098   0.00000  Uiso   1.00
C10    C     0.65130   0.75263   0.56981   0.00000  Uiso   1.00
C11    C     0.55836   0.78941   0.60187   0.00000  Uiso   1.00
C12    C     0.49645   0.69863   0.63163   0.00000  Uiso   1.00
C13    C     0.36865   0.58706   0.68756   0.00000  Uiso   1.00
C14    C     0.78593   0.60993   0.52983   0.00000  Uiso   1.00
C15    C     0.87052   0.68906   0.57214   0.00000  Uiso   1.00
C16    C     0.96784   0.64826   0.60574   0.00000  Uiso   1.00
C17    C     0.03415   0.73502   0.64173   0.00000  Uiso   1.00
C18    C     0.76807   0.66647   0.45265   0.00000  Uiso   1.00
C19    C     0.77923   0.60667   0.38577   0.00000  Uiso   1.00
C20    C     0.75928   0.67439   0.32117   0.00000  Uiso   1.00
C21    C     0.68132   0.62954   0.56754   0.00000  Uiso   1.00
C22    C     0.61953   0.53869   0.59725   0.00000  Uiso   1.00
C23    C     0.52653   0.57533   0.62936   0.00000  Uiso   1.00
H24    H     0.70727   0.93237   0.53577   0.00000  Uiso   1.00
H25    H     0.88342   0.99423   0.61211   0.00000  Uiso   1.00
H26    H     0.69482   0.95263   0.39217   0.00000  Uiso   1.00
H27    H     0.53516   0.88467   0.60362   0.00000  Uiso   1.00
H28    H     0.09196   0.00854   0.69571   0.00000  Uiso   1.00
H29    H     0.69427   0.92082   0.23197   0.00000  Uiso   1.00
H30    H     0.35757   0.77750   0.67785   0.00000  Uiso   1.00
H31    H     0.80931   0.51410   0.52806   0.00000  Uiso   1.00
H32    H     0.99106   0.55301   0.60397   0.00000  Uiso   1.00
H33    H     0.80246   0.51142   0.38404   0.00000  Uiso   1.00
H34    H     0.64279   0.44345   0.59548   0.00000  Uiso   1.00
H35    H     0.17933   0.65043   0.68911   0.00000  Uiso   1.00
H36    H     0.78163   0.56271   0.22536   0.00000  Uiso   1.00
H37    H     0.44494   0.41940   0.67124   0.00000  Uiso   1.00
O38    O     0.25338   0.86263   0.74247   0.00000  Uiso   1.00
O39    O     0.73160   0.74755   0.13406   0.00000  Uiso   1.00
O40    O     0.28987   0.55952   0.71904   0.00000  Uiso   1.00
N41    N     0.08757   0.91891   0.68375   0.00000  Uiso   1.00
N42    N     0.71577   0.83691   0.25018   0.00000  Uiso   1.00
N43    N     0.40097   0.70292   0.66702   0.00000  Uiso   1.00
N44    N     0.13458   0.72622   0.68020   0.00000  Uiso   1.00
N45    N     0.76278   0.64421   0.24663   0.00000  Uiso   1.00
N46    N     0.44798   0.51022   0.66347   0.00000  Uiso   1.00
C47    C     0.26893   0.88865   0.96234   0.00000  Uiso   1.00
C48    C     0.15909   0.86456   0.92185   0.00000  Uiso   1.00
C49    C     0.09285   0.95170   0.88625   0.00000  Uiso   1.00
C50    C     0.99547   0.91129   0.85246   0.00000  Uiso   1.00
C51    C     0.82944   0.89263   0.78935   0.00000  Uiso   1.00
C52    C     0.26158   0.84080   0.04124   0.00000  Uiso   1.00
C53    C     0.28154   0.90796   0.10603   0.00000  Uiso   1.00
C54    C     0.27046   0.84753   0.17275   0.00000  Uiso   1.00
C55    C     0.26364   0.79196   0.29500   0.00000  Uiso   1.00
C56    C     0.34832   0.80522   0.92619   0.00000  Uiso   1.00
C57    C     0.44122   0.84246   0.89426   0.00000  Uiso   1.00
C58    C     0.50317   0.75208   0.86414   0.00000  Uiso   1.00
C59    C     0.63102   0.64127   0.80775   0.00000  Uiso   1.00
C60    C     0.21377   0.66193   0.96563   0.00000  Uiso   1.00
C61    C     0.12913   0.74142   0.92364   0.00000  Uiso   1.00
C62    C     0.03182   0.70087   0.88989   0.00000  Uiso   1.00
C63    C     0.96546   0.78793   0.85425   0.00000  Uiso   1.00
C64    C     0.23163   0.71766   0.04303   0.00000  Uiso   1.00
C65    C     0.22052   0.65712   0.10967   0.00000  Uiso   1.00
C66    C     0.24045   0.72417   0.17454   0.00000  Uiso   1.00
C67    C     0.31836   0.68208   0.92798   0.00000  Uiso   1.00
C68    C     0.38019   0.59163   0.89790   0.00000  Uiso   1.00
C69    C     0.47316   0.62872   0.86593   0.00000  Uiso   1.00
H70    H     0.29226   0.98452   0.96095   0.00000  Uiso   1.00
H71    H     0.11606   0.04699   0.88489   0.00000  Uiso   1.00
H72    H     0.30474   0.00325   0.10463   0.00000  Uiso   1.00
H73    H     0.46438   0.93776   0.89289   0.00000  Uiso   1.00
H74    H     0.90749   0.06195   0.80136   0.00000  Uiso   1.00
H75    H     0.30535   0.96971   0.26470   0.00000  Uiso   1.00
H76    H     0.64200   0.83162   0.81822   0.00000  Uiso   1.00
H77    H     0.19045   0.56606   0.96702   0.00000  Uiso   1.00
H78    H     0.00866   0.60556   0.89129   0.00000  Uiso   1.00
H79    H     0.19734   0.56182   0.11103   0.00000  Uiso   1.00
H80    H     0.35698   0.49634   0.89929   0.00000  Uiso   1.00
H81    H     0.82031   0.70368   0.80656   0.00000  Uiso   1.00
H82    H     0.21819   0.61143   0.26990   0.00000  Uiso   1.00
H83    H     0.55482   0.47334   0.82341   0.00000  Uiso   1.00
O84    O     0.74614   0.91636   0.75405   0.00000  Uiso   1.00
O85    O     0.26814   0.79533   0.36193   0.00000  Uiso   1.00
O86    O     0.70980   0.61417   0.77615   0.00000  Uiso   1.00
N87    N     0.91193   0.97221   0.81297   0.00000  Uiso   1.00
N88    N     0.28389   0.88597   0.24616   0.00000  Uiso   1.00
N89    N     0.59864   0.75687   0.82875   0.00000  Uiso   1.00
N90    N     0.86502   0.77942   0.81576   0.00000  Uiso   1.00
N91    N     0.23699   0.69318   0.24896   0.00000  Uiso   1.00
N92    N     0.55173   0.56408   0.83155   0.00000  Uiso   1.00
C93    C     0.73065   0.16346   0.03401   0.00000  Uiso   1.00
C94    C     0.84050   0.18785   0.07442   0.00000  Uiso   1.00
C95    C     0.90668   0.10102   0.11037   0.00000  Uiso   1.00
C96    C     0.00407   0.14167   0.14401   0.00000  Uiso   1.00
C97    C     0.17009   0.16082   0.20707   0.00000  Uiso   1.00
C98    C     0.73805   0.21045   0.95492   0.00000  Uiso   1.00
C99    C     0.71807   0.14262   0.89040   0.00000  Uiso   1.00
C100   C     0.72921   0.20230   0.82344   0.00000  Uiso   1.00
C101   C     0.73609   0.25655   0.70098   0.00000  Uiso   1.00
C102   C     0.65130   0.24737   0.06981   0.00000  Uiso   1.00
C103   C     0.55836   0.21059   0.10187   0.00000  Uiso   1.00
C104   C     0.49645   0.30137   0.13163   0.00000  Uiso   1.00
C105   C     0.36865   0.41294   0.18756   0.00000  Uiso   1.00
C106   C     0.78593   0.39007   0.02983   0.00000  Uiso   1.00
C107   C     0.87052   0.31094   0.07214   0.00000  Uiso   1.00
C108   C     0.96784   0.35174   0.10574   0.00000  Uiso   1.00
C109   C     0.03415   0.26498   0.14173   0.00000  Uiso   1.00
C110   C     0.76807   0.33353   0.95265   0.00000  Uiso   1.00
C111   C     0.77923   0.39333   0.88577   0.00000  Uiso   1.00
C112   C     0.75928   0.32561   0.82117   0.00000  Uiso   1.00
C113   C     0.68132   0.37046   0.06754   0.00000  Uiso   1.00
C114   C     0.61953   0.46131   0.09725   0.00000  Uiso   1.00
C115   C     0.52653   0.42467   0.12936   0.00000  Uiso   1.00
H116   H     0.70727   0.06763   0.03577   0.00000  Uiso   1.00
H117   H     0.88342   0.00577   0.11211   0.00000  Uiso   1.00
H118   H     0.69482   0.04737   0.89217   0.00000  Uiso   1.00
H119   H     0.53516   0.11533   0.10362   0.00000  Uiso   1.00
H120   H     0.09196   0.99146   0.19571   0.00000  Uiso   1.00
H121   H     0.69427   0.07918   0.73197   0.00000  Uiso   1.00
H122   H     0.35757   0.22250   0.17785   0.00000  Uiso   1.00
H123   H     0.80931   0.48590   0.02806   0.00000  Uiso   1.00
H124   H     0.99106   0.44699   0.10397   0.00000  Uiso   1.00
H125   H     0.80246   0.48858   0.88404   0.00000  Uiso   1.00
H126   H     0.64279   0.55655   0.09548   0.00000  Uiso   1.00
H127   H     0.17933   0.34957   0.18911   0.00000  Uiso   1.00
H128   H     0.78163   0.43729   0.72536   0.00000  Uiso   1.00
H129   H     0.44494   0.58060   0.17124   0.00000  Uiso   1.00
O130   O     0.25338   0.13737   0.24247   0.00000  Uiso   1.00
O131   O     0.73160   0.25245   0.63406   0.00000  Uiso   1.00
O132   O     0.28987   0.44048   0.21904   0.00000  Uiso   1.00
N133   N     0.08757   0.08109   0.18375   0.00000  Uiso   1.00
N134   N     0.71577   0.16309   0.75018   0.00000  Uiso   1.00
N135   N     0.40097   0.29708   0.16702   0.00000  Uiso   1.00
N136   N     0.13458   0.27378   0.18020   0.00000  Uiso   1.00
N137   N     0.76278   0.35579   0.74663   0.00000  Uiso   1.00
N138   N     0.44798   0.48978   0.16347   0.00000  Uiso   1.00
C139   C     0.26893   0.11135   0.46234   0.00000  Uiso   1.00
C140   C     0.15909   0.13544   0.42185   0.00000  Uiso   1.00
C141   C     0.09285   0.04830   0.38625   0.00000  Uiso   1.00
C142   C     0.99547   0.08871   0.35246   0.00000  Uiso   1.00
C143   C     0.82944   0.10737   0.28935   0.00000  Uiso   1.00
C144   C     0.26158   0.15920   0.54124   0.00000  Uiso   1.00
C145   C     0.28154   0.09204   0.60603   0.00000  Uiso   1.00
C146   C     0.27046   0.15247   0.67275   0.00000  Uiso   1.00
C147   C     0.26364   0.20804   0.79500   0.00000  Uiso   1.00
C148   C     0.34832   0.19478   0.42619   0.00000  Uiso   1.00
C149   C     0.44122   0.15754   0.39426   0.00000  Uiso   1.00
C150   C     0.50317   0.24792   0.36414   0.00000  Uiso   1.00
C151   C     0.63102   0.35873   0.30775   0.00000  Uiso   1.00
C152   C     0.21377   0.33807   0.46563   0.00000  Uiso   1.00
C153   C     0.12913   0.25858   0.42364   0.00000  Uiso   1.00
C154   C     0.03182   0.29913   0.38989   0.00000  Uiso   1.00
C155   C     0.96546   0.21207   0.35425   0.00000  Uiso   1.00
C156   C     0.23163   0.28234   0.54303   0.00000  Uiso   1.00
C157   C     0.22052   0.34288   0.60967   0.00000  Uiso   1.00
C158   C     0.24045   0.27583   0.67454   0.00000  Uiso   1.00
C159   C     0.31836   0.31792   0.42798   0.00000  Uiso   1.00
C160   C     0.38019   0.40837   0.39790   0.00000  Uiso   1.00
C161   C     0.47316   0.37128   0.36593   0.00000  Uiso   1.00
H162   H     0.29226   0.01548   0.46095   0.00000  Uiso   1.00
H163   H     0.11606   0.95301   0.38489   0.00000  Uiso   1.00
H164   H     0.30474   0.99675   0.60463   0.00000  Uiso   1.00
H165   H     0.46438   0.06224   0.39289   0.00000  Uiso   1.00
H166   H     0.90749   0.93805   0.30136   0.00000  Uiso   1.00
H167   H     0.30535   0.03029   0.76470   0.00000  Uiso   1.00
H168   H     0.64200   0.16838   0.31822   0.00000  Uiso   1.00
H169   H     0.19045   0.43394   0.46702   0.00000  Uiso   1.00
H170   H     0.00866   0.39444   0.39129   0.00000  Uiso   1.00
H171   H     0.19734   0.43818   0.61103   0.00000  Uiso   1.00
H172   H     0.35698   0.50366   0.39929   0.00000  Uiso   1.00
H173   H     0.82031   0.29632   0.30656   0.00000  Uiso   1.00
H174   H     0.21819   0.38857   0.76990   0.00000  Uiso   1.00
H175   H     0.55482   0.52666   0.32341   0.00000  Uiso   1.00
O176   O     0.74614   0.08364   0.25405   0.00000  Uiso   1.00
O177   O     0.26814   0.20467   0.86193   0.00000  Uiso   1.00
O178   O     0.70980   0.38583   0.27615   0.00000  Uiso   1.00
N179   N     0.91193   0.02779   0.31297   0.00000  Uiso   1.00
N180   N     0.28389   0.11403   0.74616   0.00000  Uiso   1.00
N181   N     0.59864   0.24313   0.32875   0.00000  Uiso   1.00
N182   N     0.86502   0.22058   0.31576   0.00000  Uiso   1.00
N183   N     0.23699   0.30682   0.74896   0.00000  Uiso   1.00
N184   N     0.55173   0.43592   0.33155   0.00000  Uiso   1.00
