data_job_06190
_audit_creation_date              2018-12-19
_audit_creation_method            'Materials Studio'
_symmetry_space_group_name_H-M    'P1'
_symmetry_Int_Tables_number       1
_symmetry_cell_setting            triclinic
loop_
_symmetry_equiv_pos_as_xyz
  x,y,z
_cell_length_a                    18.3550
_cell_length_b                    16.9132
_cell_length_c                    16.6195
_cell_angle_alpha                 105.2810
_cell_angle_beta                  103.0760
_cell_angle_gamma                 103.9450
loop_
_atom_site_label
_atom_site_type_symbol
_atom_site_fract_x
_atom_site_fract_y
_atom_site_fract_z
_atom_site_U_iso_or_equiv
_atom_site_adp_type
_atom_site_occupancy
C1     C     0.40064   0.30202   0.80425   0.00000  Uiso   1.00
C2     C     0.38399   0.33233   0.89112   0.00000  Uiso   1.00
C3     C     0.39866   0.41771   0.94101   0.00000  Uiso   1.00
C4     C     0.37929   0.43201   0.01849   0.00000  Uiso   1.00
C5     C     0.35848   0.48952   0.14936   0.00000  Uiso   1.00
C6     C     0.45418   0.24704   0.81699   0.00000  Uiso   1.00
C7     C     0.52785   0.26072   0.80454   0.00000  Uiso   1.00
C8     C     0.56756   0.20320   0.81961   0.00000  Uiso   1.00
C9     C     0.65570   0.12827   0.83533   0.00000  Uiso   1.00
C10    C     0.32230   0.24002   0.73816   0.00000  Uiso   1.00
C11    C     0.28508   0.24777   0.65940   0.00000  Uiso   1.00
C12    C     0.21376   0.18433   0.60808   0.00000  Uiso   1.00
C13    C     0.09712   0.09850   0.50140   0.00000  Uiso   1.00
C14    C     0.34016   0.17556   0.85315   0.00000  Uiso   1.00
C15    C     0.35115   0.26364   0.91768   0.00000  Uiso   1.00
C16    C     0.33175   0.27780   0.99511   0.00000  Uiso   1.00
C17    C     0.34638   0.36320   0.04510   0.00000  Uiso   1.00
C18    C     0.42134   0.17836   0.84355   0.00000  Uiso   1.00
C19    C     0.46094   0.12080   0.85864   0.00000  Uiso   1.00
C20    C     0.53466   0.13439   0.84622   0.00000  Uiso   1.00
C21    C     0.28944   0.17133   0.76472   0.00000  Uiso   1.00
C22    C     0.21817   0.10786   0.71351   0.00000  Uiso   1.00
C23    C     0.18085   0.11552   0.63469   0.00000  Uiso   1.00
H24    H     0.42621   0.35549   0.78357   0.00000  Uiso   1.00
H25    H     0.42409   0.47086   0.92043   0.00000  Uiso   1.00
H26    H     0.55326   0.31387   0.78397   0.00000  Uiso   1.00
H27    H     0.31052   0.30093   0.63887   0.00000  Uiso   1.00
H28    H     0.40727   0.56847   0.08390   0.00000  Uiso   1.00
H29    H     0.67962   0.23744   0.79614   0.00000  Uiso   1.00
H30    H     0.16776   0.21016   0.49015   0.00000  Uiso   1.00
H31    H     0.31458   0.12208   0.87383   0.00000  Uiso   1.00
H32    H     0.30633   0.22464   0.01565   0.00000  Uiso   1.00
H33    H     0.43550   0.06765   0.87919   0.00000  Uiso   1.00
H34    H     0.19276   0.05472   0.73409   0.00000  Uiso   1.00
H35    H     0.31170   0.36863   0.16118   0.00000  Uiso   1.00
H36    H     0.58404   0.03760   0.87342   0.00000  Uiso   1.00
H37    H     0.07219   0.01032   0.56743   0.00000  Uiso   1.00
O38    O     0.35609   0.54022   0.21421   0.00000  Uiso   1.00
O39    O     0.71339   0.10593   0.83667   0.00000  Uiso   1.00
O40    O     0.04185   0.07013   0.43522   0.00000  Uiso   1.00
N41    N     0.38589   0.50736   0.08261   0.00000  Uiso   1.00
N42    N     0.64053   0.19788   0.81359   0.00000  Uiso   1.00
N43    N     0.16200   0.17236   0.52750   0.00000  Uiso   1.00
N44    N     0.33447   0.39983   0.12420   0.00000  Uiso   1.00
N45    N     0.58910   0.09035   0.85518   0.00000  Uiso   1.00
N46    N     0.11057   0.06483   0.56909   0.00000  Uiso   1.00
C47    C     0.80964   0.41315   0.30893   0.00000  Uiso   1.00
C48    C     0.88500   0.38991   0.33347   0.00000  Uiso   1.00
C49    C     0.93009   0.40335   0.41802   0.00000  Uiso   1.00
C50    C     0.99697   0.37762   0.42669   0.00000  Uiso   1.00
C51    C     0.11082   0.34733   0.47593   0.00000  Uiso   1.00
C52    C     0.82414   0.47224   0.25500   0.00000  Uiso   1.00
C53    C     0.81806   0.55491   0.27357   0.00000  Uiso   1.00
C54    C     0.83370   0.59848   0.21618   0.00000  Uiso   1.00
C55    C     0.85301   0.69599   0.14357   0.00000  Uiso   1.00
C56    C     0.74622   0.32959   0.24585   0.00000  Uiso   1.00
C57    C     0.67460   0.29232   0.25672   0.00000  Uiso   1.00
C58    C     0.62463   0.21580   0.19161   0.00000  Uiso   1.00
C59    C     0.52295   0.09181   0.10480   0.00000  Uiso   1.00
C60    C     0.84823   0.34353   0.17397   0.00000  Uiso   1.00
C61    C     0.90596   0.35210   0.26016   0.00000  Uiso   1.00
C62    C     0.97279   0.32633   0.26870   0.00000  Uiso   1.00
C63    C     0.01797   0.33974   0.35325   0.00000  Uiso   1.00
C64    C     0.84510   0.43443   0.18170   0.00000  Uiso   1.00
C65    C     0.86075   0.47789   0.12426   0.00000  Uiso   1.00
C66    C     0.85470   0.56060   0.14274   0.00000  Uiso   1.00
C67    C     0.76718   0.29177   0.17255   0.00000  Uiso   1.00
C68    C     0.71730   0.21530   0.10741   0.00000  Uiso   1.00
C69    C     0.64562   0.17792   0.11817   0.00000  Uiso   1.00
H70    H     0.79332   0.44259   0.36600   0.00000  Uiso   1.00
H71    H     0.91385   0.43263   0.47473   0.00000  Uiso   1.00
H72    H     0.80183   0.58415   0.33030   0.00000  Uiso   1.00
H73    H     0.65840   0.32160   0.31345   0.00000  Uiso   1.00
H74    H     0.05675   0.40494   0.56295   0.00000  Uiso   1.00
H75    H     0.82051   0.72443   0.25840   0.00000  Uiso   1.00
H76    H     0.51806   0.17079   0.22287   0.00000  Uiso   1.00
H77    H     0.86454   0.31409   0.11690   0.00000  Uiso   1.00
H78    H     0.98899   0.29707   0.21196   0.00000  Uiso   1.00
H79    H     0.87696   0.44860   0.06753   0.00000  Uiso   1.00
H80    H     0.73354   0.18605   0.05069   0.00000  Uiso   1.00
H81    H     0.11773   0.29492   0.34968   0.00000  Uiso   1.00
H82    H     0.88149   0.61441   0.04513   0.00000  Uiso   1.00
H83    H     0.57905   0.06077   0.00960   0.00000  Uiso   1.00
O84    O     0.16783   0.34108   0.52335   0.00000  Uiso   1.00
O85    O     0.85788   0.76023   0.12378   0.00000  Uiso   1.00
O86    O     0.46109   0.03387   0.07717   0.00000  Uiso   1.00
N87    N     0.05401   0.38136   0.49971   0.00000  Uiso   1.00
N88    N     0.83316   0.68007   0.21498   0.00000  Uiso   1.00
N89    N     0.55039   0.16248   0.18175   0.00000  Uiso   1.00
N90    N     0.08683   0.32216   0.38495   0.00000  Uiso   1.00
N91    N     0.86597   0.62087   0.10022   0.00000  Uiso   1.00
N92    N     0.58320   0.10328   0.06699   0.00000  Uiso   1.00
C93    C     0.29710   0.80654   0.40983   0.00000  Uiso   1.00
C94    C     0.32350   0.88922   0.38861   0.00000  Uiso   1.00
C95    C     0.40080   0.93490   0.39937   0.00000  Uiso   1.00
C96    C     0.41270   0.00898   0.37615   0.00000  Uiso   1.00
C97    C     0.46331   0.13322   0.34823   0.00000  Uiso   1.00
C98    C     0.25085   0.82541   0.47413   0.00000  Uiso   1.00
C99    C     0.26706   0.81742   0.55678   0.00000  Uiso   1.00
C100   C     0.21779   0.83778   0.60555   0.00000  Uiso   1.00
C101   C     0.15558   0.86289   0.71036   0.00000  Uiso   1.00
C102   C     0.23723   0.73950   0.32540   0.00000  Uiso   1.00
C103   C     0.24197   0.65927   0.28302   0.00000  Uiso   1.00
C104   C     0.18122   0.60728   0.20658   0.00000  Uiso   1.00
C105   C     0.09786   0.49901   0.08049   0.00000  Uiso   1.00
C106   C     0.18077   0.85688   0.34946   0.00000  Uiso   1.00
C107   C     0.26031   0.91656   0.35582   0.00000  Uiso   1.00
C108   C     0.27210   0.99060   0.33258   0.00000  Uiso   1.00
C109   C     0.34940   0.03637   0.34330   0.00000  Uiso   1.00
C110   C     0.18767   0.85275   0.44134   0.00000  Uiso   1.00
C111   C     0.13836   0.87312   0.48999   0.00000  Uiso   1.00
C112   C     0.15450   0.86517   0.57270   0.00000  Uiso   1.00
C113   C     0.17404   0.76684   0.29261   0.00000  Uiso   1.00
C114   C     0.11327   0.71497   0.21623   0.00000  Uiso   1.00
C115   C     0.11792   0.63468   0.17374   0.00000  Uiso   1.00
H116   H     0.34628   0.78525   0.43536   0.00000  Uiso   1.00
H117   H     0.44968   0.91372   0.42475   0.00000  Uiso   1.00
H118   H     0.31595   0.79625   0.58214   0.00000  Uiso   1.00
H119   H     0.29087   0.63813   0.30842   0.00000  Uiso   1.00
H120   H     0.53645   0.06822   0.39856   0.00000  Uiso   1.00
H121   H     0.25447   0.82051   0.73040   0.00000  Uiso   1.00
H122   H     0.20157   0.48707   0.15321   0.00000  Uiso   1.00
H123   H     0.13158   0.87817   0.32394   0.00000  Uiso   1.00
H124   H     0.22319   0.01174   0.30721   0.00000  Uiso   1.00
H125   H     0.08947   0.89428   0.46459   0.00000  Uiso   1.00
H126   H     0.06438   0.73615   0.19087   0.00000  Uiso   1.00
H127   H     0.35262   0.14778   0.30316   0.00000  Uiso   1.00
H128   H     0.07064   0.90007   0.63500   0.00000  Uiso   1.00
H129   H     0.01775   0.56663   0.05781   0.00000  Uiso   1.00
O130   O     0.50868   0.19421   0.34189   0.00000  Uiso   1.00
O131   O     0.13873   0.86920   0.77724   0.00000  Uiso   1.00
O132   O     0.06933   0.43174   0.01998   0.00000  Uiso   1.00
N133   N     0.48061   0.06861   0.37838   0.00000  Uiso   1.00
N134   N     0.21699   0.83703   0.68864   0.00000  Uiso   1.00
N135   N     0.16752   0.52528   0.14903   0.00000  Uiso   1.00
N136   N     0.38170   0.11142   0.32705   0.00000  Uiso   1.00
N137   N     0.11807   0.87984   0.63731   0.00000  Uiso   1.00
N138   N     0.06861   0.56809   0.09769   0.00000  Uiso   1.00
C139   C     0.59936   0.69798   0.19575   0.00000  Uiso   1.00
C140   C     0.61601   0.66767   0.10888   0.00000  Uiso   1.00
C141   C     0.60134   0.58228   0.05899   0.00000  Uiso   1.00
C142   C     0.62071   0.56799   0.98151   0.00000  Uiso   1.00
C143   C     0.64152   0.51048   0.85064   0.00000  Uiso   1.00
C144   C     0.54582   0.75296   0.18301   0.00000  Uiso   1.00
C145   C     0.47215   0.73928   0.19546   0.00000  Uiso   1.00
C146   C     0.43244   0.79680   0.18039   0.00000  Uiso   1.00
C147   C     0.34430   0.87173   0.16467   0.00000  Uiso   1.00
C148   C     0.67770   0.75998   0.26184   0.00000  Uiso   1.00
C149   C     0.71492   0.75223   0.34060   0.00000  Uiso   1.00
C150   C     0.78624   0.81567   0.39192   0.00000  Uiso   1.00
C151   C     0.90288   0.90150   0.49860   0.00000  Uiso   1.00
C152   C     0.65984   0.82444   0.14685   0.00000  Uiso   1.00
C153   C     0.64885   0.73636   0.08232   0.00000  Uiso   1.00
C154   C     0.66825   0.72220   0.00489   0.00000  Uiso   1.00
C155   C     0.65362   0.63680   0.95490   0.00000  Uiso   1.00
C156   C     0.57866   0.82164   0.15645   0.00000  Uiso   1.00
C157   C     0.53906   0.87920   0.14136   0.00000  Uiso   1.00
C158   C     0.46534   0.86561   0.15378   0.00000  Uiso   1.00
C159   C     0.71056   0.82867   0.23528   0.00000  Uiso   1.00
C160   C     0.78183   0.89214   0.28649   0.00000  Uiso   1.00
C161   C     0.81915   0.88448   0.36531   0.00000  Uiso   1.00
H162   H     0.57379   0.64451   0.21643   0.00000  Uiso   1.00
H163   H     0.57591   0.52914   0.07957   0.00000  Uiso   1.00
H164   H     0.44674   0.68613   0.21603   0.00000  Uiso   1.00
H165   H     0.68948   0.69907   0.36113   0.00000  Uiso   1.00
H166   H     0.59273   0.43153   0.91610   0.00000  Uiso   1.00
H167   H     0.32038   0.76256   0.20386   0.00000  Uiso   1.00
H168   H     0.83224   0.78984   0.50985   0.00000  Uiso   1.00
H169   H     0.68542   0.87792   0.12617   0.00000  Uiso   1.00
H170   H     0.69367   0.77536   0.98435   0.00000  Uiso   1.00
H171   H     0.56450   0.93235   0.12081   0.00000  Uiso   1.00
H172   H     0.80724   0.94528   0.26591   0.00000  Uiso   1.00
H173   H     0.68831   0.63137   0.83882   0.00000  Uiso   1.00
H174   H     0.41596   0.96240   0.12658   0.00000  Uiso   1.00
H175   H     0.92781   0.98968   0.43257   0.00000  Uiso   1.00
O176   O     0.64391   0.45978   0.78579   0.00000  Uiso   1.00
O177   O     0.28661   0.89407   0.16333   0.00000  Uiso   1.00
O178   O     0.95815   0.92987   0.56478   0.00000  Uiso   1.00
N179   N     0.61411   0.49264   0.91739   0.00000  Uiso   1.00
N180   N     0.35947   0.80212   0.18641   0.00000  Uiso   1.00
N181   N     0.83800   0.82764   0.47250   0.00000  Uiso   1.00
N182   N     0.66554   0.60017   0.87580   0.00000  Uiso   1.00
N183   N     0.41090   0.90965   0.14482   0.00000  Uiso   1.00
N184   N     0.88943   0.93517   0.43091   0.00000  Uiso   1.00
C185   C     0.19036   0.58685   0.69106   0.00000  Uiso   1.00
C186   C     0.11500   0.61009   0.66653   0.00000  Uiso   1.00
C187   C     0.06991   0.59664   0.58198   0.00000  Uiso   1.00
C188   C     0.00303   0.62238   0.57331   0.00000  Uiso   1.00
C189   C     0.88918   0.65267   0.52407   0.00000  Uiso   1.00
C190   C     0.17586   0.52776   0.74500   0.00000  Uiso   1.00
C191   C     0.18194   0.44509   0.72643   0.00000  Uiso   1.00
C192   C     0.16630   0.40152   0.78382   0.00000  Uiso   1.00
C193   C     0.14699   0.30401   0.85643   0.00000  Uiso   1.00
C194   C     0.25378   0.67041   0.75415   0.00000  Uiso   1.00
C195   C     0.32540   0.70768   0.74328   0.00000  Uiso   1.00
C196   C     0.37537   0.78420   0.80839   0.00000  Uiso   1.00
C197   C     0.47705   0.90818   0.89520   0.00000  Uiso   1.00
C198   C     0.15177   0.65647   0.82603   0.00000  Uiso   1.00
C199   C     0.09404   0.64790   0.73984   0.00000  Uiso   1.00
C200   C     0.02721   0.67367   0.73130   0.00000  Uiso   1.00
C201   C     0.98203   0.66026   0.64675   0.00000  Uiso   1.00
C202   C     0.15490   0.56557   0.81830   0.00000  Uiso   1.00
C203   C     0.13925   0.52211   0.87574   0.00000  Uiso   1.00
C204   C     0.14530   0.43940   0.85726   0.00000  Uiso   1.00
C205   C     0.23282   0.70823   0.82745   0.00000  Uiso   1.00
C206   C     0.28270   0.78470   0.89259   0.00000  Uiso   1.00
C207   C     0.35438   0.82208   0.88183   0.00000  Uiso   1.00
H208   H     0.20668   0.55741   0.63400   0.00000  Uiso   1.00
H209   H     0.08615   0.56737   0.52527   0.00000  Uiso   1.00
H210   H     0.19817   0.41585   0.66970   0.00000  Uiso   1.00
H211   H     0.34160   0.67840   0.68655   0.00000  Uiso   1.00
H212   H     0.94325   0.59506   0.43705   0.00000  Uiso   1.00
H213   H     0.17949   0.27557   0.74160   0.00000  Uiso   1.00
H214   H     0.48194   0.82921   0.77713   0.00000  Uiso   1.00
H215   H     0.13546   0.68591   0.88310   0.00000  Uiso   1.00
H216   H     0.01101   0.70293   0.78804   0.00000  Uiso   1.00
H217   H     0.12304   0.55140   0.93246   0.00000  Uiso   1.00
H218   H     0.26646   0.81395   0.94931   0.00000  Uiso   1.00
H219   H     0.88227   0.70508   0.65032   0.00000  Uiso   1.00
H220   H     0.11851   0.38559   0.95487   0.00000  Uiso   1.00
H221   H     0.42095   0.93923   0.99040   0.00000  Uiso   1.00
O222   O     0.83217   0.65892   0.47665   0.00000  Uiso   1.00
O223   O     0.14212   0.23977   0.87622   0.00000  Uiso   1.00
O224   O     0.53891   0.96613   0.92283   0.00000  Uiso   1.00
N225   N     0.94599   0.61864   0.50029   0.00000  Uiso   1.00
N226   N     0.16684   0.31993   0.78502   0.00000  Uiso   1.00
N227   N     0.44961   0.83752   0.81825   0.00000  Uiso   1.00
N228   N     0.91317   0.67784   0.61505   0.00000  Uiso   1.00
N229   N     0.13403   0.37913   0.89978   0.00000  Uiso   1.00
N230   N     0.41680   0.89672   0.93301   0.00000  Uiso   1.00
C231   C     0.70291   0.19346   0.59017   0.00000  Uiso   1.00
C232   C     0.67650   0.11078   0.61139   0.00000  Uiso   1.00
C233   C     0.59920   0.06510   0.60063   0.00000  Uiso   1.00
C234   C     0.58730   0.99102   0.62385   0.00000  Uiso   1.00
C235   C     0.53669   0.86678   0.65177   0.00000  Uiso   1.00
C236   C     0.74915   0.17459   0.52587   0.00000  Uiso   1.00
C237   C     0.73294   0.18258   0.44322   0.00000  Uiso   1.00
C238   C     0.78221   0.16222   0.39445   0.00000  Uiso   1.00
C239   C     0.84442   0.13711   0.28964   0.00000  Uiso   1.00
C240   C     0.76278   0.26050   0.67460   0.00000  Uiso   1.00
C241   C     0.75803   0.34073   0.71698   0.00000  Uiso   1.00
C242   C     0.81878   0.39272   0.79341   0.00000  Uiso   1.00
C243   C     0.90214   0.50099   0.91951   0.00000  Uiso   1.00
C244   C     0.81923   0.14311   0.65054   0.00000  Uiso   1.00
C245   C     0.73969   0.08344   0.64418   0.00000  Uiso   1.00
C246   C     0.72790   0.00940   0.66742   0.00000  Uiso   1.00
C247   C     0.65060   0.96363   0.65670   0.00000  Uiso   1.00
C248   C     0.81233   0.14725   0.55866   0.00000  Uiso   1.00
C249   C     0.86164   0.12688   0.51001   0.00000  Uiso   1.00
C250   C     0.84550   0.13483   0.42730   0.00000  Uiso   1.00
C251   C     0.82596   0.23316   0.70739   0.00000  Uiso   1.00
C252   C     0.88673   0.28503   0.78377   0.00000  Uiso   1.00
C253   C     0.88208   0.36532   0.82626   0.00000  Uiso   1.00
H254   H     0.65372   0.21475   0.56463   0.00000  Uiso   1.00
H255   H     0.55032   0.08628   0.57525   0.00000  Uiso   1.00
H256   H     0.68405   0.20375   0.41786   0.00000  Uiso   1.00
H257   H     0.70913   0.36187   0.69158   0.00000  Uiso   1.00
H258   H     0.46355   0.93178   0.60144   0.00000  Uiso   1.00
H259   H     0.74553   0.17949   0.26960   0.00000  Uiso   1.00
H260   H     0.79843   0.51293   0.84679   0.00000  Uiso   1.00
H261   H     0.86842   0.12183   0.67606   0.00000  Uiso   1.00
H262   H     0.77681   0.98826   0.69279   0.00000  Uiso   1.00
H263   H     0.91053   0.10572   0.53541   0.00000  Uiso   1.00
H264   H     0.93562   0.26385   0.80913   0.00000  Uiso   1.00
H265   H     0.64738   0.85222   0.69684   0.00000  Uiso   1.00
H266   H     0.92936   0.09993   0.36500   0.00000  Uiso   1.00
H267   H     0.98225   0.43337   0.94219   0.00000  Uiso   1.00
O268   O     0.49132   0.80579   0.65811   0.00000  Uiso   1.00
O269   O     0.86127   0.13080   0.22276   0.00000  Uiso   1.00
O270   O     0.93067   0.56826   0.98002   0.00000  Uiso   1.00
N271   N     0.51939   0.93139   0.62161   0.00000  Uiso   1.00
N272   N     0.78301   0.16297   0.31136   0.00000  Uiso   1.00
N273   N     0.83248   0.47472   0.85097   0.00000  Uiso   1.00
N274   N     0.61830   0.88858   0.67295   0.00000  Uiso   1.00
N275   N     0.88193   0.12016   0.36269   0.00000  Uiso   1.00
N276   N     0.93139   0.43191   0.90231   0.00000  Uiso   1.00
