data_job_06989
_audit_creation_date              2018-12-19
_audit_creation_method            'Materials Studio'
_symmetry_space_group_name_H-M    'P1'
_symmetry_Int_Tables_number       1
_symmetry_cell_setting            triclinic
loop_
_symmetry_equiv_pos_as_xyz
  x,y,z
_cell_length_a                    22.1047
_cell_length_b                    22.2838
_cell_length_c                    22.2415
_cell_angle_alpha                 66.3737
_cell_angle_beta                  71.5936
_cell_angle_gamma                 71.4200
loop_
_atom_site_label
_atom_site_type_symbol
_atom_site_fract_x
_atom_site_fract_y
_atom_site_fract_z
_atom_site_U_iso_or_equiv
_atom_site_adp_type
_atom_site_occupancy
C1     C     0.50869   0.16099   0.56059   0.00000  Uiso   1.00
C2     C     0.49991   0.21620   0.58860   0.00000  Uiso   1.00
C3     C     0.47599   0.21230   0.65543   0.00000  Uiso   1.00
C4     C     0.47169   0.26822   0.67090   0.00000  Uiso   1.00
C5     C     0.45515   0.34518   0.72194   0.00000  Uiso   1.00
C6     C     0.46968   0.19227   0.50559   0.00000  Uiso   1.00
C7     C     0.42034   0.16824   0.50263   0.00000  Uiso   1.00
C8     C     0.39060   0.20400   0.44821   0.00000  Uiso   1.00
C9     C     0.32715   0.24378   0.37035   0.00000  Uiso   1.00
C10    C     0.58038   0.14731   0.52496   0.00000  Uiso   1.00
C11    C     0.62413   0.08548   0.53827   0.00000  Uiso   1.00
C12    C     0.68759   0.08339   0.50014   0.00000  Uiso   1.00
C13    C     0.79603   0.05337   0.45236   0.00000  Uiso   1.00
C14    C     0.54359   0.26723   0.46922   0.00000  Uiso   1.00
C15    C     0.51887   0.27391   0.53897   0.00000  Uiso   1.00
C16    C     0.51461   0.32984   0.55434   0.00000  Uiso   1.00
C17    C     0.49069   0.32603   0.62118   0.00000  Uiso   1.00
C18    C     0.48863   0.24997   0.45597   0.00000  Uiso   1.00
C19    C     0.45896   0.28578   0.40154   0.00000  Uiso   1.00
C20    C     0.40959   0.26182   0.39849   0.00000  Uiso   1.00
C21    C     0.59934   0.20502   0.47533   0.00000  Uiso   1.00
C22    C     0.66275   0.20302   0.43718   0.00000  Uiso   1.00
C23    C     0.70658   0.14120   0.45042   0.00000  Uiso   1.00
H24    H     0.49392   0.11606   0.59923   0.00000  Uiso   1.00
H25    H     0.46132   0.16763   0.69383   0.00000  Uiso   1.00
H26    H     0.40569   0.12357   0.54104   0.00000  Uiso   1.00
H27    H     0.60944   0.04083   0.57668   0.00000  Uiso   1.00
H28    H     0.43351   0.25027   0.77681   0.00000  Uiso   1.00
H29    H     0.31622   0.15735   0.45464   0.00000  Uiso   1.00
H30    H     0.74588   0.98287   0.52979   0.00000  Uiso   1.00
H31    H     0.55835   0.31216   0.43058   0.00000  Uiso   1.00
H32    H     0.52928   0.37449   0.51593   0.00000  Uiso   1.00
H33    H     0.47365   0.33043   0.36314   0.00000  Uiso   1.00
H34    H     0.67740   0.24769   0.39878   0.00000  Uiso   1.00
H35    H     0.48867   0.41817   0.63242   0.00000  Uiso   1.00
H36    H     0.37138   0.32525   0.31025   0.00000  Uiso   1.00
H37    H     0.80103   0.15077   0.38540   0.00000  Uiso   1.00
O38    O     0.44078   0.37169   0.76380   0.00000  Uiso   1.00
O39    O     0.28691   0.24978   0.34112   0.00000  Uiso   1.00
O40    O     0.85061   0.02087   0.43971   0.00000  Uiso   1.00
N41    N     0.45049   0.28123   0.73112   0.00000  Uiso   1.00
N42    N     0.34083   0.19436   0.42992   0.00000  Uiso   1.00
N43    N     0.74251   0.03123   0.50016   0.00000  Uiso   1.00
N44    N     0.48017   0.37157   0.65343   0.00000  Uiso   1.00
N45    N     0.37051   0.28470   0.35222   0.00000  Uiso   1.00
N46    N     0.77219   0.12157   0.42246   0.00000  Uiso   1.00
C47    C     0.63799   0.54361   0.16475   0.00000  Uiso   1.00
C48    C     0.65917   0.50968   0.23178   0.00000  Uiso   1.00
C49    C     0.72107   0.50055   0.24118   0.00000  Uiso   1.00
C50    C     0.73064   0.46833   0.30641   0.00000  Uiso   1.00
C51    C     0.77122   0.41901   0.40230   0.00000  Uiso   1.00
C52    C     0.61170   0.49254   0.15643   0.00000  Uiso   1.00
C53    C     0.63368   0.46900   0.10245   0.00000  Uiso   1.00
C54    C     0.60328   0.42237   0.10425   0.00000  Uiso   1.00
C55    C     0.57014   0.34647   0.08312   0.00000  Uiso   1.00
C56    C     0.57932   0.60053   0.17399   0.00000  Uiso   1.00
C57    C     0.57407   0.66779   0.13478   0.00000  Uiso   1.00
C58    C     0.51640   0.71207   0.15136   0.00000  Uiso   1.00
C59    C     0.43298   0.80384   0.15750   0.00000  Uiso   1.00
C60    C     0.54492   0.50264   0.26391   0.00000  Uiso   1.00
C61    C     0.60862   0.48743   0.28564   0.00000  Uiso   1.00
C62    C     0.61809   0.45522   0.35088   0.00000  Uiso   1.00
C63    C     0.67999   0.44604   0.36037   0.00000  Uiso   1.00
C64    C     0.56115   0.47029   0.21028   0.00000  Uiso   1.00
C65    C     0.53071   0.42368   0.21216   0.00000  Uiso   1.00
C66    C     0.55264   0.40008   0.15821   0.00000  Uiso   1.00
C67    C     0.52877   0.57828   0.22785   0.00000  Uiso   1.00
C68    C     0.47110   0.62246   0.24449   0.00000  Uiso   1.00
C69    C     0.46576   0.68978   0.20531   0.00000  Uiso   1.00
H70    H     0.67735   0.56093   0.12282   0.00000  Uiso   1.00
H71    H     0.76018   0.51777   0.19948   0.00000  Uiso   1.00
H72    H     0.67280   0.48624   0.06078   0.00000  Uiso   1.00
H73    H     0.61320   0.68499   0.09310   0.00000  Uiso   1.00
H74    H     0.82972   0.46008   0.30822   0.00000  Uiso   1.00
H75    H     0.64546   0.39361   0.01575   0.00000  Uiso   1.00
H76    H     0.51978   0.81273   0.08391   0.00000  Uiso   1.00
H77    H     0.50556   0.48532   0.30584   0.00000  Uiso   1.00
H78    H     0.57897   0.43801   0.39255   0.00000  Uiso   1.00
H79    H     0.49159   0.40647   0.25385   0.00000  Uiso   1.00
H80    H     0.43199   0.60523   0.28617   0.00000  Uiso   1.00
H81    H     0.68264   0.39534   0.46493   0.00000  Uiso   1.00
H82    H     0.49838   0.32887   0.17245   0.00000  Uiso   1.00
H83    H     0.37271   0.74798   0.24062   0.00000  Uiso   1.00
O84    O     0.80758   0.39793   0.44031   0.00000  Uiso   1.00
O85    O     0.56583   0.31074   0.05659   0.00000  Uiso   1.00
O86    O     0.40094   0.86060   0.14602   0.00000  Uiso   1.00
N87    N     0.78503   0.45135   0.33321   0.00000  Uiso   1.00
N88    N     0.61277   0.38920   0.05976   0.00000  Uiso   1.00
N89    N     0.49526   0.78103   0.12348   0.00000  Uiso   1.00
N90    N     0.70589   0.41651   0.41753   0.00000  Uiso   1.00
N91    N     0.53362   0.35436   0.14409   0.00000  Uiso   1.00
N92    N     0.41612   0.74619   0.20780   0.00000  Uiso   1.00
C93    C     0.10774   0.65343   0.50488   0.00000  Uiso   1.00
C94    C     0.18025   0.64094   0.50264   0.00000  Uiso   1.00
C95    C     0.21476   0.69007   0.48440   0.00000  Uiso   1.00
C96    C     0.28077   0.66838   0.48558   0.00000  Uiso   1.00
C97    C     0.38875   0.65939   0.47923   0.00000  Uiso   1.00
C98    C     0.10376   0.61922   0.45945   0.00000  Uiso   1.00
C99    C     0.07395   0.65009   0.40491   0.00000  Uiso   1.00
C100   C     0.07556   0.61011   0.36973   0.00000  Uiso   1.00
C101   C     0.06475   0.56739   0.29636   0.00000  Uiso   1.00
C102   C     0.07748   0.61386   0.57618   0.00000  Uiso   1.00
C103   C     0.02557   0.64021   0.61978   0.00000  Uiso   1.00
C104   C     0.00504   0.59571   0.68288   0.00000  Uiso   1.00
C105   C     0.95343   0.54467   0.79074   0.00000  Uiso   1.00
C106   C     0.16358   0.52755   0.53941   0.00000  Uiso   1.00
C107   C     0.21058   0.57257   0.52140   0.00000  Uiso   1.00
C108   C     0.27655   0.55079   0.52261   0.00000  Uiso   1.00
C109   C     0.31115   0.59988   0.50437   0.00000  Uiso   1.00
C110   C     0.13409   0.55085   0.47821   0.00000  Uiso   1.00
C111   C     0.13574   0.51081   0.44311   0.00000  Uiso   1.00
C112   C     0.10595   0.54161   0.38852   0.00000  Uiso   1.00
C113   C     0.10781   0.54548   0.59494   0.00000  Uiso   1.00
C114   C     0.08736   0.50094   0.65798   0.00000  Uiso   1.00
C115   C     0.03543   0.52721   0.70166   0.00000  Uiso   1.00
H116   H     0.08412   0.70666   0.49027   0.00000  Uiso   1.00
H117   H     0.19127   0.74298   0.46989   0.00000  Uiso   1.00
H118   H     0.05048   0.70300   0.39041   0.00000  Uiso   1.00
H119   H     0.00211   0.69312   0.60525   0.00000  Uiso   1.00
H120   H     0.32345   0.75309   0.45553   0.00000  Uiso   1.00
H121   H     0.02656   0.66879   0.28797   0.00000  Uiso   1.00
H122   H     0.92455   0.64796   0.74099   0.00000  Uiso   1.00
H123   H     0.18720   0.47431   0.55401   0.00000  Uiso   1.00
H124   H     0.30001   0.49788   0.53712   0.00000  Uiso   1.00
H125   H     0.15921   0.45790   0.45764   0.00000  Uiso   1.00
H126   H     0.11084   0.44803   0.67248   0.00000  Uiso   1.00
H127   H     0.41170   0.55416   0.51010   0.00000  Uiso   1.00
H128   H     0.11481   0.46986   0.34253   0.00000  Uiso   1.00
H129   H     0.01281   0.44903   0.79556   0.00000  Uiso   1.00
O130   O     0.43993   0.67332   0.47054   0.00000  Uiso   1.00
O131   O     0.05042   0.56272   0.25070   0.00000  Uiso   1.00
O132   O     0.91659   0.53540   0.84506   0.00000  Uiso   1.00
N133   N     0.32873   0.70303   0.47071   0.00000  Uiso   1.00
N134   N     0.05117   0.62422   0.31403   0.00000  Uiso   1.00
N135   N     0.95579   0.60475   0.73757   0.00000  Uiso   1.00
N136   N     0.37622   0.59599   0.50007   0.00000  Uiso   1.00
N137   N     0.09866   0.51718   0.34340   0.00000  Uiso   1.00
N138   N     0.00328   0.49771   0.76693   0.00000  Uiso   1.00
C139   C     0.94329   0.06639   0.53484   0.00000  Uiso   1.00
C140   C     0.88650   0.12033   0.55452   0.00000  Uiso   1.00
C141   C     0.84627   0.16928   0.51301   0.00000  Uiso   1.00
C142   C     0.79705   0.21401   0.54046   0.00000  Uiso   1.00
C143   C     0.71016   0.29838   0.56090   0.00000  Uiso   1.00
C144   C     0.92921   0.99934   0.58554   0.00000  Uiso   1.00
C145   C     0.92491   0.94654   0.57012   0.00000  Uiso   1.00
C146   C     0.91165   0.88942   0.62369   0.00000  Uiso   1.00
C147   C     0.89112   0.78591   0.69230   0.00000  Uiso   1.00
C148   C     0.00326   0.07430   0.54845   0.00000  Uiso   1.00
C149   C     0.06123   0.08452   0.50185   0.00000  Uiso   1.00
C150   C     0.11031   0.09049   0.52420   0.00000  Uiso   1.00
C151   C     0.20476   0.10337   0.53522   0.00000  Uiso   1.00
C152   C     0.92740   0.05880   0.65741   0.00000  Uiso   1.00
C153   C     0.87787   0.11621   0.62109   0.00000  Uiso   1.00
C154   C     0.82869   0.16088   0.64862   0.00000  Uiso   1.00
C155   C     0.78840   0.20988   0.60716   0.00000  Uiso   1.00
C156   C     0.92058   0.99521   0.65212   0.00000  Uiso   1.00
C157   C     0.90733   0.93815   0.70573   0.00000  Uiso   1.00
C158   C     0.90300   0.88529   0.69039   0.00000  Uiso   1.00
C159   C     0.99463   0.07018   0.61503   0.00000  Uiso   1.00
C160   C     0.04364   0.07612   0.63746   0.00000  Uiso   1.00
C161   C     0.10167   0.08635   0.59090   0.00000  Uiso   1.00
H162   H     0.95001   0.06960   0.48301   0.00000  Uiso   1.00
H163   H     0.85296   0.17245   0.46149   0.00000  Uiso   1.00
H164   H     0.93160   0.94975   0.51859   0.00000  Uiso   1.00
H165   H     0.06789   0.08770   0.45033   0.00000  Uiso   1.00
H166   H     0.74155   0.28464   0.46700   0.00000  Uiso   1.00
H167   H     0.90737   0.81506   0.58740   0.00000  Uiso   1.00
H168   H     0.19477   0.10596   0.44346   0.00000  Uiso   1.00
H169   H     0.92068   0.05559   0.70925   0.00000  Uiso   1.00
H170   H     0.82202   0.15768   0.70014   0.00000  Uiso   1.00
H171   H     0.90066   0.93497   0.75724   0.00000  Uiso   1.00
H172   H     0.03695   0.07293   0.68898   0.00000  Uiso   1.00
H173   H     0.71644   0.27265   0.66070   0.00000  Uiso   1.00
H174   H     0.88226   0.80307   0.78110   0.00000  Uiso   1.00
H175   H     0.16966   0.09397   0.63716   0.00000  Uiso   1.00
O176   O     0.66461   0.34604   0.55378   0.00000  Uiso   1.00
O177   O     0.88217   0.72996   0.71175   0.00000  Uiso   1.00
O178   O     0.25923   0.11163   0.52290   0.00000  Uiso   1.00
N179   N     0.74919   0.26782   0.51383   0.00000  Uiso   1.00
N180   N     0.90421   0.82879   0.62640   0.00000  Uiso   1.00
N181   N     0.17291   0.10074   0.49183   0.00000  Uiso   1.00
N182   N     0.73568   0.26137   0.61806   0.00000  Uiso   1.00
N183   N     0.89070   0.82234   0.73063   0.00000  Uiso   1.00
N184   N     0.15940   0.09429   0.59606   0.00000  Uiso   1.00
C185   C     0.00468   0.70144   0.92446   0.00000  Uiso   1.00
C186   C     0.03574   0.75533   0.86557   0.00000  Uiso   1.00
C187   C     0.09665   0.74434   0.82352   0.00000  Uiso   1.00
C188   C     0.11627   0.80026   0.77254   0.00000  Uiso   1.00
C189   C     0.17055   0.87410   0.68238   0.00000  Uiso   1.00
C190   C     0.93899   0.70782   0.91106   0.00000  Uiso   1.00
C191   C     0.91856   0.65690   0.90727   0.00000  Uiso   1.00
C192   C     0.85673   0.67283   0.89458   0.00000  Uiso   1.00
C193   C     0.76078   0.67291   0.87510   0.00000  Uiso   1.00
C194   C     0.98895   0.72261   0.98594   0.00000  Uiso   1.00
C195   C     0.01051   0.68411   0.04512   0.00000  Uiso   1.00
C196   C     0.99073   0.71248   0.09548   0.00000  Uiso   1.00
C197   C     0.97237   0.73552   0.19225   0.00000  Uiso   1.00
C198   C     0.93119   0.82027   0.90869   0.00000  Uiso   1.00
C199   C     0.99582   0.81987   0.85701   0.00000  Uiso   1.00
C200   C     0.01535   0.87581   0.80607   0.00000  Uiso   1.00
C201   C     0.07628   0.86491   0.76396   0.00000  Uiso   1.00
C202   C     0.89907   0.77236   0.90249   0.00000  Uiso   1.00
C203   C     0.83725   0.78837   0.88982   0.00000  Uiso   1.00
C204   C     0.81674   0.73748   0.88600   0.00000  Uiso   1.00
C205   C     0.94903   0.78715   0.97737   0.00000  Uiso   1.00
C206   C     0.92921   0.81558   0.02766   0.00000  Uiso   1.00
C207   C     0.95075   0.77714   0.08690   0.00000  Uiso   1.00
H208   H     0.03575   0.65119   0.93113   0.00000  Uiso   1.00
H209   H     0.12752   0.69439   0.83017   0.00000  Uiso   1.00
H210   H     0.94946   0.60696   0.91391   0.00000  Uiso   1.00
H211   H     0.04140   0.63417   0.05173   0.00000  Uiso   1.00
H212   H     0.21166   0.77073   0.71443   0.00000  Uiso   1.00
H213   H     0.83618   0.58638   0.89103   0.00000  Uiso   1.00
H214   H     0.03007   0.64375   0.18165   0.00000  Uiso   1.00
H215   H     0.90011   0.87052   0.90202   0.00000  Uiso   1.00
H216   H     0.98445   0.92575   0.79946   0.00000  Uiso   1.00
H217   H     0.80638   0.83832   0.88319   0.00000  Uiso   1.00
H218   H     0.89832   0.86553   0.02101   0.00000  Uiso   1.00
H219   H     0.09553   0.95852   0.68951   0.00000  Uiso   1.00
H220   H     0.72005   0.77416   0.86610   0.00000  Uiso   1.00
H221   H     0.91394   0.83154   0.15672   0.00000  Uiso   1.00
O222   O     0.21151   0.89700   0.63501   0.00000  Uiso   1.00
O223   O     0.71890   0.65512   0.86671   0.00000  Uiso   1.00
O224   O     0.97327   0.73040   0.24800   0.00000  Uiso   1.00
N225   N     0.17276   0.80735   0.72265   0.00000  Uiso   1.00
N226   N     0.82172   0.63499   0.88774   0.00000  Uiso   1.00
N227   N     0.00297   0.68862   0.15946   0.00000  Uiso   1.00
N228   N     0.11027   0.90840   0.70924   0.00000  Uiso   1.00
N229   N     0.75923   0.73604   0.87433   0.00000  Uiso   1.00
N230   N     0.94048   0.78967   0.14605   0.00000  Uiso   1.00
C231   C     0.76239   0.05125   0.97774   0.00000  Uiso   1.00
C232   C     0.83649   0.03452   0.96868   0.00000  Uiso   1.00
C233   C     0.87052   0.00240   0.02000   0.00000  Uiso   1.00
C234   C     0.93821   0.99169   0.00132   0.00000  Uiso   1.00
C235   C     0.04835   0.96253   0.99753   0.00000  Uiso   1.00
C236   C     0.74873   0.01851   0.93635   0.00000  Uiso   1.00
C237   C     0.70897   0.97293   0.96050   0.00000  Uiso   1.00
C238   C     0.70277   0.94874   0.91460   0.00000  Uiso   1.00
C239   C     0.67662   0.89476   0.86061   0.00000  Uiso   1.00
C240   C     0.74284   0.12683   0.94290   0.00000  Uiso   1.00
C241   C     0.69812   0.17234   0.97256   0.00000  Uiso   1.00
C242   C     0.68695   0.23935   0.93217   0.00000  Uiso   1.00
C243   C     0.65166   0.35356   0.88836   0.00000  Uiso   1.00
C244   C     0.82208   0.08935   0.85328   0.00000  Uiso   1.00
C245   C     0.86891   0.05521   0.90107   0.00000  Uiso   1.00
C246   C     0.93657   0.04455   0.88231   0.00000  Uiso   1.00
C247   C     0.97069   0.01242   0.93360   0.00000  Uiso   1.00
C248   C     0.78115   0.03920   0.86875   0.00000  Uiso   1.00
C249   C     0.77501   0.01508   0.82280   0.00000  Uiso   1.00
C250   C     0.73525   0.96947   0.84688   0.00000  Uiso   1.00
C251   C     0.77526   0.14753   0.87530   0.00000  Uiso   1.00
C252   C     0.76416   0.21448   0.83486   0.00000  Uiso   1.00
C253   C     0.71943   0.26008   0.86445   0.00000  Uiso   1.00
H254   H     0.73714   0.03514   0.03037   0.00000  Uiso   1.00
H255   H     0.84542   0.98639   0.07231   0.00000  Uiso   1.00
H256   H     0.68388   0.95693   0.01281   0.00000  Uiso   1.00
H257   H     0.67304   0.15630   0.02487   0.00000  Uiso   1.00
H258   H     0.97976   0.94144   0.08901   0.00000  Uiso   1.00
H259   H     0.63913   0.87934   0.96354   0.00000  Uiso   1.00
H260   H     0.61626   0.29976   0.98897   0.00000  Uiso   1.00
H261   H     0.84732   0.10546   0.80065   0.00000  Uiso   1.00
H262   H     0.96164   0.06057   0.82999   0.00000  Uiso   1.00
H263   H     0.80010   0.03110   0.77050   0.00000  Uiso   1.00
H264   H     0.78926   0.23048   0.78255   0.00000  Uiso   1.00
H265   H     0.07409   0.00164   0.89233   0.00000  Uiso   1.00
H266   H     0.73346   0.93954   0.76687   0.00000  Uiso   1.00
H267   H     0.71059   0.35997   0.79229   0.00000  Uiso   1.00
O268   O     0.10014   0.94072   0.01411   0.00000  Uiso   1.00
O269   O     0.65324   0.85925   0.84951   0.00000  Uiso   1.00
O270   O     0.62324   0.41084   0.88287   0.00000  Uiso   1.00
N271   N     0.98627   0.96178   0.03869   0.00000  Uiso   1.00
N272   N     0.66781   0.90371   0.92140   0.00000  Uiso   1.00
N273   N     0.64642   0.29677   0.94516   0.00000  Uiso   1.00
N274   N     0.03703   0.99418   0.93286   0.00000  Uiso   1.00
N275   N     0.71857   0.93611   0.81557   0.00000  Uiso   1.00
N276   N     0.69718   0.32917   0.83933   0.00000  Uiso   1.00
C277   C     0.59602   0.94135   0.24786   0.00000  Uiso   1.00
C278   C     0.61866   0.87901   0.22692   0.00000  Uiso   1.00
C279   C     0.66061   0.87373   0.16699   0.00000  Uiso   1.00
C280   C     0.67538   0.81241   0.15730   0.00000  Uiso   1.00
C281   C     0.71455   0.72383   0.11742   0.00000  Uiso   1.00
C282   C     0.61475   0.91956   0.31511   0.00000  Uiso   1.00
C283   C     0.65341   0.94839   0.32933   0.00000  Uiso   1.00
C284   C     0.66488   0.92120   0.39389   0.00000  Uiso   1.00
C285   C     0.69795   0.89560   0.49094   0.00000  Uiso   1.00
C286   C     0.52152   0.95728   0.26278   0.00000  Uiso   1.00
C287   C     0.48178   0.01782   0.23303   0.00000  Uiso   1.00
C288   C     0.41475   0.02239   0.25354   0.00000  Uiso   1.00
C289   C     0.30305   0.05535   0.26935   0.00000  Uiso   1.00
C290   C     0.54766   0.84183   0.33722   0.00000  Uiso   1.00
C291   C     0.59239   0.82496   0.27546   0.00000  Uiso   1.00
C292   C     0.60710   0.76363   0.26586   0.00000  Uiso   1.00
C293   C     0.64906   0.75826   0.20592   0.00000  Uiso   1.00
C294   C     0.58848   0.86551   0.36365   0.00000  Uiso   1.00
C295   C     0.59990   0.83828   0.42820   0.00000  Uiso   1.00
C296   C     0.63857   0.86705   0.44251   0.00000  Uiso   1.00
C297   C     0.49524   0.90322   0.31132   0.00000  Uiso   1.00
C298   C     0.42827   0.90770   0.33189   0.00000  Uiso   1.00
C299   C     0.38843   0.96824   0.30217   0.00000  Uiso   1.00
H300   H     0.61648   0.98343   0.21007   0.00000  Uiso   1.00
H301   H     0.68093   0.91558   0.12944   0.00000  Uiso   1.00
H302   H     0.67373   0.99022   0.29176   0.00000  Uiso   1.00
H303   H     0.50212   0.05964   0.19547   0.00000  Uiso   1.00
H304   H     0.74083   0.81650   0.06146   0.00000  Uiso   1.00
H305   H     0.72562   0.97390   0.40373   0.00000  Uiso   1.00
H306   H     0.36375   0.12028   0.20068   0.00000  Uiso   1.00
H307   H     0.52720   0.79974   0.37501   0.00000  Uiso   1.00
H308   H     0.58676   0.72180   0.30343   0.00000  Uiso   1.00
H309   H     0.57956   0.79645   0.46575   0.00000  Uiso   1.00
H310   H     0.40795   0.86586   0.36945   0.00000  Uiso   1.00
H311   H     0.66440   0.65922   0.20268   0.00000  Uiso   1.00
H312   H     0.64919   0.81663   0.54494   0.00000  Uiso   1.00
H313   H     0.28732   0.96301   0.34189   0.00000  Uiso   1.00
O314   O     0.74342   0.68990   0.08202   0.00000  Uiso   1.00
O315   O     0.72345   0.89641   0.53106   0.00000  Uiso   1.00
O316   O     0.24870   0.08846   0.26466   0.00000  Uiso   1.00
N317   N     0.71466   0.79018   0.10452   0.00000  Uiso   1.00
N318   N     0.70045   0.93734   0.42451   0.00000  Uiso   1.00
N319   N     0.36213   0.07420   0.23469   0.00000  Uiso   1.00
N320   N     0.67353   0.70556   0.18050   0.00000  Uiso   1.00
N321   N     0.65932   0.85271   0.50050   0.00000  Uiso   1.00
N322   N     0.32100   0.98957   0.31067   0.00000  Uiso   1.00
C323   C     0.45462   0.77788   0.76125   0.00000  Uiso   1.00
C324   C     0.44024   0.77779   0.69860   0.00000  Uiso   1.00
C325   C     0.38372   0.81278   0.67440   0.00000  Uiso   1.00
C326   C     0.37995   0.80614   0.61631   0.00000  Uiso   1.00
C327   C     0.34989   0.81214   0.52397   0.00000  Uiso   1.00
C328   C     0.51885   0.80061   0.73810   0.00000  Uiso   1.00
C329   C     0.52843   0.85478   0.74712   0.00000  Uiso   1.00
C330   C     0.59084   0.86734   0.72228   0.00000  Uiso   1.00
C331   C     0.68284   0.90874   0.69131   0.00000  Uiso   1.00
C332   C     0.46905   0.70453   0.80584   0.00000  Uiso   1.00
C333   C     0.43676   0.67791   0.87184   0.00000  Uiso   1.00
C334   C     0.45726   0.60958   0.90404   0.00000  Uiso   1.00
C335   C     0.47193   0.50180   0.97825   0.00000  Uiso   1.00
C336   C     0.54843   0.70387   0.70110   0.00000  Uiso   1.00
C337   C     0.49120   0.73759   0.66592   0.00000  Uiso   1.00
C338   C     0.48751   0.73089   0.60785   0.00000  Uiso   1.00
C339   C     0.43099   0.76586   0.58357   0.00000  Uiso   1.00
C340   C     0.56981   0.76041   0.70542   0.00000  Uiso   1.00
C341   C     0.63222   0.77289   0.68057   0.00000  Uiso   1.00
C342   C     0.64189   0.82707   0.68955   0.00000  Uiso   1.00
C343   C     0.52001   0.66432   0.77317   0.00000  Uiso   1.00
C344   C     0.54056   0.59602   0.80528   0.00000  Uiso   1.00
C345   C     0.50831   0.56931   0.87131   0.00000  Uiso   1.00
H346   H     0.41495   0.80918   0.78669   0.00000  Uiso   1.00
H347   H     0.34430   0.84389   0.69970   0.00000  Uiso   1.00
H348   H     0.48899   0.88587   0.77242   0.00000  Uiso   1.00
H349   H     0.39733   0.70903   0.89710   0.00000  Uiso   1.00
H350   H     0.28845   0.86466   0.58883   0.00000  Uiso   1.00
H351   H     0.59354   0.95318   0.74218   0.00000  Uiso   1.00
H352   H     0.40027   0.58027   0.00511   0.00000  Uiso   1.00
H353   H     0.58811   0.67257   0.67566   0.00000  Uiso   1.00
H354   H     0.52695   0.69978   0.58257   0.00000  Uiso   1.00
H355   H     0.67165   0.74177   0.65529   0.00000  Uiso   1.00
H356   H     0.57999   0.56493   0.77998   0.00000  Uiso   1.00
H357   H     0.43670   0.74770   0.49377   0.00000  Uiso   1.00
H358   H     0.74180   0.83622   0.64711   0.00000  Uiso   1.00
H359   H     0.54853   0.46332   0.91004   0.00000  Uiso   1.00
O360   O     0.31923   0.82656   0.48206   0.00000  Uiso   1.00
O361   O     0.71950   0.94269   0.68325   0.00000  Uiso   1.00
O362   O     0.46594   0.45345   0.02821   0.00000  Uiso   1.00
N363   N     0.33173   0.83339   0.57924   0.00000  Uiso   1.00
N364   N     0.61697   0.91615   0.72260   0.00000  Uiso   1.00
N365   N     0.43629   0.56753   0.96842   0.00000  Uiso   1.00
N366   N     0.41150   0.77045   0.52809   0.00000  Uiso   1.00
N367   N     0.69674   0.85322   0.67145   0.00000  Uiso   1.00
N368   N     0.51606   0.50459   0.91727   0.00000  Uiso   1.00
C369   C     0.82027   0.55748   0.43228   0.00000  Uiso   1.00
C370   C     0.74690   0.56093   0.45397   0.00000  Uiso   1.00
C371   C     0.71697   0.51017   0.50231   0.00000  Uiso   1.00
C372   C     0.64924   0.52315   0.51494   0.00000  Uiso   1.00
C373   C     0.54085   0.51917   0.55389   0.00000  Uiso   1.00
C374   C     0.83017   0.61693   0.44286   0.00000  Uiso   1.00
C375   C     0.87026   0.61325   0.48185   0.00000  Uiso   1.00
C376   C     0.87263   0.67337   0.48511   0.00000  Uiso   1.00
C377   C     0.89356   0.75632   0.50677   0.00000  Uiso   1.00
C378   C     0.83780   0.57222   0.35648   0.00000  Uiso   1.00
C379   C     0.88431   0.53095   0.32283   0.00000  Uiso   1.00
C380   C     0.89312   0.55343   0.25336   0.00000  Uiso   1.00
C381   C     0.92588   0.56697   0.14091   0.00000  Uiso   1.00
C382   C     0.75321   0.67078   0.36875   0.00000  Uiso   1.00
C383   C     0.71047   0.62248   0.41946   0.00000  Uiso   1.00
C384   C     0.64277   0.63553   0.43201   0.00000  Uiso   1.00
C385   C     0.61275   0.58480   0.48036   0.00000  Uiso   1.00
C386   C     0.79374   0.67847   0.40835   0.00000  Uiso   1.00
C387   C     0.79606   0.73861   0.41155   0.00000  Uiso   1.00
C388   C     0.83614   0.73502   0.45054   0.00000  Uiso   1.00
C389   C     0.80137   0.63376   0.32197   0.00000  Uiso   1.00
C390   C     0.81011   0.65631   0.25254   0.00000  Uiso   1.00
C391   C     0.85663   0.61509   0.21879   0.00000  Uiso   1.00
H392   H     0.84864   0.50957   0.45915   0.00000  Uiso   1.00
H393   H     0.74518   0.46255   0.52901   0.00000  Uiso   1.00
H394   H     0.89845   0.56562   0.50854   0.00000  Uiso   1.00
H395   H     0.91249   0.48333   0.34955   0.00000  Uiso   1.00
H396   H     0.61441   0.43758   0.59126   0.00000  Uiso   1.00
H397   H     0.93761   0.65490   0.54809   0.00000  Uiso   1.00
H398   H     0.96723   0.48138   0.21283   0.00000  Uiso   1.00
H399   H     0.72485   0.71870   0.34188   0.00000  Uiso   1.00
H400   H     0.61459   0.68317   0.40530   0.00000  Uiso   1.00
H401   H     0.76787   0.78623   0.38484   0.00000  Uiso   1.00
H402   H     0.78191   0.70394   0.22585   0.00000  Uiso   1.00
H403   H     0.50842   0.61664   0.49086   0.00000  Uiso   1.00
H404   H     0.83162   0.83396   0.44768   0.00000  Uiso   1.00
H405   H     0.86124   0.66044   0.11242   0.00000  Uiso   1.00
O406   O     0.49112   0.49997   0.58491   0.00000  Uiso   1.00
O407   O     0.91516   0.78508   0.52826   0.00000  Uiso   1.00
O408   O     0.95401   0.55743   0.08841   0.00000  Uiso   1.00
N409   N     0.60460   0.48460   0.55892   0.00000  Uiso   1.00
N410   N     0.90676   0.68777   0.51856   0.00000  Uiso   1.00
N411   N     0.93447   0.52556   0.20512   0.00000  Uiso   1.00
N412   N     0.54757   0.58095   0.50489   0.00000  Uiso   1.00
N413   N     0.84973   0.78412   0.46454   0.00000  Uiso   1.00
N414   N     0.87743   0.62191   0.15109   0.00000  Uiso   1.00
C415   C     0.05377   0.10377   0.15755   0.00000  Uiso   1.00
C416   C     0.06447   0.11885   0.08222   0.00000  Uiso   1.00
C417   C     0.10620   0.07723   0.04647   0.00000  Uiso   1.00
C418   C     0.10909   0.10012   0.97787   0.00000  Uiso   1.00
C419   C     0.13145   0.11408   0.86570   0.00000  Uiso   1.00
C420   C     0.06896   0.16228   0.16495   0.00000  Uiso   1.00
C421   C     0.11446   0.15716   0.19877   0.00000  Uiso   1.00
C422   C     0.12112   0.21660   0.19981   0.00000  Uiso   1.00
C423   C     0.15041   0.29798   0.21613   0.00000  Uiso   1.00
C424   C     0.98053   0.10875   0.18557   0.00000  Uiso   1.00
C425   C     0.95167   0.05864   0.23675   0.00000  Uiso   1.00
C426   C     0.88387   0.07302   0.25517   0.00000  Uiso   1.00
C427   C     0.77586   0.07129   0.30351   0.00000  Uiso   1.00
C428   C     0.98469   0.21842   0.09930   0.00000  Uiso   1.00
C429   C     0.02695   0.18113   0.05058   0.00000  Uiso   1.00
C430   C     0.02978   0.20408   0.98201   0.00000  Uiso   1.00
C431   C     0.07150   0.16250   0.94617   0.00000  Uiso   1.00
C432   C     0.03145   0.22455   0.13331   0.00000  Uiso   1.00
C433   C     0.03803   0.28401   0.13431   0.00000  Uiso   1.00
C434   C     0.08353   0.27899   0.16811   0.00000  Uiso   1.00
C435   C     0.94301   0.17103   0.15393   0.00000  Uiso   1.00
C436   C     0.87524   0.18549   0.17228   0.00000  Uiso   1.00
C437   C     0.84629   0.13541   0.22347   0.00000  Uiso   1.00
H438   H     0.08298   0.05529   0.18219   0.00000  Uiso   1.00
H439   H     0.13524   0.02905   0.07098   0.00000  Uiso   1.00
H440   H     0.14348   0.10897   0.22325   0.00000  Uiso   1.00
H441   H     0.98072   0.01046   0.26122   0.00000  Uiso   1.00
H442   H     0.17664   0.02743   0.93372   0.00000  Uiso   1.00
H443   H     0.19402   0.19593   0.25482   0.00000  Uiso   1.00
H444   H     0.85080   0.98822   0.33489   0.00000  Uiso   1.00
H445   H     0.95548   0.26690   0.07466   0.00000  Uiso   1.00
H446   H     0.00074   0.25227   0.95754   0.00000  Uiso   1.00
H447   H     0.00899   0.33219   0.10982   0.00000  Uiso   1.00
H448   H     0.84623   0.23368   0.14779   0.00000  Uiso   1.00
H449   H     0.06749   0.20860   0.84164   0.00000  Uiso   1.00
H450   H     0.08486   0.37711   0.16275   0.00000  Uiso   1.00
H451   H     0.74164   0.16939   0.24282   0.00000  Uiso   1.00
O452   O     0.15416   0.10458   0.81257   0.00000  Uiso   1.00
O453   O     0.17694   0.32565   0.23386   0.00000  Uiso   1.00
O454   O     0.72665   0.05313   0.33890   0.00000  Uiso   1.00
N455   N     0.14473   0.07207   0.92812   0.00000  Uiso   1.00
N456   N     0.16098   0.22961   0.22833   0.00000  Uiso   1.00
N457   N     0.84010   0.03542   0.30319   0.00000  Uiso   1.00
N458   N     0.08599   0.16956   0.87858   0.00000  Uiso   1.00
N459   N     0.10225   0.32710   0.17878   0.00000  Uiso   1.00
N460   N     0.78137   0.13291   0.25365   0.00000  Uiso   1.00
C461   C     0.80873   0.41933   0.97449   0.00000  Uiso   1.00
C462   C     0.80800   0.34538   0.99594   0.00000  Uiso   1.00
C463   C     0.76567   0.31158   0.05091   0.00000  Uiso   1.00
C464   C     0.77289   0.24400   0.06205   0.00000  Uiso   1.00
C465   C     0.76450   0.13412   0.10182   0.00000  Uiso   1.00
C466   C     0.87786   0.42102   0.97222   0.00000  Uiso   1.00
C467   C     0.89427   0.45082   0.00724   0.00000  Uiso   1.00
C468   C     0.96029   0.44692   0.99841   0.00000  Uiso   1.00
C469   C     0.06036   0.45451   0.00131   0.00000  Uiso   1.00
C470   C     0.80069   0.45053   0.90189   0.00000  Uiso   1.00
C471   C     0.75223   0.50516   0.87776   0.00000  Uiso   1.00
C472   C     0.75329   0.52611   0.80970   0.00000  Uiso   1.00
C473   C     0.73354   0.57952   0.70340   0.00000  Uiso   1.00
C474   C     0.89680   0.35940   0.89653   0.00000  Uiso   1.00
C475   C     0.85584   0.31283   0.95359   0.00000  Uiso   1.00
C476   C     0.86312   0.24528   0.96465   0.00000  Uiso   1.00
C477   C     0.82081   0.21139   0.01963   0.00000  Uiso   1.00
C478   C     0.92570   0.38847   0.92988   0.00000  Uiso   1.00
C479   C     0.99171   0.38453   0.92098   0.00000  Uiso   1.00
C480   C     0.00822   0.41432   0.95598   0.00000  Uiso   1.00
C481   C     0.84853   0.41798   0.85954   0.00000  Uiso   1.00
C482   C     0.84967   0.43886   0.79150   0.00000  Uiso   1.00
C483   C     0.80121   0.49351   0.76728   0.00000  Uiso   1.00
H484   H     0.77149   0.44467   0.00746   0.00000  Uiso   1.00
H485   H     0.72866   0.33679   0.08367   0.00000  Uiso   1.00
H486   H     0.85724   0.47601   0.04000   0.00000  Uiso   1.00
H487   H     0.71522   0.53034   0.91054   0.00000  Uiso   1.00
H488   H     0.70229   0.20282   0.14951   0.00000  Uiso   1.00
H489   H     0.97340   0.49641   0.05741   0.00000  Uiso   1.00
H490   H     0.67392   0.61096   0.78442   0.00000  Uiso   1.00
H491   H     0.93405   0.33406   0.86356   0.00000  Uiso   1.00
H492   H     0.90014   0.22011   0.93187   0.00000  Uiso   1.00
H493   H     0.02872   0.35934   0.88821   0.00000  Uiso   1.00
H494   H     0.88670   0.41366   0.75875   0.00000  Uiso   1.00
H495   H     0.84147   0.10812   0.02631   0.00000  Uiso   1.00
H496   H     0.11258   0.40171   0.93421   0.00000  Uiso   1.00
H497   H     0.81310   0.51626   0.66122   0.00000  Uiso   1.00
O498   O     0.74666   0.08250   0.13546   0.00000  Uiso   1.00
O499   O     0.10233   0.46768   0.01462   0.00000  Uiso   1.00
O500   O     0.70943   0.61797   0.65647   0.00000  Uiso   1.00
N501   N     0.73969   0.19617   0.11113   0.00000  Uiso   1.00
N502   N     0.99316   0.47065   0.02503   0.00000  Uiso   1.00
N503   N     0.71319   0.57776   0.76981   0.00000  Uiso   1.00
N504   N     0.81458   0.14522   0.04483   0.00000  Uiso   1.00
N505   N     0.06805   0.41969   0.95874   0.00000  Uiso   1.00
N506   N     0.78808   0.52680   0.70351   0.00000  Uiso   1.00
C507   C     0.39659   0.23649   0.96872   0.00000  Uiso   1.00
C508   C     0.33174   0.25285   0.94870   0.00000  Uiso   1.00
C509   C     0.31814   0.29377   0.88623   0.00000  Uiso   1.00
C510   C     0.25588   0.30247   0.87794   0.00000  Uiso   1.00
C511   C     0.16232   0.33265   0.83891   0.00000  Uiso   1.00
C512   C     0.38059   0.25723   0.03051   0.00000  Uiso   1.00
C513   C     0.40806   0.30182   0.03682   0.00000  Uiso   1.00
C514   C     0.38691   0.31419   0.09740   0.00000  Uiso   1.00
C515   C     0.36922   0.35112   0.18539   0.00000  Uiso   1.00
C516   C     0.41823   0.16010   0.99298   0.00000  Uiso   1.00
C517   C     0.47736   0.12303   0.96775   0.00000  Uiso   1.00
C518   C     0.48791   0.05362   0.99675   0.00000  Uiso   1.00
C519   C     0.52866   0.93975   0.02647   0.00000  Uiso   1.00
C520   C     0.31019   0.17916   0.06508   0.00000  Uiso   1.00
C521   C     0.28482   0.22172   0.00104   0.00000  Uiso   1.00
C522   C     0.22256   0.23035   0.99284   0.00000  Uiso   1.00
C523   C     0.20887   0.27128   0.93037   0.00000  Uiso   1.00
C524   C     0.33366   0.22609   0.08284   0.00000  Uiso   1.00
C525   C     0.31247   0.23840   0.14343   0.00000  Uiso   1.00
C526   C     0.33990   0.28300   0.14983   0.00000  Uiso   1.00
C527   C     0.37130   0.12896   0.04532   0.00000  Uiso   1.00
C528   C     0.38177   0.05960   0.07436   0.00000  Uiso   1.00
C529   C     0.44090   0.02243   0.04918   0.00000  Uiso   1.00
H530   H     0.43312   0.26073   0.92797   0.00000  Uiso   1.00
H531   H     0.35447   0.31787   0.84574   0.00000  Uiso   1.00
H532   H     0.44438   0.32590   0.99631   0.00000  Uiso   1.00
H533   H     0.51366   0.14714   0.92725   0.00000  Uiso   1.00
H534   H     0.24657   0.36750   0.77766   0.00000  Uiso   1.00
H535   H     0.43616   0.38443   0.09515   0.00000  Uiso   1.00
H536   H     0.58226   0.00747   0.94953   0.00000  Uiso   1.00
H537   H     0.27366   0.15492   0.10583   0.00000  Uiso   1.00
H538   H     0.18625   0.20625   0.03336   0.00000  Uiso   1.00
H539   H     0.27616   0.21429   0.18392   0.00000  Uiso   1.00
H540   H     0.34544   0.03553   0.11486   0.00000  Uiso   1.00
H541   H     0.11004   0.27691   0.92994   0.00000  Uiso   1.00
H542   H     0.29963   0.29384   0.24743   0.00000  Uiso   1.00
H543   H     0.44573   0.91688   0.10180   0.00000  Uiso   1.00
O544   O     0.12367   0.35790   0.80293   0.00000  Uiso   1.00
O545   O     0.37242   0.38010   0.21946   0.00000  Uiso   1.00
O546   O     0.56409   0.88554   0.02840   0.00000  Uiso   1.00
N547   N     0.22643   0.33913   0.82344   0.00000  Uiso   1.00
N548   N     0.40368   0.35496   0.12027   0.00000  Uiso   1.00
N549   N     0.54028   0.00254   0.98414   0.00000  Uiso   1.00
N550   N     0.15297   0.29038   0.90538   0.00000  Uiso   1.00
N551   N     0.33021   0.30622   0.20221   0.00000  Uiso   1.00
N552   N     0.46681   0.95379   0.06608   0.00000  Uiso   1.00
