data_job_06897
_audit_creation_date              2018-12-19
_audit_creation_method            'Materials Studio'
_symmetry_space_group_name_H-M    'P1'
_symmetry_Int_Tables_number       1
_symmetry_cell_setting            triclinic
loop_
_symmetry_equiv_pos_as_xyz
  x,y,z
_cell_length_a                    23.3682
_cell_length_b                    22.6777
_cell_length_c                    21.4057
_cell_angle_alpha                 105.6140
_cell_angle_beta                  103.0680
_cell_angle_gamma                 111.1680
loop_
_atom_site_label
_atom_site_type_symbol
_atom_site_fract_x
_atom_site_fract_y
_atom_site_fract_z
_atom_site_U_iso_or_equiv
_atom_site_adp_type
_atom_site_occupancy
C1     C     0.64884   0.23288   0.35509   0.00000  Uiso   1.00
C2     C     0.63875   0.19349   0.28027   0.00000  Uiso   1.00
C3     C     0.68828   0.19547   0.25408   0.00000  Uiso   1.00
C4     C     0.66891   0.15575   0.18420   0.00000  Uiso   1.00
C5     C     0.66336   0.10074   0.07442   0.00000  Uiso   1.00
C6     C     0.61105   0.27511   0.35099   0.00000  Uiso   1.00
C7     C     0.63731   0.34571   0.38426   0.00000  Uiso   1.00
C8     C     0.59462   0.37469   0.37392   0.00000  Uiso   1.00
C9     C     0.54607   0.44638   0.37396   0.00000  Uiso   1.00
C10    C     0.61277   0.17928   0.38090   0.00000  Uiso   1.00
C11    C     0.64046   0.16931   0.43933   0.00000  Uiso   1.00
C12    C     0.59921   0.11761   0.45418   0.00000  Uiso   1.00
C13    C     0.55332   0.04051   0.50067   0.00000  Uiso   1.00
C14    C     0.52634   0.15881   0.27758   0.00000  Uiso   1.00
C15    C     0.57221   0.15326   0.23817   0.00000  Uiso   1.00
C16    C     0.55276   0.11352   0.16832   0.00000  Uiso   1.00
C17    C     0.60225   0.11544   0.14203   0.00000  Uiso   1.00
C18    C     0.54452   0.23488   0.30889   0.00000  Uiso   1.00
C19    C     0.50178   0.26376   0.29850   0.00000  Uiso   1.00
C20    C     0.52796   0.33438   0.33174   0.00000  Uiso   1.00
C21    C     0.54624   0.13904   0.33880   0.00000  Uiso   1.00
C22    C     0.50493   0.08735   0.35357   0.00000  Uiso   1.00
C23    C     0.53256   0.07730   0.41201   0.00000  Uiso   1.00
H24    H     0.70064   0.26421   0.38787   0.00000  Uiso   1.00
H25    H     0.73977   0.22662   0.28668   0.00000  Uiso   1.00
H26    H     0.68880   0.37683   0.41684   0.00000  Uiso   1.00
H27    H     0.69195   0.20045   0.47190   0.00000  Uiso   1.00
H28    H     0.75380   0.16723   0.15591   0.00000  Uiso   1.00
H29    H     0.64633   0.48395   0.43039   0.00000  Uiso   1.00
H30    H     0.65298   0.11203   0.54649   0.00000  Uiso   1.00
H31    H     0.47454   0.12748   0.24480   0.00000  Uiso   1.00
H32    H     0.50126   0.08239   0.13575   0.00000  Uiso   1.00
H33    H     0.45030   0.23260   0.26592   0.00000  Uiso   1.00
H34    H     0.45345   0.05623   0.32098   0.00000  Uiso   1.00
H35    H     0.56023   0.05017   0.03341   0.00000  Uiso   1.00
H36    H     0.45275   0.36689   0.30789   0.00000  Uiso   1.00
H37    H     0.45940   0.99497   0.42399   0.00000  Uiso   1.00
O38    O     0.67867   0.08152   0.02550   0.00000  Uiso   1.00
O39    O     0.53767   0.49705   0.38561   0.00000  Uiso   1.00
O40    O     0.54639   0.00909   0.53794   0.00000  Uiso   1.00
N41    N     0.70458   0.14586   0.14205   0.00000  Uiso   1.00
N42    N     0.60410   0.44197   0.39866   0.00000  Uiso   1.00
N43    N     0.61031   0.09427   0.50722   0.00000  Uiso   1.00
N44    N     0.60042   0.08287   0.07613   0.00000  Uiso   1.00
N45    N     0.49994   0.37898   0.33274   0.00000  Uiso   1.00
N46    N     0.50615   0.03128   0.44130   0.00000  Uiso   1.00
C47    C     0.30029   0.72828   0.46769   0.00000  Uiso   1.00
C48    C     0.22954   0.71805   0.44377   0.00000  Uiso   1.00
C49    C     0.20869   0.76743   0.46568   0.00000  Uiso   1.00
C50    C     0.14188   0.74794   0.43767   0.00000  Uiso   1.00
C51    C     0.03877   0.74217   0.40788   0.00000  Uiso   1.00
C52    C     0.29945   0.67357   0.49665   0.00000  Uiso   1.00
C53    C     0.33738   0.68556   0.56301   0.00000  Uiso   1.00
C54    C     0.32942   0.62863   0.57951   0.00000  Uiso   1.00
C55    C     0.33487   0.55380   0.63180   0.00000  Uiso   1.00
C56    C     0.31599   0.70933   0.40189   0.00000  Uiso   1.00
C57    C     0.36784   0.75137   0.38858   0.00000  Uiso   1.00
C58    C     0.37382   0.72454   0.32530   0.00000  Uiso   1.00
C59    C     0.40495   0.70522   0.23045   0.00000  Uiso   1.00
C60    C     0.21874   0.60588   0.37900   0.00000  Uiso   1.00
C61    C     0.18525   0.65157   0.39560   0.00000  Uiso   1.00
C62    C     0.11846   0.63201   0.36755   0.00000  Uiso   1.00
C63    C     0.09751   0.68134   0.38941   0.00000  Uiso   1.00
C64    C     0.25515   0.60709   0.44848   0.00000  Uiso   1.00
C65    C     0.24715   0.55013   0.46488   0.00000  Uiso   1.00
C66    C     0.28505   0.56203   0.53125   0.00000  Uiso   1.00
C67    C     0.27169   0.64285   0.35371   0.00000  Uiso   1.00
C68    C     0.27760   0.61595   0.29045   0.00000  Uiso   1.00
C69    C     0.32944   0.65793   0.27704   0.00000  Uiso   1.00
H70    H     0.33478   0.78004   0.50520   0.00000  Uiso   1.00
H71    H     0.24298   0.81887   0.50296   0.00000  Uiso   1.00
H72    H     0.37165   0.73701   0.60028   0.00000  Uiso   1.00
H73    H     0.40210   0.80281   0.42587   0.00000  Uiso   1.00
H74    H     0.12167   0.83260   0.47925   0.00000  Uiso   1.00
H75    H     0.39300   0.65999   0.68444   0.00000  Uiso   1.00
H76    H     0.45721   0.79874   0.31667   0.00000  Uiso   1.00
H77    H     0.18425   0.55412   0.34150   0.00000  Uiso   1.00
H78    H     0.08419   0.58055   0.33027   0.00000  Uiso   1.00
H79    H     0.21287   0.49869   0.42759   0.00000  Uiso   1.00
H80    H     0.24332   0.56450   0.25318   0.00000  Uiso   1.00
H81    H     0.99279   0.63917   0.33909   0.00000  Uiso   1.00
H82    H     0.26413   0.46656   0.54428   0.00000  Uiso   1.00
H83    H     0.32833   0.60532   0.17650   0.00000  Uiso   1.00
O84    O     0.99413   0.75734   0.40476   0.00000  Uiso   1.00
O85    O     0.35011   0.53089   0.67395   0.00000  Uiso   1.00
O86    O     0.43435   0.71293   0.19144   0.00000  Uiso   1.00
N87    N     0.10507   0.78345   0.44780   0.00000  Uiso   1.00
N88    N     0.35874   0.62207   0.63964   0.00000  Uiso   1.00
N89    N     0.41879   0.75179   0.29581   0.00000  Uiso   1.00
N90    N     0.03573   0.67937   0.37238   0.00000  Uiso   1.00
N91    N     0.28939   0.51799   0.56422   0.00000  Uiso   1.00
N92    N     0.34944   0.64771   0.22039   0.00000  Uiso   1.00
C93    C     0.41915   0.22204   0.70643   0.00000  Uiso   1.00
C94    C     0.35502   0.16672   0.64835   0.00000  Uiso   1.00
C95    C     0.31320   0.10637   0.65077   0.00000  Uiso   1.00
C96    C     0.25695   0.06239   0.59225   0.00000  Uiso   1.00
C97    C     0.15949   0.97407   0.51099   0.00000  Uiso   1.00
C98    C     0.47239   0.23094   0.67467   0.00000  Uiso   1.00
C99    C     0.52925   0.22459   0.69924   0.00000  Uiso   1.00
C100   C     0.57181   0.23468   0.66289   0.00000  Uiso   1.00
C101   C     0.65660   0.24611   0.62254   0.00000  Uiso   1.00
C102   C     0.41254   0.28847   0.72210   0.00000  Uiso   1.00
C103   C     0.41911   0.33051   0.78655   0.00000  Uiso   1.00
C104   C     0.41129   0.38904   0.79013   0.00000  Uiso   1.00
C105   C     0.40316   0.48979   0.82342   0.00000  Uiso   1.00
C106   C     0.39361   0.25125   0.59821   0.00000  Uiso   1.00
C107   C     0.34115   0.18259   0.58956   0.00000  Uiso   1.00
C108   C     0.28494   0.13869   0.53103   0.00000  Uiso   1.00
C109   C     0.24304   0.07829   0.53337   0.00000  Uiso   1.00
C110   C     0.45851   0.24681   0.61590   0.00000  Uiso   1.00
C111   C     0.50100   0.25691   0.57951   0.00000  Uiso   1.00
C112   C     0.55791   0.25058   0.60401   0.00000  Uiso   1.00
C113   C     0.39867   0.30434   0.66332   0.00000  Uiso   1.00
C114   C     0.39085   0.36282   0.66681   0.00000  Uiso   1.00
C115   C     0.39740   0.40494   0.73125   0.00000  Uiso   1.00
H116   H     0.42995   0.20969   0.75219   0.00000  Uiso   1.00
H117   H     0.32395   0.09411   0.69626   0.00000  Uiso   1.00
H118   H     0.53998   0.21232   0.74473   0.00000  Uiso   1.00
H119   H     0.42984   0.31821   0.83202   0.00000  Uiso   1.00
H120   H     0.20033   0.97296   0.60833   0.00000  Uiso   1.00
H121   H     0.65584   0.22223   0.71054   0.00000  Uiso   1.00
H122   H     0.42361   0.44553   0.89461   0.00000  Uiso   1.00
H123   H     0.38281   0.26361   0.55244   0.00000  Uiso   1.00
H124   H     0.27422   0.15098   0.48555   0.00000  Uiso   1.00
H125   H     0.49024   0.26919   0.53402   0.00000  Uiso   1.00
H126   H     0.38011   0.37509   0.62131   0.00000  Uiso   1.00
H127   H     0.15996   0.01911   0.43730   0.00000  Uiso   1.00
H128   H     0.61548   0.26839   0.53952   0.00000  Uiso   1.00
H129   H     0.38324   0.49169   0.72359   0.00000  Uiso   1.00
O130   O     0.10958   0.92096   0.48241   0.00000  Uiso   1.00
O131   O     0.70719   0.24802   0.61652   0.00000  Uiso   1.00
O132   O     0.40250   0.54098   0.85801   0.00000  Uiso   1.00
N133   N     0.20573   0.99928   0.57726   0.00000  Uiso   1.00
N134   N     0.63160   0.23233   0.67282   0.00000  Uiso   1.00
N135   N     0.41449   0.44110   0.84491   0.00000  Uiso   1.00
N136   N     0.18400   0.02412   0.48524   0.00000  Uiso   1.00
N137   N     0.60988   0.25716   0.58080   0.00000  Uiso   1.00
N138   N     0.39277   0.46594   0.75289   0.00000  Uiso   1.00
C139   C     0.34036   0.85937   0.94561   0.00000  Uiso   1.00
C140   C     0.37399   0.81292   0.94570   0.00000  Uiso   1.00
C141   C     0.43925   0.83369   0.98388   0.00000  Uiso   1.00
C142   C     0.46063   0.78337   0.97683   0.00000  Uiso   1.00
C143   C     0.51929   0.72168   0.98364   0.00000  Uiso   1.00
C144   C     0.28122   0.82898   0.96607   0.00000  Uiso   1.00
C145   C     0.26847   0.86326   0.02139   0.00000  Uiso   1.00
C146   C     0.21174   0.82646   0.03147   0.00000  Uiso   1.00
C147   C     0.12635   0.78972   0.06989   0.00000  Uiso   1.00
C148   C     0.31236   0.84965   0.86993   0.00000  Uiso   1.00
C149   C     0.32578   0.90131   0.84440   0.00000  Uiso   1.00
C150   C     0.29526   0.88192   0.77354   0.00000  Uiso   1.00
C151   C     0.25823   0.87727   0.66268   0.00000  Uiso   1.00
C152   C     0.26228   0.73307   0.86516   0.00000  Uiso   1.00
C153   C     0.33158   0.74432   0.90200   0.00000  Uiso   1.00
C154   C     0.35286   0.69396   0.89488   0.00000  Uiso   1.00
C155   C     0.41814   0.71465   0.93305   0.00000  Uiso   1.00
C156   C     0.23880   0.76039   0.92238   0.00000  Uiso   1.00
C157   C     0.18208   0.72353   0.93238   0.00000  Uiso   1.00
C158   C     0.16925   0.75774   0.98770   0.00000  Uiso   1.00
C159   C     0.26995   0.78105   0.82623   0.00000  Uiso   1.00
C160   C     0.23940   0.76158   0.75540   0.00000  Uiso   1.00
C161   C     0.25278   0.81319   0.72977   0.00000  Uiso   1.00
H162   H     0.37337   0.91278   0.97963   0.00000  Uiso   1.00
H163   H     0.47205   0.88678   0.01770   0.00000  Uiso   1.00
H164   H     0.30129   0.91635   0.05518   0.00000  Uiso   1.00
H165   H     0.35860   0.95439   0.87823   0.00000  Uiso   1.00
H166   H     0.56275   0.82771   0.04066   0.00000  Uiso   1.00
H167   H     0.20268   0.89005   0.11969   0.00000  Uiso   1.00
H168   H     0.32353   0.97028   0.74655   0.00000  Uiso   1.00
H169   H     0.22926   0.67966   0.83114   0.00000  Uiso   1.00
H170   H     0.32003   0.64088   0.86107   0.00000  Uiso   1.00
H171   H     0.14927   0.67044   0.89856   0.00000  Uiso   1.00
H172   H     0.20658   0.70849   0.72160   0.00000  Uiso   1.00
H173   H     0.43936   0.62812   0.91353   0.00000  Uiso   1.00
H174   H     0.07929   0.69047   0.99256   0.00000  Uiso   1.00
H175   H     0.20014   0.77069   0.61942   0.00000  Uiso   1.00
O176   O     0.56336   0.70660   0.99948   0.00000  Uiso   1.00
O177   O     0.09096   0.78840   0.10315   0.00000  Uiso   1.00
O178   O     0.24952   0.89365   0.61360   0.00000  Uiso   1.00
N179   N     0.52126   0.78606   0.00662   0.00000  Uiso   1.00
N180   N     0.18462   0.84435   0.08052   0.00000  Uiso   1.00
N181   N     0.29759   0.91935   0.73167   0.00000  Uiso   1.00
N182   N     0.45486   0.67866   0.93822   0.00000  Uiso   1.00
N183   N     0.11823   0.73695   0.01211   0.00000  Uiso   1.00
N184   N     0.23120   0.81196   0.66326   0.00000  Uiso   1.00
C185   C     0.80721   0.86148   0.24262   0.00000  Uiso   1.00
C186   C     0.74023   0.85068   0.24724   0.00000  Uiso   1.00
C187   C     0.72947   0.89027   0.30086   0.00000  Uiso   1.00
C188   C     0.66455   0.87207   0.29542   0.00000  Uiso   1.00
C189   C     0.56850   0.86381   0.31125   0.00000  Uiso   1.00
C190   C     0.80522   0.86940   0.17375   0.00000  Uiso   1.00
C191   C     0.84911   0.92473   0.16559   0.00000  Uiso   1.00
C192   C     0.83889   0.92227   0.09828   0.00000  Uiso   1.00
C193   C     0.84377   0.94305   0.00001   0.00000  Uiso   1.00
C194   C     0.81027   0.79396   0.23489   0.00000  Uiso   1.00
C195   C     0.85841   0.78585   0.27813   0.00000  Uiso   1.00
C196   C     0.85245   0.71988   0.26228   0.00000  Uiso   1.00
C197   C     0.86515   0.62352   0.25895   0.00000  Uiso   1.00
C198   C     0.71104   0.75874   0.13758   0.00000  Uiso   1.00
C199   C     0.68800   0.79488   0.19018   0.00000  Uiso   1.00
C200   C     0.62307   0.77660   0.18466   0.00000  Uiso   1.00
C201   C     0.61222   0.81616   0.23827   0.00000  Uiso   1.00
C202   C     0.75299   0.81360   0.11670   0.00000  Uiso   1.00
C203   C     0.74271   0.81106   0.04938   0.00000  Uiso   1.00
C204   C     0.78657   0.86637   0.04112   0.00000  Uiso   1.00
C205   C     0.75803   0.73815   0.17784   0.00000  Uiso   1.00
C206   C     0.75200   0.67218   0.16192   0.00000  Uiso   1.00
C207   C     0.80012   0.66397   0.20513   0.00000  Uiso   1.00
H208   H     0.84788   0.90493   0.28703   0.00000  Uiso   1.00
H209   H     0.76991   0.93346   0.34500   0.00000  Uiso   1.00
H210   H     0.88953   0.96790   0.20975   0.00000  Uiso   1.00
H211   H     0.89882   0.82905   0.32227   0.00000  Uiso   1.00
H212   H     0.66043   0.94050   0.38411   0.00000  Uiso   1.00
H213   H     0.91267   0.01311   0.09891   0.00000  Uiso   1.00
H214   H     0.93227   0.72031   0.33618   0.00000  Uiso   1.00
H215   H     0.67037   0.71529   0.09316   0.00000  Uiso   1.00
H216   H     0.58266   0.73342   0.14050   0.00000  Uiso   1.00
H217   H     0.70228   0.76786   0.00524   0.00000  Uiso   1.00
H218   H     0.71157   0.62901   0.11777   0.00000  Uiso   1.00
H219   H     0.50845   0.77814   0.21812   0.00000  Uiso   1.00
H220   H     0.76070   0.85075   0.93292   0.00000  Uiso   1.00
H221   H     0.78028   0.55795   0.17020   0.00000  Uiso   1.00
O222   O     0.52995   0.87467   0.33574   0.00000  Uiso   1.00
O223   O     0.86089   0.96994   0.96157   0.00000  Uiso   1.00
O224   O     0.88658   0.58579   0.27287   0.00000  Uiso   1.00
N225   N     0.63670   0.89979   0.33855   0.00000  Uiso   1.00
N226   N     0.87253   0.96769   0.07191   0.00000  Uiso   1.00
N227   N     0.89085   0.69394   0.29373   0.00000  Uiso   1.00
N228   N     0.55492   0.81242   0.24924   0.00000  Uiso   1.00
N229   N     0.79075   0.88032   0.98260   0.00000  Uiso   1.00
N230   N     0.80907   0.60658   0.20442   0.00000  Uiso   1.00
C231   C     0.77159   0.18502   0.80814   0.00000  Uiso   1.00
C232   C     0.75268   0.13582   0.73414   0.00000  Uiso   1.00
C233   C     0.76502   0.15453   0.68013   0.00000  Uiso   1.00
C234   C     0.74381   0.10185   0.61629   0.00000  Uiso   1.00
C235   C     0.71940   0.03593   0.50282   0.00000  Uiso   1.00
C236   C     0.81331   0.16455   0.85547   0.00000  Uiso   1.00
C237   C     0.87663   0.20742   0.90348   0.00000  Uiso   1.00
C238   C     0.90646   0.17892   0.94178   0.00000  Uiso   1.00
C239   C     0.97616   0.15763   0.01671   0.00000  Uiso   1.00
C240   C     0.70794   0.16778   0.82294   0.00000  Uiso   1.00
C241   C     0.68267   0.21336   0.84363   0.00000  Uiso   1.00
C242   C     0.62379   0.18758   0.85456   0.00000  Uiso   1.00
C243   C     0.52989   0.17129   0.87899   0.00000  Uiso   1.00
C244   C     0.71198   0.05820   0.79080   0.00000  Uiso   1.00
C245   C     0.72030   0.06694   0.72472   0.00000  Uiso   1.00
C246   C     0.69907   0.01421   0.66095   0.00000  Uiso   1.00
C247   C     0.71138   0.03284   0.60685   0.00000  Uiso   1.00
C248   C     0.78094   0.09567   0.84605   0.00000  Uiso   1.00
C249   C     0.81068   0.06711   0.88429   0.00000  Uiso   1.00
C250   C     0.87403   0.10992   0.93235   0.00000  Uiso   1.00
C251   C     0.67556   0.09889   0.81352   0.00000  Uiso   1.00
C252   C     0.61672   0.07304   0.82444   0.00000  Uiso   1.00
C253   C     0.59136   0.11857   0.84513   0.00000  Uiso   1.00
H254   H     0.79680   0.23865   0.81548   0.00000  Uiso   1.00
H255   H     0.79008   0.20784   0.68744   0.00000  Uiso   1.00
H256   H     0.90167   0.26073   0.91076   0.00000  Uiso   1.00
H257   H     0.70773   0.26666   0.85091   0.00000  Uiso   1.00
H258   H     0.76838   0.14331   0.54135   0.00000  Uiso   1.00
H259   H     0.00365   0.25482   0.01224   0.00000  Uiso   1.00
H260   H     0.59471   0.26734   0.88604   0.00000  Uiso   1.00
H261   H     0.68678   0.00457   0.78347   0.00000  Uiso   1.00
H262   H     0.67402   0.96091   0.65367   0.00000  Uiso   1.00
H263   H     0.78561   0.01380   0.87699   0.00000  Uiso   1.00
H264   H     0.59168   0.01973   0.81714   0.00000  Uiso   1.00
H265   H     0.67418   0.94289   0.51394   0.00000  Uiso   1.00
H266   H     0.90946   0.05441   0.98483   0.00000  Uiso   1.00
H267   H     0.50052   0.06692   0.85863   0.00000  Uiso   1.00
O268   O     0.71489   0.01860   0.44284   0.00000  Uiso   1.00
O269   O     0.02356   0.16491   0.06064   0.00000  Uiso   1.00
O270   O     0.48704   0.18133   0.89506   0.00000  Uiso   1.00
N271   N     0.74794   0.10213   0.55270   0.00000  Uiso   1.00
N272   N     0.96792   0.20639   0.99295   0.00000  Uiso   1.00
N273   N     0.58560   0.21809   0.87498   0.00000  Uiso   1.00
N274   N     0.69726   0.99429   0.53796   0.00000  Uiso   1.00
N275   N     0.91723   0.09855   0.97820   0.00000  Uiso   1.00
N276   N     0.53492   0.11025   0.86023   0.00000  Uiso   1.00
C277   C     0.53929   0.72924   0.71189   0.00000  Uiso   1.00
C278   C     0.54769   0.79234   0.76894   0.00000  Uiso   1.00
C279   C     0.49709   0.80530   0.78236   0.00000  Uiso   1.00
C280   C     0.51497   0.86594   0.83687   0.00000  Uiso   1.00
C281   C     0.51795   0.95690   0.91944   0.00000  Uiso   1.00
C282   C     0.57611   0.69730   0.74838   0.00000  Uiso   1.00
C283   C     0.54941   0.63035   0.74450   0.00000  Uiso   1.00
C284   C     0.59121   0.61097   0.78169   0.00000  Uiso   1.00
C285   C     0.63832   0.55437   0.83230   0.00000  Uiso   1.00
C286   C     0.57750   0.75608   0.66835   0.00000  Uiso   1.00
C287   C     0.55197   0.73854   0.59719   0.00000  Uiso   1.00
C288   C     0.59495   0.76864   0.56701   0.00000  Uiso   1.00
C289   C     0.64421   0.80331   0.49337   0.00000  Uiso   1.00
C290   C     0.66101   0.81388   0.78483   0.00000  Uiso   1.00
C291   C     0.61380   0.83831   0.80855   0.00000  Uiso   1.00
C292   C     0.63176   0.89894   0.86305   0.00000  Uiso   1.00
C293   C     0.58120   0.91199   0.87655   0.00000  Uiso   1.00
C294   C     0.64222   0.74327   0.78799   0.00000  Uiso   1.00
C295   C     0.68407   0.72399   0.82519   0.00000  Uiso   1.00
C296   C     0.65744   0.65703   0.82138   0.00000  Uiso   1.00
C297   C     0.64361   0.80206   0.70797   0.00000  Uiso   1.00
C298   C     0.68664   0.83218   0.67789   0.00000  Uiso   1.00
C299   C     0.66118   0.81470   0.60669   0.00000  Uiso   1.00
H300   H     0.48782   0.69345   0.68105   0.00000  Uiso   1.00
H301   H     0.44594   0.76971   0.75169   0.00000  Uiso   1.00
H302   H     0.49825   0.59478   0.71383   0.00000  Uiso   1.00
H303   H     0.50081   0.70296   0.56655   0.00000  Uiso   1.00
H304   H     0.42865   0.87452   0.84750   0.00000  Uiso   1.00
H305   H     0.53895   0.50567   0.76765   0.00000  Uiso   1.00
H306   H     0.54435   0.73378   0.45707   0.00000  Uiso   1.00
H307   H     0.71249   0.84967   0.81567   0.00000  Uiso   1.00
H308   H     0.68293   0.93451   0.89370   0.00000  Uiso   1.00
H309   H     0.73523   0.75958   0.85584   0.00000  Uiso   1.00
H310   H     0.73779   0.86776   0.70856   0.00000  Uiso   1.00
H311   H     0.62100   0.00827   0.96276   0.00000  Uiso   1.00
H312   H     0.73130   0.63942   0.88291   0.00000  Uiso   1.00
H313   H     0.73670   0.86754   0.57233   0.00000  Uiso   1.00
O314   O     0.50133   0.99438   0.95404   0.00000  Uiso   1.00
O315   O     0.64604   0.51045   0.84927   0.00000  Uiso   1.00
O316   O     0.65312   0.80974   0.44181   0.00000  Uiso   1.00
N317   N     0.47798   0.89436   0.86391   0.00000  Uiso   1.00
N318   N     0.58110   0.54951   0.78926   0.00000  Uiso   1.00
N319   N     0.58615   0.76277   0.49890   0.00000  Uiso   1.00
N320   N     0.58148   0.96634   0.92593   0.00000  Uiso   1.00
N321   N     0.68460   0.62148   0.85128   0.00000  Uiso   1.00
N322   N     0.68965   0.83474   0.56092   0.00000  Uiso   1.00
C323   C     0.81165   0.42162   0.76501   0.00000  Uiso   1.00
C324   C     0.88288   0.43316   0.78509   0.00000  Uiso   1.00
C325   C     0.90338   0.38219   0.77365   0.00000  Uiso   1.00
C326   C     0.97073   0.40327   0.79585   0.00000  Uiso   1.00
C327   C     0.07446   0.41060   0.82205   0.00000  Uiso   1.00
C328   C     0.80444   0.46144   0.71903   0.00000  Uiso   1.00
C329   C     0.75899   0.43425   0.65206   0.00000  Uiso   1.00
C330   C     0.76031   0.47915   0.61866   0.00000  Uiso   1.00
C331   C     0.74223   0.53039   0.54234   0.00000  Uiso   1.00
C332   C     0.80461   0.45804   0.83186   0.00000  Uiso   1.00
C333   C     0.75928   0.42801   0.85975   0.00000  Uiso   1.00
C334   C     0.76073   0.47005   0.92134   0.00000  Uiso   1.00
C335   C     0.74292   0.51602   0.02019   0.00000  Uiso   1.00
C336   C     0.89480   0.54969   0.82478   0.00000  Uiso   1.00
C337   C     0.92804   0.50272   0.81755   0.00000  Uiso   1.00
C338   C     0.99538   0.52388   0.83978   0.00000  Uiso   1.00
C339   C     0.01598   0.47296   0.82837   0.00000  Uiso   1.00
C340   C     0.84961   0.53100   0.75150   0.00000  Uiso   1.00
C341   C     0.85099   0.57595   0.71819   0.00000  Uiso   1.00
C342   C     0.80556   0.54884   0.65118   0.00000  Uiso   1.00
C343   C     0.84978   0.52761   0.86433   0.00000  Uiso   1.00
C344   C     0.85129   0.56970   0.92588   0.00000  Uiso   1.00
C345   C     0.80598   0.53973   0.95386   0.00000  Uiso   1.00
H346   H     0.77648   0.36747   0.73973   0.00000  Uiso   1.00
H347   H     0.86841   0.32836   0.74852   0.00000  Uiso   1.00
H348   H     0.72403   0.38042   0.62696   0.00000  Uiso   1.00
H349   H     0.72433   0.37418   0.83461   0.00000  Uiso   1.00
H350   H     0.99025   0.31568   0.77255   0.00000  Uiso   1.00
H351   H     0.68581   0.42546   0.51624   0.00000  Uiso   1.00
H352   H     0.68644   0.41228   0.95413   0.00000  Uiso   1.00
H353   H     0.92997   0.60385   0.85005   0.00000  Uiso   1.00
H354   H     0.03033   0.57772   0.86490   0.00000  Uiso   1.00
H355   H     0.88595   0.62978   0.74333   0.00000  Uiso   1.00
H356   H     0.88625   0.62353   0.95099   0.00000  Uiso   1.00
H357   H     0.12167   0.51807   0.86700   0.00000  Uiso   1.00
H358   H     0.81723   0.62784   0.61069   0.00000  Uiso   1.00
H359   H     0.81786   0.61467   0.04858   0.00000  Uiso   1.00
O360   O     0.11920   0.39542   0.82753   0.00000  Uiso   1.00
O361   O     0.71979   0.53944   0.49126   0.00000  Uiso   1.00
O362   O     0.72062   0.52216   0.06576   0.00000  Uiso   1.00
N363   N     0.00740   0.36690   0.79276   0.00000  Uiso   1.00
N364   N     0.72278   0.46953   0.55312   0.00000  Uiso   1.00
N365   N     0.72336   0.45722   0.96249   0.00000  Uiso   1.00
N366   N     0.07812   0.47580   0.84358   0.00000  Uiso   1.00
N367   N     0.79350   0.57843   0.60394   0.00000  Uiso   1.00
N368   N     0.79408   0.56612   0.01332   0.00000  Uiso   1.00
C369   C     0.81270   0.75038   0.51136   0.00000  Uiso   1.00
C370   C     0.83026   0.82645   0.53986   0.00000  Uiso   1.00
C371   C     0.82397   0.86481   0.50035   0.00000  Uiso   1.00
C372   C     0.84269   0.93365   0.53624   0.00000  Uiso   1.00
C373   C     0.86627   0.04729   0.56941   0.00000  Uiso   1.00
C374   C     0.76339   0.71664   0.54216   0.00000  Uiso   1.00
C375   C     0.70088   0.66268   0.50458   0.00000  Uiso   1.00
C376   C     0.66332   0.63908   0.54240   0.00000  Uiso   1.00
C377   C     0.58309   0.58222   0.57914   0.00000  Uiso   1.00
C378   C     0.87488   0.74507   0.54389   0.00000  Uiso   1.00
C379   C     0.90611   0.71498   0.50778   0.00000  Uiso   1.00
C380   C     0.96241   0.71530   0.54707   0.00000  Uiso   1.00
C381   C     0.05529   0.70256   0.58651   0.00000  Uiso   1.00
C382   C     0.85714   0.80441   0.64535   0.00000  Uiso   1.00
C383   C     0.85440   0.85579   0.61263   0.00000  Uiso   1.00
C384   C     0.87314   0.92459   0.64859   0.00000  Uiso   1.00
C385   C     0.86688   0.96305   0.60914   0.00000  Uiso   1.00
C386   C     0.78753   0.74599   0.61493   0.00000  Uiso   1.00
C387   C     0.75005   0.72246   0.65282   0.00000  Uiso   1.00
C388   C     0.68750   0.66848   0.61531   0.00000  Uiso   1.00
C389   C     0.89903   0.77441   0.61667   0.00000  Uiso   1.00
C390   C     0.95528   0.77477   0.65602   0.00000  Uiso   1.00
C391   C     0.98659   0.74469   0.61998   0.00000  Uiso   1.00
H392   H     0.79390   0.72753   0.45471   0.00000  Uiso   1.00
H393   H     0.80528   0.84208   0.44403   0.00000  Uiso   1.00
H394   H     0.68222   0.63997   0.44826   0.00000  Uiso   1.00
H395   H     0.88741   0.69228   0.45147   0.00000  Uiso   1.00
H396   H     0.82852   0.98202   0.46429   0.00000  Uiso   1.00
H397   H     0.56904   0.55586   0.47321   0.00000  Uiso   1.00
H398   H     0.00174   0.66614   0.47997   0.00000  Uiso   1.00
H399   H     0.87593   0.82725   0.70201   0.00000  Uiso   1.00
H400   H     0.89182   0.94729   0.70490   0.00000  Uiso   1.00
H401   H     0.76875   0.74518   0.70913   0.00000  Uiso   1.00
H402   H     0.97395   0.79748   0.71234   0.00000  Uiso   1.00
H403   H     0.89876   0.06741   0.67602   0.00000  Uiso   1.00
H404   H     0.63928   0.64124   0.68494   0.00000  Uiso   1.00
H405   H     0.07198   0.75153   0.69170   0.00000  Uiso   1.00
O406   O     0.87259   0.10187   0.56760   0.00000  Uiso   1.00
O407   O     0.53217   0.54275   0.57930   0.00000  Uiso   1.00
O408   O     0.09986   0.68744   0.58817   0.00000  Uiso   1.00
N409   N     0.84289   0.98565   0.51373   0.00000  Uiso   1.00
N410   N     0.60028   0.58721   0.52206   0.00000  Uiso   1.00
N411   N     0.00481   0.69031   0.52838   0.00000  Uiso   1.00
N412   N     0.88068   0.03159   0.62766   0.00000  Uiso   1.00
N413   N     0.63808   0.63316   0.63600   0.00000  Uiso   1.00
N414   N     0.04260   0.73625   0.64231   0.00000  Uiso   1.00
C415   C     0.99924   0.28477   0.41941   0.00000  Uiso   1.00
C416   C     0.00495   0.35595   0.42844   0.00000  Uiso   1.00
C417   C     0.95531   0.36999   0.39716   0.00000  Uiso   1.00
C418   C     0.97032   0.43850   0.41204   0.00000  Uiso   1.00
C419   C     0.96970   0.54103   0.41926   0.00000  Uiso   1.00
C420   C     0.05377   0.28001   0.39363   0.00000  Uiso   1.00
C421   C     0.04518   0.23019   0.33309   0.00000  Uiso   1.00
C422   C     0.10130   0.23477   0.31868   0.00000  Uiso   1.00
C423   C     0.17648   0.21938   0.27188   0.00000  Uiso   1.00
C424   C     0.01777   0.28461   0.49237   0.00000  Uiso   1.00
C425   C     0.97891   0.23866   0.51486   0.00000  Uiso   1.00
C426   C     0.00473   0.24711   0.58357   0.00000  Uiso   1.00
C427   C     0.02401   0.23887   0.69009   0.00000  Uiso   1.00
C428   C     0.11419   0.38146   0.50146   0.00000  Uiso   1.00
C429   C     0.06738   0.40846   0.47301   0.00000  Uiso   1.00
C430   C     0.08248   0.47697   0.48794   0.00000  Uiso   1.00
C431   C     0.03287   0.49111   0.45669   0.00000  Uiso   1.00
C432   C     0.11621   0.33252   0.43820   0.00000  Uiso   1.00
C433   C     0.17235   0.33717   0.42387   0.00000  Uiso   1.00
C434   C     0.16385   0.28739   0.36332   0.00000  Uiso   1.00
C435   C     0.08020   0.33713   0.53694   0.00000  Uiso   1.00
C436   C     0.10608   0.34565   0.60564   0.00000  Uiso   1.00
C437   C     0.06727   0.29972   0.62822   0.00000  Uiso   1.00
H438   H     0.95063   0.24388   0.38471   0.00000  Uiso   1.00
H439   H     0.90700   0.32933   0.36267   0.00000  Uiso   1.00
H440   H     0.99686   0.18956   0.29862   0.00000  Uiso   1.00
H441   H     0.93060   0.19803   0.48035   0.00000  Uiso   1.00
H442   H     0.88616   0.44724   0.35787   0.00000  Uiso   1.00
H443   H     0.07564   0.15249   0.22282   0.00000  Uiso   1.00
H444   H     0.93592   0.17036   0.60605   0.00000  Uiso   1.00
H445   H     0.16280   0.42235   0.53616   0.00000  Uiso   1.00
H446   H     0.13080   0.51760   0.52243   0.00000  Uiso   1.00
H447   H     0.22066   0.37782   0.45837   0.00000  Uiso   1.00
H448   H     0.15440   0.38629   0.64011   0.00000  Uiso   1.00
H449   H     0.06781   0.60004   0.48754   0.00000  Uiso   1.00
H450   H     0.25729   0.30529   0.35249   0.00000  Uiso   1.00
H451   H     0.11757   0.32316   0.73571   0.00000  Uiso   1.00
O452   O     0.95212   0.58308   0.41093   0.00000  Uiso   1.00
O453   O     0.20070   0.19638   0.23375   0.00000  Uiso   1.00
O454   O     0.01739   0.21982   0.73653   0.00000  Uiso   1.00
N455   N     0.93330   0.47013   0.39028   0.00000  Uiso   1.00
N456   N     0.11045   0.19457   0.26401   0.00000  Uiso   1.00
N457   N     0.97983   0.21126   0.62229   0.00000  Uiso   1.00
N458   N     0.03104   0.55235   0.46006   0.00000  Uiso   1.00
N459   N     0.20819   0.27679   0.33379   0.00000  Uiso   1.00
N460   N     0.07757   0.29348   0.69206   0.00000  Uiso   1.00
C461   C     0.34261   0.37029   0.03583   0.00000  Uiso   1.00
C462   C     0.40903   0.38172   0.02918   0.00000  Uiso   1.00
C463   C     0.42100   0.33439   0.98464   0.00000  Uiso   1.00
C464   C     0.48514   0.35468   0.98635   0.00000  Uiso   1.00
C465   C     0.58062   0.36248   0.96926   0.00000  Uiso   1.00
C466   C     0.35293   0.38382   0.11223   0.00000  Uiso   1.00
C467   C     0.31772   0.33825   0.13752   0.00000  Uiso   1.00
C468   C     0.33463   0.36032   0.20915   0.00000  Uiso   1.00
C469   C     0.34297   0.37140   0.32100   0.00000  Uiso   1.00
C470   C     0.32936   0.42770   0.02244   0.00000  Uiso   1.00
C471   C     0.27433   0.41904   0.97223   0.00000  Uiso   1.00
C472   C     0.27139   0.47805   0.96827   0.00000  Uiso   1.00
C473   C     0.24315   0.55727   0.94070   0.00000  Uiso   1.00
C474   C     0.43524   0.49049   0.11807   0.00000  Uiso   1.00
C475   C     0.45934   0.44701   0.07385   0.00000  Uiso   1.00
C476   C     0.52348   0.46738   0.07563   0.00000  Uiso   1.00
C477   C     0.53554   0.42009   0.03110   0.00000  Uiso   1.00
C478   C     0.40323   0.44911   0.15691   0.00000  Uiso   1.00
C479   C     0.42020   0.47125   0.22852   0.00000  Uiso   1.00
C480   C     0.38503   0.42573   0.25391   0.00000  Uiso   1.00
C481   C     0.37967   0.49299   0.06711   0.00000  Uiso   1.00
C482   C     0.37681   0.55203   0.06323   0.00000  Uiso   1.00
C483   C     0.32179   0.54346   0.01303   0.00000  Uiso   1.00
H484   H     0.30344   0.31945   0.00105   0.00000  Uiso   1.00
H485   H     0.38205   0.28386   0.95008   0.00000  Uiso   1.00
H486   H     0.27878   0.28773   0.10294   0.00000  Uiso   1.00
H487   H     0.23541   0.36850   0.93767   0.00000  Uiso   1.00
H488   H     0.49140   0.27318   0.91329   0.00000  Uiso   1.00
H489   H     0.27363   0.28135   0.23559   0.00000  Uiso   1.00
H490   H     0.18216   0.45167   0.88711   0.00000  Uiso   1.00
H491   H     0.47441   0.54133   0.15286   0.00000  Uiso   1.00
H492   H     0.56240   0.51791   0.11021   0.00000  Uiso   1.00
H493   H     0.45913   0.52178   0.26307   0.00000  Uiso   1.00
H494   H     0.41575   0.60255   0.09781   0.00000  Uiso   1.00
H495   H     0.63778   0.46315   0.04326   0.00000  Uiso   1.00
H496   H     0.42001   0.47132   0.36557   0.00000  Uiso   1.00
H497   H     0.32854   0.64164   0.01708   0.00000  Uiso   1.00
O498   O     0.61939   0.34875   0.94750   0.00000  Uiso   1.00
O499   O     0.33368   0.35947   0.37035   0.00000  Uiso   1.00
O500   O     0.21368   0.58293   0.91314   0.00000  Uiso   1.00
N501   N     0.51377   0.32111   0.94972   0.00000  Uiso   1.00
N502   N     0.31018   0.32874   0.25106   0.00000  Uiso   1.00
N503   N     0.22465   0.48798   0.92526   0.00000  Uiso   1.00
N504   N     0.59253   0.42333   0.01965   0.00000  Uiso   1.00
N505   N     0.38894   0.43096   0.32099   0.00000  Uiso   1.00
N506   N     0.30342   0.59020   0.99520   0.00000  Uiso   1.00
C507   C     0.21981   0.88496   0.29916   0.00000  Uiso   1.00
C508   C     0.27073   0.93061   0.37210   0.00000  Uiso   1.00
C509   C     0.27006   0.91785   0.43187   0.00000  Uiso   1.00
C510   C     0.32107   0.96587   0.49357   0.00000  Uiso   1.00
C511   C     0.39253   0.02784   0.60656   0.00000  Uiso   1.00
C512   C     0.19362   0.93024   0.27385   0.00000  Uiso   1.00
C513   C     0.12811   0.91716   0.25101   0.00000  Uiso   1.00
C514   C     0.11422   0.96486   0.23000   0.00000  Uiso   1.00
C515   C     0.06596   0.02623   0.19041   0.00000  Uiso   1.00
C516   C     0.25799   0.86803   0.25378   0.00000  Uiso   1.00
C517   C     0.24659   0.80265   0.21404   0.00000  Uiso   1.00
C518   C     0.28688   0.79799   0.17612   0.00000  Uiso   1.00
C519   C     0.33856   0.76278   0.10537   0.00000  Uiso   1.00
C520   C     0.31162   0.99293   0.30245   0.00000  Uiso   1.00
C521   C     0.32060   0.98925   0.37388   0.00000  Uiso   1.00
C522   C     0.37163   0.03731   0.43551   0.00000  Uiso   1.00
C523   C     0.37103   0.02462   0.49536   0.00000  Uiso   1.00
C524   C     0.24349   0.98888   0.27564   0.00000  Uiso   1.00
C525   C     0.22968   0.03661   0.25465   0.00000  Uiso   1.00
C526   C     0.16417   0.02362   0.23179   0.00000  Uiso   1.00
C527   C     0.30786   0.92668   0.25557   0.00000  Uiso   1.00
C528   C     0.34817   0.92211   0.21769   0.00000  Uiso   1.00
C529   C     0.33683   0.85674   0.17791   0.00000  Uiso   1.00
H530   H     0.18099   0.83930   0.29776   0.00000  Uiso   1.00
H531   H     0.23145   0.87246   0.43046   0.00000  Uiso   1.00
H532   H     0.08954   0.87177   0.24962   0.00000  Uiso   1.00
H533   H     0.20800   0.75728   0.21267   0.00000  Uiso   1.00
H534   H     0.30938   0.93510   0.57837   0.00000  Uiso   1.00
H535   H     0.01014   0.93362   0.19705   0.00000  Uiso   1.00
H536   H     0.25993   0.69221   0.11912   0.00000  Uiso   1.00
H537   H     0.35044   0.03859   0.30384   0.00000  Uiso   1.00
H538   H     0.41021   0.08268   0.43688   0.00000  Uiso   1.00
H539   H     0.26829   0.08199   0.25604   0.00000  Uiso   1.00
H540   H     0.38675   0.96751   0.21909   0.00000  Uiso   1.00
H541   H     0.45446   0.10572   0.58359   0.00000  Uiso   1.00
H542   H     0.15521   0.10425   0.20225   0.00000  Uiso   1.00
H543   H     0.40502   0.86284   0.12433   0.00000  Uiso   1.00
O544   O     0.41817   0.04583   0.66839   0.00000  Uiso   1.00
O545   O     0.02557   0.04389   0.16809   0.00000  Uiso   1.00
O546   O     0.35330   0.72716   0.06586   0.00000  Uiso   1.00
N547   N     0.33533   0.96920   0.56134   0.00000  Uiso   1.00
N548   N     0.05555   0.96782   0.20483   0.00000  Uiso   1.00
N549   N     0.28908   0.74212   0.13197   0.00000  Uiso   1.00
N550   N     0.41340   0.06101   0.56414   0.00000  Uiso   1.00
N551   N     0.13362   0.05963   0.20764   0.00000  Uiso   1.00
N552   N     0.36715   0.83393   0.13477   0.00000  Uiso   1.00
