data_job_05473
_audit_creation_date              2018-12-19
_audit_creation_method            'Materials Studio'
_symmetry_space_group_name_H-M    'P1'
_symmetry_Int_Tables_number       1
_symmetry_cell_setting            triclinic
loop_
_symmetry_equiv_pos_as_xyz
  x,y,z
_cell_length_a                    18.2097
_cell_length_b                    20.3398
_cell_length_c                    7.0873
_cell_angle_alpha                 90.0000
_cell_angle_beta                  90.0000
_cell_angle_gamma                 90.0000
loop_
_atom_site_label
_atom_site_type_symbol
_atom_site_fract_x
_atom_site_fract_y
_atom_site_fract_z
_atom_site_U_iso_or_equiv
_atom_site_adp_type
_atom_site_occupancy
C1     C     0.44254   0.28304   0.91744   0.00000  Uiso   1.00
C2     C     0.43512   0.21092   0.97309   0.00000  Uiso   1.00
C3     C     0.44191   0.15761   0.85215   0.00000  Uiso   1.00
C4     C     0.43321   0.09552   0.93043   0.00000  Uiso   1.00
C5     C     0.42393   0.98482   0.98756   0.00000  Uiso   1.00
C6     C     0.37120   0.31613   0.97812   0.00000  Uiso   1.00
C7     C     0.32425   0.35129   0.86142   0.00000  Uiso   1.00
C8     C     0.26175   0.37777   0.94396   0.00000  Uiso   1.00
C9     C     0.15327   0.43045   0.00893   0.00000  Uiso   1.00
C10    C     0.50242   0.31148   0.04376   0.00000  Uiso   1.00
C11    C     0.56580   0.34273   0.98225   0.00000  Uiso   1.00
C12    C     0.61377   0.36531   0.12006   0.00000  Uiso   1.00
C13    C     0.70903   0.41076   0.28694   0.00000  Uiso   1.00
C14    C     0.41502   0.26759   0.27153   0.00000  Uiso   1.00
C15    C     0.42017   0.20253   0.16541   0.00000  Uiso   1.00
C16    C     0.41147   0.14051   0.24390   0.00000  Uiso   1.00
C17    C     0.41824   0.08711   0.12310   0.00000  Uiso   1.00
C18    C     0.35625   0.30774   0.17044   0.00000  Uiso   1.00
C19    C     0.29381   0.33419   0.25317   0.00000  Uiso   1.00
C20    C     0.24678   0.36936   0.13663   0.00000  Uiso   1.00
C21    C     0.48748   0.30308   0.23609   0.00000  Uiso   1.00
C22    C     0.53536   0.32563   0.37401   0.00000  Uiso   1.00
C23    C     0.59880   0.35690   0.31273   0.00000  Uiso   1.00
H24    H     0.45417   0.28958   0.76771   0.00000  Uiso   1.00
H25    H     0.45347   0.16413   0.70331   0.00000  Uiso   1.00
H26    H     0.33584   0.35778   0.71260   0.00000  Uiso   1.00
H27    H     0.57735   0.34922   0.83341   0.00000  Uiso   1.00
H28    H     0.44608   0.02134   0.71672   0.00000  Uiso   1.00
H29    H     0.19806   0.42968   0.73631   0.00000  Uiso   1.00
H30    H     0.70733   0.41163   0.99107   0.00000  Uiso   1.00
H31    H     0.40338   0.26105   0.42126   0.00000  Uiso   1.00
H32    H     0.39990   0.13403   0.39274   0.00000  Uiso   1.00
H33    H     0.28226   0.32768   0.40201   0.00000  Uiso   1.00
H34    H     0.52377   0.31912   0.52283   0.00000  Uiso   1.00
H35    H     0.40259   0.99691   0.27628   0.00000  Uiso   1.00
H36    H     0.15457   0.40526   0.29586   0.00000  Uiso   1.00
H37    H     0.66384   0.38721   0.55063   0.00000  Uiso   1.00
O38    O     0.42294   0.92608   0.96593   0.00000  Uiso   1.00
O39    O     0.09755   0.46182   0.99163   0.00000  Uiso   1.00
O40    O     0.76570   0.43814   0.32587   0.00000  Uiso   1.00
N41    N     0.43634   0.03302   0.85234   0.00000  Uiso   1.00
N42    N     0.20444   0.41479   0.87064   0.00000  Uiso   1.00
N43    N     0.68056   0.39793   0.10882   0.00000  Uiso   1.00
N44    N     0.41294   0.01988   0.15343   0.00000  Uiso   1.00
N45    N     0.18105   0.40164   0.17173   0.00000  Uiso   1.00
N46    N     0.65716   0.38479   0.40992   0.00000  Uiso   1.00
C47    C     0.55746   0.71696   0.41744   0.00000  Uiso   1.00
C48    C     0.56488   0.78908   0.47309   0.00000  Uiso   1.00
C49    C     0.55809   0.84239   0.35215   0.00000  Uiso   1.00
C50    C     0.56679   0.90448   0.43043   0.00000  Uiso   1.00
C51    C     0.57607   0.01518   0.48756   0.00000  Uiso   1.00
C52    C     0.62880   0.68387   0.47812   0.00000  Uiso   1.00
C53    C     0.67575   0.64871   0.36142   0.00000  Uiso   1.00
C54    C     0.73825   0.62223   0.44396   0.00000  Uiso   1.00
C55    C     0.84673   0.56955   0.50893   0.00000  Uiso   1.00
C56    C     0.49758   0.68852   0.54376   0.00000  Uiso   1.00
C57    C     0.43420   0.65727   0.48225   0.00000  Uiso   1.00
C58    C     0.38623   0.63469   0.62006   0.00000  Uiso   1.00
C59    C     0.29097   0.58924   0.78694   0.00000  Uiso   1.00
C60    C     0.58498   0.73241   0.77153   0.00000  Uiso   1.00
C61    C     0.57983   0.79747   0.66541   0.00000  Uiso   1.00
C62    C     0.58853   0.85949   0.74390   0.00000  Uiso   1.00
C63    C     0.58176   0.91289   0.62310   0.00000  Uiso   1.00
C64    C     0.64375   0.69226   0.67044   0.00000  Uiso   1.00
C65    C     0.70619   0.66581   0.75317   0.00000  Uiso   1.00
C66    C     0.75322   0.63064   0.63663   0.00000  Uiso   1.00
C67    C     0.51252   0.69692   0.73609   0.00000  Uiso   1.00
C68    C     0.46464   0.67437   0.87401   0.00000  Uiso   1.00
C69    C     0.40120   0.64310   0.81273   0.00000  Uiso   1.00
H70    H     0.54583   0.71042   0.26771   0.00000  Uiso   1.00
H71    H     0.54653   0.83587   0.20331   0.00000  Uiso   1.00
H72    H     0.66416   0.64222   0.21260   0.00000  Uiso   1.00
H73    H     0.42265   0.65078   0.33341   0.00000  Uiso   1.00
H74    H     0.55392   0.97866   0.21672   0.00000  Uiso   1.00
H75    H     0.80194   0.57032   0.23631   0.00000  Uiso   1.00
H76    H     0.29267   0.58837   0.49107   0.00000  Uiso   1.00
H77    H     0.59662   0.73895   0.92126   0.00000  Uiso   1.00
H78    H     0.60010   0.86597   0.89274   0.00000  Uiso   1.00
H79    H     0.71774   0.67232   0.90201   0.00000  Uiso   1.00
H80    H     0.47623   0.68088   0.02283   0.00000  Uiso   1.00
H81    H     0.59741   0.00309   0.77628   0.00000  Uiso   1.00
H82    H     0.84543   0.59474   0.79586   0.00000  Uiso   1.00
H83    H     0.33616   0.61279   0.05063   0.00000  Uiso   1.00
O84    O     0.57706   0.07392   0.46593   0.00000  Uiso   1.00
O85    O     0.90245   0.53818   0.49163   0.00000  Uiso   1.00
O86    O     0.23430   0.56186   0.82587   0.00000  Uiso   1.00
N87    N     0.56366   0.96698   0.35234   0.00000  Uiso   1.00
N88    N     0.79556   0.58521   0.37064   0.00000  Uiso   1.00
N89    N     0.31944   0.60207   0.60882   0.00000  Uiso   1.00
N90    N     0.58706   0.98012   0.65343   0.00000  Uiso   1.00
N91    N     0.81895   0.59836   0.67173   0.00000  Uiso   1.00
N92    N     0.34284   0.61521   0.90992   0.00000  Uiso   1.00
C93    C     0.94254   0.21696   0.91744   0.00000  Uiso   1.00
C94    C     0.93512   0.28908   0.97309   0.00000  Uiso   1.00
C95    C     0.94191   0.34239   0.85215   0.00000  Uiso   1.00
C96    C     0.93321   0.40448   0.93043   0.00000  Uiso   1.00
C97    C     0.92393   0.51518   0.98756   0.00000  Uiso   1.00
C98    C     0.87120   0.18387   0.97812   0.00000  Uiso   1.00
C99    C     0.82425   0.14871   0.86142   0.00000  Uiso   1.00
C100   C     0.76175   0.12223   0.94396   0.00000  Uiso   1.00
C101   C     0.65327   0.06955   0.00893   0.00000  Uiso   1.00
C102   C     0.00242   0.18852   0.04376   0.00000  Uiso   1.00
C103   C     0.06580   0.15727   0.98225   0.00000  Uiso   1.00
C104   C     0.11377   0.13469   0.12006   0.00000  Uiso   1.00
C105   C     0.20903   0.08924   0.28694   0.00000  Uiso   1.00
C106   C     0.91502   0.23241   0.27153   0.00000  Uiso   1.00
C107   C     0.92017   0.29747   0.16541   0.00000  Uiso   1.00
C108   C     0.91147   0.35949   0.24390   0.00000  Uiso   1.00
C109   C     0.91824   0.41289   0.12310   0.00000  Uiso   1.00
C110   C     0.85625   0.19226   0.17044   0.00000  Uiso   1.00
C111   C     0.79381   0.16581   0.25317   0.00000  Uiso   1.00
C112   C     0.74678   0.13064   0.13663   0.00000  Uiso   1.00
C113   C     0.98748   0.19692   0.23609   0.00000  Uiso   1.00
C114   C     0.03536   0.17437   0.37401   0.00000  Uiso   1.00
C115   C     0.09880   0.14310   0.31273   0.00000  Uiso   1.00
H116   H     0.95417   0.21042   0.76771   0.00000  Uiso   1.00
H117   H     0.95347   0.33587   0.70331   0.00000  Uiso   1.00
H118   H     0.83584   0.14222   0.71260   0.00000  Uiso   1.00
H119   H     0.07735   0.15078   0.83341   0.00000  Uiso   1.00
H120   H     0.94608   0.47866   0.71672   0.00000  Uiso   1.00
H121   H     0.69806   0.07032   0.73631   0.00000  Uiso   1.00
H122   H     0.20733   0.08837   0.99107   0.00000  Uiso   1.00
H123   H     0.90338   0.23895   0.42126   0.00000  Uiso   1.00
H124   H     0.89990   0.36597   0.39274   0.00000  Uiso   1.00
H125   H     0.78226   0.17232   0.40201   0.00000  Uiso   1.00
H126   H     0.02377   0.18088   0.52283   0.00000  Uiso   1.00
H127   H     0.90259   0.50309   0.27628   0.00000  Uiso   1.00
H128   H     0.65457   0.09474   0.29586   0.00000  Uiso   1.00
H129   H     0.16384   0.11279   0.55063   0.00000  Uiso   1.00
O130   O     0.92294   0.57392   0.96593   0.00000  Uiso   1.00
O131   O     0.59755   0.03818   0.99163   0.00000  Uiso   1.00
O132   O     0.26570   0.06186   0.32587   0.00000  Uiso   1.00
N133   N     0.93634   0.46698   0.85234   0.00000  Uiso   1.00
N134   N     0.70444   0.08521   0.87064   0.00000  Uiso   1.00
N135   N     0.18056   0.10207   0.10882   0.00000  Uiso   1.00
N136   N     0.91294   0.48012   0.15343   0.00000  Uiso   1.00
N137   N     0.68105   0.09836   0.17173   0.00000  Uiso   1.00
N138   N     0.15716   0.11521   0.40992   0.00000  Uiso   1.00
C139   C     0.05746   0.78304   0.41744   0.00000  Uiso   1.00
C140   C     0.06488   0.71092   0.47309   0.00000  Uiso   1.00
C141   C     0.05809   0.65761   0.35215   0.00000  Uiso   1.00
C142   C     0.06679   0.59552   0.43043   0.00000  Uiso   1.00
C143   C     0.07607   0.48482   0.48756   0.00000  Uiso   1.00
C144   C     0.12880   0.81613   0.47812   0.00000  Uiso   1.00
C145   C     0.17575   0.85129   0.36142   0.00000  Uiso   1.00
C146   C     0.23825   0.87777   0.44396   0.00000  Uiso   1.00
C147   C     0.34673   0.93045   0.50893   0.00000  Uiso   1.00
C148   C     0.99758   0.81148   0.54376   0.00000  Uiso   1.00
C149   C     0.93420   0.84273   0.48225   0.00000  Uiso   1.00
C150   C     0.88623   0.86531   0.62006   0.00000  Uiso   1.00
C151   C     0.79097   0.91076   0.78694   0.00000  Uiso   1.00
C152   C     0.08498   0.76759   0.77153   0.00000  Uiso   1.00
C153   C     0.07983   0.70253   0.66541   0.00000  Uiso   1.00
C154   C     0.08853   0.64051   0.74390   0.00000  Uiso   1.00
C155   C     0.08176   0.58711   0.62310   0.00000  Uiso   1.00
C156   C     0.14375   0.80774   0.67044   0.00000  Uiso   1.00
C157   C     0.20619   0.83419   0.75317   0.00000  Uiso   1.00
C158   C     0.25322   0.86936   0.63663   0.00000  Uiso   1.00
C159   C     0.01252   0.80308   0.73609   0.00000  Uiso   1.00
C160   C     0.96464   0.82563   0.87401   0.00000  Uiso   1.00
C161   C     0.90120   0.85690   0.81273   0.00000  Uiso   1.00
H162   H     0.04583   0.78958   0.26771   0.00000  Uiso   1.00
H163   H     0.04653   0.66413   0.20331   0.00000  Uiso   1.00
H164   H     0.16416   0.85778   0.21260   0.00000  Uiso   1.00
H165   H     0.92265   0.84922   0.33341   0.00000  Uiso   1.00
H166   H     0.05392   0.52134   0.21672   0.00000  Uiso   1.00
H167   H     0.30194   0.92968   0.23631   0.00000  Uiso   1.00
H168   H     0.79267   0.91163   0.49107   0.00000  Uiso   1.00
H169   H     0.09662   0.76105   0.92126   0.00000  Uiso   1.00
H170   H     0.10010   0.63403   0.89274   0.00000  Uiso   1.00
H171   H     0.21774   0.82768   0.90201   0.00000  Uiso   1.00
H172   H     0.97623   0.81912   0.02283   0.00000  Uiso   1.00
H173   H     0.09741   0.49691   0.77628   0.00000  Uiso   1.00
H174   H     0.34543   0.90526   0.79586   0.00000  Uiso   1.00
H175   H     0.83616   0.88721   0.05063   0.00000  Uiso   1.00
O176   O     0.07706   0.42608   0.46593   0.00000  Uiso   1.00
O177   O     0.40245   0.96182   0.49163   0.00000  Uiso   1.00
O178   O     0.73430   0.93814   0.82587   0.00000  Uiso   1.00
N179   N     0.06366   0.53302   0.35234   0.00000  Uiso   1.00
N180   N     0.29556   0.91479   0.37064   0.00000  Uiso   1.00
N181   N     0.81944   0.89793   0.60882   0.00000  Uiso   1.00
N182   N     0.08706   0.51988   0.65343   0.00000  Uiso   1.00
N183   N     0.31895   0.90164   0.67173   0.00000  Uiso   1.00
N184   N     0.84284   0.88479   0.90992   0.00000  Uiso   1.00
