data_job_01202
_audit_creation_date              2018-12-19
_audit_creation_method            'Materials Studio'
_symmetry_space_group_name_H-M    'P1'
_symmetry_Int_Tables_number       1
_symmetry_cell_setting            triclinic
loop_
_symmetry_equiv_pos_as_xyz
  x,y,z
_cell_length_a                    25.4360
_cell_length_b                    15.8034
_cell_length_c                    15.4338
_cell_angle_alpha                 90.0000
_cell_angle_beta                  94.1172
_cell_angle_gamma                 90.0000
loop_
_atom_site_label
_atom_site_type_symbol
_atom_site_fract_x
_atom_site_fract_y
_atom_site_fract_z
_atom_site_U_iso_or_equiv
_atom_site_adp_type
_atom_site_occupancy
C1     C     0.10668   0.11459   0.63732   0.00000  Uiso   1.00
C2     C     0.15739   0.12386   0.69551   0.00000  Uiso   1.00
C3     C     0.16198   0.16320   0.77608   0.00000  Uiso   1.00
C4     C     0.21180   0.16511   0.81914   0.00000  Uiso   1.00
C5     C     0.28391   0.18504   0.91499   0.00000  Uiso   1.00
C6     C     0.11779   0.15424   0.55042   0.00000  Uiso   1.00
C7     C     0.08908   0.21912   0.50901   0.00000  Uiso   1.00
C8     C     0.10556   0.24659   0.42992   0.00000  Uiso   1.00
C9     C     0.11616   0.31364   0.30050   0.00000  Uiso   1.00
C10    C     0.09990   0.02004   0.62022   0.00000  Uiso   1.00
C11    C     0.05615   0.97209   0.63747   0.00000  Uiso   1.00
C12    C     0.05758   0.88658   0.61712   0.00000  Uiso   1.00
C13    C     0.04041   0.74528   0.59607   0.00000  Uiso   1.00
C14    C     0.18700   0.04799   0.57049   0.00000  Uiso   1.00
C15    C     0.20101   0.08769   0.65921   0.00000  Uiso   1.00
C16    C     0.25084   0.08953   0.70215   0.00000  Uiso   1.00
C17    C     0.25551   0.12887   0.78278   0.00000  Uiso   1.00
C18    C     0.16141   0.11807   0.51413   0.00000  Uiso   1.00
C19    C     0.17794   0.14544   0.43508   0.00000  Uiso   1.00
C20    C     0.14927   0.21035   0.39356   0.00000  Uiso   1.00
C21    C     0.14353   0.98387   0.58392   0.00000  Uiso   1.00
C22    C     0.14502   0.89842   0.56354   0.00000  Uiso   1.00
C23    C     0.10128   0.85034   0.58076   0.00000  Uiso   1.00
H24    H     0.07271   0.14275   0.66557   0.00000  Uiso   1.00
H25    H     0.12821   0.19119   0.80415   0.00000  Uiso   1.00
H26    H     0.05531   0.24709   0.53711   0.00000  Uiso   1.00
H27    H     0.02240   0.00010   0.66556   0.00000  Uiso   1.00
H28    H     0.20898   0.22898   0.94177   0.00000  Uiso   1.00
H29    H     0.05527   0.34682   0.37869   0.00000  Uiso   1.00
H30    H     0.98586   0.82600   0.64954   0.00000  Uiso   1.00
H31    H     0.22096   0.01983   0.54223   0.00000  Uiso   1.00
H32    H     0.28460   0.06153   0.67404   0.00000  Uiso   1.00
H33    H     0.21170   0.11743   0.40701   0.00000  Uiso   1.00
H34    H     0.17878   0.87045   0.53545   0.00000  Uiso   1.00
H35    H     0.33591   0.12374   0.83617   0.00000  Uiso   1.00
H36    H     0.18219   0.24159   0.27309   0.00000  Uiso   1.00
H37    H     0.11279   0.72077   0.54394   0.00000  Uiso   1.00
O38    O     0.31163   0.20603   0.97789   0.00000  Uiso   1.00
O39    O     0.10996   0.36063   0.23915   0.00000  Uiso   1.00
O40    O     0.01890   0.67733   0.59450   0.00000  Uiso   1.00
N41    N     0.23012   0.19847   0.89883   0.00000  Uiso   1.00
N42    N     0.08641   0.30866   0.37240   0.00000  Uiso   1.00
N43    N     0.02151   0.82174   0.62559   0.00000  Uiso   1.00
N44    N     0.29842   0.14185   0.84201   0.00000  Uiso   1.00
N45    N     0.15471   0.25204   0.31557   0.00000  Uiso   1.00
N46    N     0.08981   0.76511   0.56877   0.00000  Uiso   1.00
C47    C     0.60668   0.61459   0.63732   0.00000  Uiso   1.00
C48    C     0.65739   0.62386   0.69551   0.00000  Uiso   1.00
C49    C     0.66198   0.66320   0.77608   0.00000  Uiso   1.00
C50    C     0.71180   0.66511   0.81914   0.00000  Uiso   1.00
C51    C     0.78391   0.68504   0.91499   0.00000  Uiso   1.00
C52    C     0.61779   0.65424   0.55042   0.00000  Uiso   1.00
C53    C     0.58908   0.71912   0.50901   0.00000  Uiso   1.00
C54    C     0.60556   0.74659   0.42992   0.00000  Uiso   1.00
C55    C     0.61616   0.81364   0.30050   0.00000  Uiso   1.00
C56    C     0.59990   0.52004   0.62022   0.00000  Uiso   1.00
C57    C     0.55615   0.47209   0.63747   0.00000  Uiso   1.00
C58    C     0.55758   0.38658   0.61712   0.00000  Uiso   1.00
C59    C     0.54041   0.24528   0.59607   0.00000  Uiso   1.00
C60    C     0.68700   0.54799   0.57049   0.00000  Uiso   1.00
C61    C     0.70101   0.58769   0.65921   0.00000  Uiso   1.00
C62    C     0.75084   0.58953   0.70215   0.00000  Uiso   1.00
C63    C     0.75551   0.62887   0.78278   0.00000  Uiso   1.00
C64    C     0.66141   0.61807   0.51413   0.00000  Uiso   1.00
C65    C     0.67794   0.64544   0.43508   0.00000  Uiso   1.00
C66    C     0.64927   0.71035   0.39356   0.00000  Uiso   1.00
C67    C     0.64353   0.48387   0.58392   0.00000  Uiso   1.00
C68    C     0.64502   0.39842   0.56354   0.00000  Uiso   1.00
C69    C     0.60128   0.35034   0.58076   0.00000  Uiso   1.00
H70    H     0.57271   0.64275   0.66557   0.00000  Uiso   1.00
H71    H     0.62821   0.69119   0.80415   0.00000  Uiso   1.00
H72    H     0.55531   0.74709   0.53711   0.00000  Uiso   1.00
H73    H     0.52240   0.50010   0.66556   0.00000  Uiso   1.00
H74    H     0.70898   0.72898   0.94177   0.00000  Uiso   1.00
H75    H     0.55527   0.84682   0.37869   0.00000  Uiso   1.00
H76    H     0.48586   0.32600   0.64954   0.00000  Uiso   1.00
H77    H     0.72096   0.51983   0.54223   0.00000  Uiso   1.00
H78    H     0.78460   0.56153   0.67404   0.00000  Uiso   1.00
H79    H     0.71170   0.61743   0.40701   0.00000  Uiso   1.00
H80    H     0.67878   0.37045   0.53545   0.00000  Uiso   1.00
H81    H     0.83591   0.62374   0.83617   0.00000  Uiso   1.00
H82    H     0.68219   0.74159   0.27309   0.00000  Uiso   1.00
H83    H     0.61279   0.22077   0.54394   0.00000  Uiso   1.00
O84    O     0.81163   0.70603   0.97789   0.00000  Uiso   1.00
O85    O     0.60996   0.86063   0.23915   0.00000  Uiso   1.00
O86    O     0.51890   0.17733   0.59450   0.00000  Uiso   1.00
N87    N     0.73012   0.69847   0.89883   0.00000  Uiso   1.00
N88    N     0.58641   0.80866   0.37240   0.00000  Uiso   1.00
N89    N     0.52151   0.32174   0.62559   0.00000  Uiso   1.00
N90    N     0.79842   0.64185   0.84201   0.00000  Uiso   1.00
N91    N     0.65471   0.75204   0.31557   0.00000  Uiso   1.00
N92    N     0.58981   0.26511   0.56877   0.00000  Uiso   1.00
C93    C     0.89332   0.11459   0.86268   0.00000  Uiso   1.00
C94    C     0.84261   0.12386   0.80449   0.00000  Uiso   1.00
C95    C     0.83802   0.16320   0.72392   0.00000  Uiso   1.00
C96    C     0.78820   0.16511   0.68086   0.00000  Uiso   1.00
C97    C     0.71609   0.18504   0.58501   0.00000  Uiso   1.00
C98    C     0.88221   0.15424   0.94958   0.00000  Uiso   1.00
C99    C     0.91092   0.21912   0.99099   0.00000  Uiso   1.00
C100   C     0.89444   0.24659   0.07008   0.00000  Uiso   1.00
C101   C     0.88384   0.31364   0.19950   0.00000  Uiso   1.00
C102   C     0.90010   0.02004   0.87978   0.00000  Uiso   1.00
C103   C     0.94385   0.97209   0.86253   0.00000  Uiso   1.00
C104   C     0.94242   0.88658   0.88288   0.00000  Uiso   1.00
C105   C     0.95959   0.74528   0.90393   0.00000  Uiso   1.00
C106   C     0.81300   0.04799   0.92951   0.00000  Uiso   1.00
C107   C     0.79899   0.08769   0.84079   0.00000  Uiso   1.00
C108   C     0.74916   0.08953   0.79785   0.00000  Uiso   1.00
C109   C     0.74449   0.12887   0.71722   0.00000  Uiso   1.00
C110   C     0.83859   0.11807   0.98587   0.00000  Uiso   1.00
C111   C     0.82206   0.14544   0.06492   0.00000  Uiso   1.00
C112   C     0.85073   0.21035   0.10644   0.00000  Uiso   1.00
C113   C     0.85647   0.98387   0.91608   0.00000  Uiso   1.00
C114   C     0.85498   0.89842   0.93646   0.00000  Uiso   1.00
C115   C     0.89872   0.85034   0.91924   0.00000  Uiso   1.00
H116   H     0.92729   0.14275   0.83443   0.00000  Uiso   1.00
H117   H     0.87179   0.19119   0.69585   0.00000  Uiso   1.00
H118   H     0.94469   0.24709   0.96289   0.00000  Uiso   1.00
H119   H     0.97760   0.00010   0.83444   0.00000  Uiso   1.00
H120   H     0.79102   0.22898   0.55823   0.00000  Uiso   1.00
H121   H     0.94473   0.34682   0.12131   0.00000  Uiso   1.00
H122   H     0.01414   0.82600   0.85046   0.00000  Uiso   1.00
H123   H     0.77904   0.01983   0.95777   0.00000  Uiso   1.00
H124   H     0.71540   0.06153   0.82596   0.00000  Uiso   1.00
H125   H     0.78830   0.11743   0.09299   0.00000  Uiso   1.00
H126   H     0.82122   0.87045   0.96455   0.00000  Uiso   1.00
H127   H     0.66409   0.12374   0.66383   0.00000  Uiso   1.00
H128   H     0.81781   0.24159   0.22691   0.00000  Uiso   1.00
H129   H     0.88721   0.72077   0.95606   0.00000  Uiso   1.00
O130   O     0.68837   0.20603   0.52211   0.00000  Uiso   1.00
O131   O     0.89004   0.36063   0.26085   0.00000  Uiso   1.00
O132   O     0.98110   0.67733   0.90550   0.00000  Uiso   1.00
N133   N     0.76988   0.19847   0.60117   0.00000  Uiso   1.00
N134   N     0.91359   0.30866   0.12760   0.00000  Uiso   1.00
N135   N     0.97849   0.82174   0.87441   0.00000  Uiso   1.00
N136   N     0.70158   0.14185   0.65799   0.00000  Uiso   1.00
N137   N     0.84529   0.25204   0.18443   0.00000  Uiso   1.00
N138   N     0.91019   0.76511   0.93123   0.00000  Uiso   1.00
C139   C     0.39332   0.61459   0.86268   0.00000  Uiso   1.00
C140   C     0.34261   0.62386   0.80449   0.00000  Uiso   1.00
C141   C     0.33802   0.66320   0.72392   0.00000  Uiso   1.00
C142   C     0.28820   0.66511   0.68086   0.00000  Uiso   1.00
C143   C     0.21609   0.68504   0.58501   0.00000  Uiso   1.00
C144   C     0.38221   0.65424   0.94958   0.00000  Uiso   1.00
C145   C     0.41092   0.71912   0.99099   0.00000  Uiso   1.00
C146   C     0.39444   0.74659   0.07008   0.00000  Uiso   1.00
C147   C     0.38384   0.81364   0.19950   0.00000  Uiso   1.00
C148   C     0.40010   0.52004   0.87978   0.00000  Uiso   1.00
C149   C     0.44385   0.47209   0.86253   0.00000  Uiso   1.00
C150   C     0.44242   0.38658   0.88288   0.00000  Uiso   1.00
C151   C     0.45959   0.24528   0.90393   0.00000  Uiso   1.00
C152   C     0.31300   0.54799   0.92951   0.00000  Uiso   1.00
C153   C     0.29899   0.58769   0.84079   0.00000  Uiso   1.00
C154   C     0.24916   0.58953   0.79785   0.00000  Uiso   1.00
C155   C     0.24449   0.62887   0.71722   0.00000  Uiso   1.00
C156   C     0.33859   0.61807   0.98587   0.00000  Uiso   1.00
C157   C     0.32206   0.64544   0.06492   0.00000  Uiso   1.00
C158   C     0.35073   0.71035   0.10644   0.00000  Uiso   1.00
C159   C     0.35647   0.48387   0.91608   0.00000  Uiso   1.00
C160   C     0.35498   0.39842   0.93646   0.00000  Uiso   1.00
C161   C     0.39872   0.35034   0.91924   0.00000  Uiso   1.00
H162   H     0.42729   0.64275   0.83443   0.00000  Uiso   1.00
H163   H     0.37179   0.69119   0.69585   0.00000  Uiso   1.00
H164   H     0.44469   0.74709   0.96289   0.00000  Uiso   1.00
H165   H     0.47760   0.50010   0.83444   0.00000  Uiso   1.00
H166   H     0.29102   0.72898   0.55823   0.00000  Uiso   1.00
H167   H     0.44473   0.84682   0.12131   0.00000  Uiso   1.00
H168   H     0.51414   0.32600   0.85046   0.00000  Uiso   1.00
H169   H     0.27904   0.51983   0.95777   0.00000  Uiso   1.00
H170   H     0.21540   0.56153   0.82596   0.00000  Uiso   1.00
H171   H     0.28830   0.61743   0.09299   0.00000  Uiso   1.00
H172   H     0.32122   0.37045   0.96455   0.00000  Uiso   1.00
H173   H     0.16409   0.62374   0.66383   0.00000  Uiso   1.00
H174   H     0.31781   0.74159   0.22691   0.00000  Uiso   1.00
H175   H     0.38721   0.22077   0.95606   0.00000  Uiso   1.00
O176   O     0.18837   0.70603   0.52211   0.00000  Uiso   1.00
O177   O     0.39004   0.86063   0.26085   0.00000  Uiso   1.00
O178   O     0.48110   0.17733   0.90550   0.00000  Uiso   1.00
N179   N     0.26988   0.69847   0.60117   0.00000  Uiso   1.00
N180   N     0.41359   0.80866   0.12760   0.00000  Uiso   1.00
N181   N     0.47849   0.32174   0.87441   0.00000  Uiso   1.00
N182   N     0.20158   0.64185   0.65799   0.00000  Uiso   1.00
N183   N     0.34529   0.75204   0.18443   0.00000  Uiso   1.00
N184   N     0.41019   0.26511   0.93123   0.00000  Uiso   1.00
C185   C     0.89332   0.88541   0.36268   0.00000  Uiso   1.00
C186   C     0.84261   0.87614   0.30449   0.00000  Uiso   1.00
C187   C     0.83802   0.83680   0.22392   0.00000  Uiso   1.00
C188   C     0.78820   0.83489   0.18086   0.00000  Uiso   1.00
C189   C     0.71609   0.81496   0.08501   0.00000  Uiso   1.00
C190   C     0.88221   0.84576   0.44958   0.00000  Uiso   1.00
C191   C     0.91092   0.78088   0.49099   0.00000  Uiso   1.00
C192   C     0.89444   0.75341   0.57008   0.00000  Uiso   1.00
C193   C     0.88384   0.68636   0.69950   0.00000  Uiso   1.00
C194   C     0.90010   0.97996   0.37978   0.00000  Uiso   1.00
C195   C     0.94385   0.02791   0.36253   0.00000  Uiso   1.00
C196   C     0.94242   0.11342   0.38288   0.00000  Uiso   1.00
C197   C     0.95959   0.25472   0.40393   0.00000  Uiso   1.00
C198   C     0.81300   0.95201   0.42951   0.00000  Uiso   1.00
C199   C     0.79899   0.91231   0.34079   0.00000  Uiso   1.00
C200   C     0.74916   0.91047   0.29785   0.00000  Uiso   1.00
C201   C     0.74449   0.87113   0.21722   0.00000  Uiso   1.00
C202   C     0.83859   0.88193   0.48587   0.00000  Uiso   1.00
C203   C     0.82206   0.85456   0.56492   0.00000  Uiso   1.00
C204   C     0.85073   0.78965   0.60644   0.00000  Uiso   1.00
C205   C     0.85647   0.01613   0.41608   0.00000  Uiso   1.00
C206   C     0.85498   0.10158   0.43646   0.00000  Uiso   1.00
C207   C     0.89872   0.14966   0.41924   0.00000  Uiso   1.00
H208   H     0.92729   0.85725   0.33443   0.00000  Uiso   1.00
H209   H     0.87179   0.80881   0.19585   0.00000  Uiso   1.00
H210   H     0.94469   0.75291   0.46289   0.00000  Uiso   1.00
H211   H     0.97760   0.99990   0.33444   0.00000  Uiso   1.00
H212   H     0.79102   0.77102   0.05823   0.00000  Uiso   1.00
H213   H     0.94473   0.65318   0.62131   0.00000  Uiso   1.00
H214   H     0.01414   0.17400   0.35046   0.00000  Uiso   1.00
H215   H     0.77904   0.98017   0.45777   0.00000  Uiso   1.00
H216   H     0.71540   0.93847   0.32596   0.00000  Uiso   1.00
H217   H     0.78830   0.88257   0.59299   0.00000  Uiso   1.00
H218   H     0.82122   0.12955   0.46455   0.00000  Uiso   1.00
H219   H     0.66409   0.87626   0.16383   0.00000  Uiso   1.00
H220   H     0.81781   0.75841   0.72691   0.00000  Uiso   1.00
H221   H     0.88721   0.27923   0.45606   0.00000  Uiso   1.00
O222   O     0.68837   0.79397   0.02211   0.00000  Uiso   1.00
O223   O     0.89004   0.63937   0.76085   0.00000  Uiso   1.00
O224   O     0.98110   0.32267   0.40550   0.00000  Uiso   1.00
N225   N     0.76988   0.80153   0.10117   0.00000  Uiso   1.00
N226   N     0.91359   0.69134   0.62760   0.00000  Uiso   1.00
N227   N     0.97849   0.17826   0.37441   0.00000  Uiso   1.00
N228   N     0.70158   0.85815   0.15799   0.00000  Uiso   1.00
N229   N     0.84529   0.74796   0.68443   0.00000  Uiso   1.00
N230   N     0.91019   0.23489   0.43123   0.00000  Uiso   1.00
C231   C     0.39332   0.38541   0.36268   0.00000  Uiso   1.00
C232   C     0.34261   0.37614   0.30449   0.00000  Uiso   1.00
C233   C     0.33802   0.33680   0.22392   0.00000  Uiso   1.00
C234   C     0.28820   0.33489   0.18086   0.00000  Uiso   1.00
C235   C     0.21609   0.31496   0.08501   0.00000  Uiso   1.00
C236   C     0.38221   0.34576   0.44958   0.00000  Uiso   1.00
C237   C     0.41092   0.28088   0.49099   0.00000  Uiso   1.00
C238   C     0.39444   0.25341   0.57008   0.00000  Uiso   1.00
C239   C     0.38384   0.18636   0.69950   0.00000  Uiso   1.00
C240   C     0.40010   0.47996   0.37978   0.00000  Uiso   1.00
C241   C     0.44385   0.52791   0.36253   0.00000  Uiso   1.00
C242   C     0.44242   0.61342   0.38288   0.00000  Uiso   1.00
C243   C     0.45959   0.75472   0.40393   0.00000  Uiso   1.00
C244   C     0.31300   0.45201   0.42951   0.00000  Uiso   1.00
C245   C     0.29899   0.41231   0.34079   0.00000  Uiso   1.00
C246   C     0.24916   0.41047   0.29785   0.00000  Uiso   1.00
C247   C     0.24449   0.37113   0.21722   0.00000  Uiso   1.00
C248   C     0.33859   0.38193   0.48587   0.00000  Uiso   1.00
C249   C     0.32206   0.35456   0.56492   0.00000  Uiso   1.00
C250   C     0.35073   0.28965   0.60644   0.00000  Uiso   1.00
C251   C     0.35647   0.51613   0.41608   0.00000  Uiso   1.00
C252   C     0.35498   0.60158   0.43646   0.00000  Uiso   1.00
C253   C     0.39872   0.64966   0.41924   0.00000  Uiso   1.00
H254   H     0.42729   0.35725   0.33443   0.00000  Uiso   1.00
H255   H     0.37179   0.30881   0.19585   0.00000  Uiso   1.00
H256   H     0.44469   0.25291   0.46289   0.00000  Uiso   1.00
H257   H     0.47760   0.49990   0.33444   0.00000  Uiso   1.00
H258   H     0.29102   0.27102   0.05823   0.00000  Uiso   1.00
H259   H     0.44473   0.15318   0.62131   0.00000  Uiso   1.00
H260   H     0.51414   0.67400   0.35046   0.00000  Uiso   1.00
H261   H     0.27904   0.48017   0.45777   0.00000  Uiso   1.00
H262   H     0.21540   0.43847   0.32596   0.00000  Uiso   1.00
H263   H     0.28830   0.38257   0.59299   0.00000  Uiso   1.00
H264   H     0.32122   0.62955   0.46455   0.00000  Uiso   1.00
H265   H     0.16409   0.37626   0.16383   0.00000  Uiso   1.00
H266   H     0.31781   0.25841   0.72691   0.00000  Uiso   1.00
H267   H     0.38721   0.77923   0.45606   0.00000  Uiso   1.00
O268   O     0.18837   0.29397   0.02211   0.00000  Uiso   1.00
O269   O     0.39004   0.13937   0.76085   0.00000  Uiso   1.00
O270   O     0.48110   0.82267   0.40550   0.00000  Uiso   1.00
N271   N     0.26988   0.30153   0.10117   0.00000  Uiso   1.00
N272   N     0.41359   0.19134   0.62760   0.00000  Uiso   1.00
N273   N     0.47849   0.67826   0.37441   0.00000  Uiso   1.00
N274   N     0.20158   0.35815   0.15799   0.00000  Uiso   1.00
N275   N     0.34529   0.24796   0.68443   0.00000  Uiso   1.00
N276   N     0.41019   0.73489   0.43123   0.00000  Uiso   1.00
C277   C     0.10668   0.88541   0.13732   0.00000  Uiso   1.00
C278   C     0.15739   0.87614   0.19551   0.00000  Uiso   1.00
C279   C     0.16198   0.83680   0.27608   0.00000  Uiso   1.00
C280   C     0.21180   0.83489   0.31914   0.00000  Uiso   1.00
C281   C     0.28391   0.81496   0.41499   0.00000  Uiso   1.00
C282   C     0.11779   0.84576   0.05042   0.00000  Uiso   1.00
C283   C     0.08908   0.78088   0.00901   0.00000  Uiso   1.00
C284   C     0.10556   0.75341   0.92992   0.00000  Uiso   1.00
C285   C     0.11616   0.68636   0.80050   0.00000  Uiso   1.00
C286   C     0.09990   0.97996   0.12022   0.00000  Uiso   1.00
C287   C     0.05615   0.02791   0.13747   0.00000  Uiso   1.00
C288   C     0.05758   0.11342   0.11712   0.00000  Uiso   1.00
C289   C     0.04041   0.25472   0.09607   0.00000  Uiso   1.00
C290   C     0.18700   0.95201   0.07049   0.00000  Uiso   1.00
C291   C     0.20101   0.91231   0.15921   0.00000  Uiso   1.00
C292   C     0.25084   0.91047   0.20215   0.00000  Uiso   1.00
C293   C     0.25551   0.87113   0.28278   0.00000  Uiso   1.00
C294   C     0.16141   0.88193   0.01413   0.00000  Uiso   1.00
C295   C     0.17794   0.85456   0.93508   0.00000  Uiso   1.00
C296   C     0.14927   0.78965   0.89356   0.00000  Uiso   1.00
C297   C     0.14353   0.01613   0.08392   0.00000  Uiso   1.00
C298   C     0.14502   0.10158   0.06354   0.00000  Uiso   1.00
C299   C     0.10128   0.14966   0.08076   0.00000  Uiso   1.00
H300   H     0.07271   0.85725   0.16557   0.00000  Uiso   1.00
H301   H     0.12821   0.80881   0.30415   0.00000  Uiso   1.00
H302   H     0.05531   0.75291   0.03711   0.00000  Uiso   1.00
H303   H     0.02240   0.99990   0.16556   0.00000  Uiso   1.00
H304   H     0.20898   0.77102   0.44177   0.00000  Uiso   1.00
H305   H     0.05527   0.65318   0.87869   0.00000  Uiso   1.00
H306   H     0.98586   0.17400   0.14954   0.00000  Uiso   1.00
H307   H     0.22096   0.98017   0.04223   0.00000  Uiso   1.00
H308   H     0.28460   0.93847   0.17404   0.00000  Uiso   1.00
H309   H     0.21170   0.88257   0.90701   0.00000  Uiso   1.00
H310   H     0.17878   0.12955   0.03545   0.00000  Uiso   1.00
H311   H     0.33591   0.87626   0.33617   0.00000  Uiso   1.00
H312   H     0.18219   0.75841   0.77309   0.00000  Uiso   1.00
H313   H     0.11279   0.27923   0.04394   0.00000  Uiso   1.00
O314   O     0.31163   0.79397   0.47789   0.00000  Uiso   1.00
O315   O     0.10996   0.63937   0.73915   0.00000  Uiso   1.00
O316   O     0.01890   0.32267   0.09450   0.00000  Uiso   1.00
N317   N     0.23012   0.80153   0.39883   0.00000  Uiso   1.00
N318   N     0.08641   0.69134   0.87240   0.00000  Uiso   1.00
N319   N     0.02151   0.17826   0.12559   0.00000  Uiso   1.00
N320   N     0.29842   0.85815   0.34201   0.00000  Uiso   1.00
N321   N     0.15471   0.74796   0.81557   0.00000  Uiso   1.00
N322   N     0.08981   0.23489   0.06877   0.00000  Uiso   1.00
C323   C     0.60668   0.38541   0.13732   0.00000  Uiso   1.00
C324   C     0.65739   0.37614   0.19551   0.00000  Uiso   1.00
C325   C     0.66198   0.33680   0.27608   0.00000  Uiso   1.00
C326   C     0.71180   0.33489   0.31914   0.00000  Uiso   1.00
C327   C     0.78391   0.31496   0.41499   0.00000  Uiso   1.00
C328   C     0.61779   0.34576   0.05042   0.00000  Uiso   1.00
C329   C     0.58908   0.28088   0.00901   0.00000  Uiso   1.00
C330   C     0.60556   0.25341   0.92992   0.00000  Uiso   1.00
C331   C     0.61616   0.18636   0.80050   0.00000  Uiso   1.00
C332   C     0.59990   0.47996   0.12022   0.00000  Uiso   1.00
C333   C     0.55615   0.52791   0.13747   0.00000  Uiso   1.00
C334   C     0.55758   0.61342   0.11712   0.00000  Uiso   1.00
C335   C     0.54041   0.75472   0.09607   0.00000  Uiso   1.00
C336   C     0.68700   0.45201   0.07049   0.00000  Uiso   1.00
C337   C     0.70101   0.41231   0.15921   0.00000  Uiso   1.00
C338   C     0.75084   0.41047   0.20215   0.00000  Uiso   1.00
C339   C     0.75551   0.37113   0.28278   0.00000  Uiso   1.00
C340   C     0.66141   0.38193   0.01413   0.00000  Uiso   1.00
C341   C     0.67794   0.35456   0.93508   0.00000  Uiso   1.00
C342   C     0.64927   0.28965   0.89356   0.00000  Uiso   1.00
C343   C     0.64353   0.51613   0.08392   0.00000  Uiso   1.00
C344   C     0.64502   0.60158   0.06354   0.00000  Uiso   1.00
C345   C     0.60128   0.64966   0.08076   0.00000  Uiso   1.00
H346   H     0.57271   0.35725   0.16557   0.00000  Uiso   1.00
H347   H     0.62821   0.30881   0.30415   0.00000  Uiso   1.00
H348   H     0.55531   0.25291   0.03711   0.00000  Uiso   1.00
H349   H     0.52240   0.49990   0.16556   0.00000  Uiso   1.00
H350   H     0.70898   0.27102   0.44177   0.00000  Uiso   1.00
H351   H     0.55527   0.15318   0.87869   0.00000  Uiso   1.00
H352   H     0.48586   0.67400   0.14954   0.00000  Uiso   1.00
H353   H     0.72096   0.48017   0.04223   0.00000  Uiso   1.00
H354   H     0.78460   0.43847   0.17404   0.00000  Uiso   1.00
H355   H     0.71170   0.38257   0.90701   0.00000  Uiso   1.00
H356   H     0.67878   0.62955   0.03545   0.00000  Uiso   1.00
H357   H     0.83591   0.37626   0.33617   0.00000  Uiso   1.00
H358   H     0.68219   0.25841   0.77309   0.00000  Uiso   1.00
H359   H     0.61279   0.77923   0.04394   0.00000  Uiso   1.00
O360   O     0.81163   0.29397   0.47789   0.00000  Uiso   1.00
O361   O     0.60996   0.13937   0.73915   0.00000  Uiso   1.00
O362   O     0.51890   0.82267   0.09450   0.00000  Uiso   1.00
N363   N     0.73012   0.30153   0.39883   0.00000  Uiso   1.00
N364   N     0.58641   0.19134   0.87240   0.00000  Uiso   1.00
N365   N     0.52151   0.67826   0.12559   0.00000  Uiso   1.00
N366   N     0.79842   0.35815   0.34201   0.00000  Uiso   1.00
N367   N     0.65471   0.24796   0.81557   0.00000  Uiso   1.00
N368   N     0.58981   0.73489   0.06877   0.00000  Uiso   1.00
