data_job_05961
_audit_creation_date              2018-12-19
_audit_creation_method            'Materials Studio'
_symmetry_space_group_name_H-M    'P1'
_symmetry_Int_Tables_number       1
_symmetry_cell_setting            triclinic
loop_
_symmetry_equiv_pos_as_xyz
  x,y,z
_cell_length_a                    15.5324
_cell_length_b                    15.5840
_cell_length_c                    15.6317
_cell_angle_alpha                 104.7150
_cell_angle_beta                  104.7200
_cell_angle_gamma                 104.7120
loop_
_atom_site_label
_atom_site_type_symbol
_atom_site_fract_x
_atom_site_fract_y
_atom_site_fract_z
_atom_site_U_iso_or_equiv
_atom_site_adp_type
_atom_site_occupancy
C1     C     0.23896   0.32515   0.52317   0.00000  Uiso   1.00
C2     C     0.30031   0.26352   0.53414   0.00000  Uiso   1.00
C3     C     0.39751   0.29226   0.55368   0.00000  Uiso   1.00
C4     C     0.44061   0.22527   0.56096   0.00000  Uiso   1.00
C5     C     0.54382   0.14362   0.57973   0.00000  Uiso   1.00
C6     C     0.16277   0.27443   0.42627   0.00000  Uiso   1.00
C7     C     0.14432   0.31235   0.35513   0.00000  Uiso   1.00
C8     C     0.07163   0.25454   0.27161   0.00000  Uiso   1.00
C9     C     0.96126   0.18985   0.12294   0.00000  Uiso   1.00
C10    C     0.18779   0.32093   0.59415   0.00000  Uiso   1.00
C11    C     0.19036   0.39796   0.66414   0.00000  Uiso   1.00
C12    C     0.13871   0.37931   0.72195   0.00000  Uiso   1.00
C13    C     0.06720   0.38682   0.83394   0.00000  Uiso   1.00
C14    C     0.14265   0.15505   0.50135   0.00000  Uiso   1.00
C15    C     0.24799   0.17113   0.52228   0.00000  Uiso   1.00
C16    C     0.29095   0.10407   0.52953   0.00000  Uiso   1.00
C17    C     0.38820   0.13272   0.54908   0.00000  Uiso   1.00
C18    C     0.11046   0.18204   0.41441   0.00000  Uiso   1.00
C19    C     0.03777   0.12417   0.33098   0.00000  Uiso   1.00
C20    C     0.01922   0.16199   0.25973   0.00000  Uiso   1.00
C21    C     0.13548   0.22854   0.58229   0.00000  Uiso   1.00
C22    C     0.08381   0.20977   0.63999   0.00000  Uiso   1.00
C23    C     0.08631   0.28675   0.71007   0.00000  Uiso   1.00
H24    H     0.27968   0.39707   0.53240   0.00000  Uiso   1.00
H25    H     0.43796   0.36377   0.56284   0.00000  Uiso   1.00
H26    H     0.18481   0.38385   0.36433   0.00000  Uiso   1.00
H27    H     0.23085   0.46945   0.67329   0.00000  Uiso   1.00
H28    H     0.59038   0.28608   0.59133   0.00000  Uiso   1.00
H29    H     0.05657   0.32845   0.17276   0.00000  Uiso   1.00
H30    H     0.15365   0.50894   0.82428   0.00000  Uiso   1.00
H31    H     0.10192   0.08312   0.49211   0.00000  Uiso   1.00
H32    H     0.25046   0.03259   0.52035   0.00000  Uiso   1.00
H33    H     0.99730   0.05267   0.32183   0.00000  Uiso   1.00
H34    H     0.04334   0.13827   0.63080   0.00000  Uiso   1.00
H35    H     0.43819   0.01729   0.55684   0.00000  Uiso   1.00
H36    H     0.90437   0.05966   0.13827   0.00000  Uiso   1.00
H37    H     0.00146   0.24014   0.78979   0.00000  Uiso   1.00
O38    O     0.61520   0.12410   0.59335   0.00000  Uiso   1.00
O39    O     0.91485   0.17969   0.04422   0.00000  Uiso   1.00
O40    O     0.04222   0.41649   0.89899   0.00000  Uiso   1.00
N41    N     0.53418   0.22976   0.57936   0.00000  Uiso   1.00
N42    N     0.03511   0.26937   0.18801   0.00000  Uiso   1.00
N43    N     0.12585   0.43812   0.79711   0.00000  Uiso   1.00
N44    N     0.45229   0.08513   0.56080   0.00000  Uiso   1.00
N45    N     0.95321   0.12473   0.16945   0.00000  Uiso   1.00
N46    N     0.04396   0.29348   0.77856   0.00000  Uiso   1.00
C47    C     0.52313   0.23927   0.32497   0.00000  Uiso   1.00
C48    C     0.53416   0.30042   0.26354   0.00000  Uiso   1.00
C49    C     0.55373   0.39728   0.29218   0.00000  Uiso   1.00
C50    C     0.56107   0.44025   0.22540   0.00000  Uiso   1.00
C51    C     0.57995   0.54312   0.14401   0.00000  Uiso   1.00
C52    C     0.42565   0.16327   0.27433   0.00000  Uiso   1.00
C53    C     0.35401   0.14481   0.31207   0.00000  Uiso   1.00
C54    C     0.27001   0.07230   0.25438   0.00000  Uiso   1.00
C55    C     0.12046   0.96220   0.18977   0.00000  Uiso   1.00
C56    C     0.59464   0.18835   0.32086   0.00000  Uiso   1.00
C57    C     0.66506   0.19097   0.39771   0.00000  Uiso   1.00
C58    C     0.72332   0.13956   0.37919   0.00000  Uiso   1.00
C59    C     0.83614   0.06842   0.38682   0.00000  Uiso   1.00
C60    C     0.50135   0.14332   0.15544   0.00000  Uiso   1.00
C61    C     0.52233   0.24830   0.17145   0.00000  Uiso   1.00
C62    C     0.52964   0.29113   0.10461   0.00000  Uiso   1.00
C63    C     0.54923   0.38804   0.13316   0.00000  Uiso   1.00
C64    C     0.41382   0.11115   0.18225   0.00000  Uiso   1.00
C65    C     0.32991   0.03865   0.12450   0.00000  Uiso   1.00
C66    C     0.25816   0.02009   0.16213   0.00000  Uiso   1.00
C67    C     0.58281   0.13624   0.22877   0.00000  Uiso   1.00
C68    C     0.64097   0.08482   0.21014   0.00000  Uiso   1.00
C69    C     0.71147   0.08735   0.28694   0.00000  Uiso   1.00
H70    H     0.53233   0.27983   0.39666   0.00000  Uiso   1.00
H71    H     0.56287   0.43759   0.36345   0.00000  Uiso   1.00
H72    H     0.36319   0.18514   0.38333   0.00000  Uiso   1.00
H73    H     0.67419   0.23130   0.46895   0.00000  Uiso   1.00
H74    H     0.59149   0.58950   0.28601   0.00000  Uiso   1.00
H75    H     0.17045   0.05719   0.32794   0.00000  Uiso   1.00
H76    H     0.82626   0.15452   0.50850   0.00000  Uiso   1.00
H77    H     0.49214   0.10274   0.08374   0.00000  Uiso   1.00
H78    H     0.52048   0.25078   0.03336   0.00000  Uiso   1.00
H79    H     0.32079   0.99834   0.05324   0.00000  Uiso   1.00
H80    H     0.63179   0.04450   0.13887   0.00000  Uiso   1.00
H81    H     0.55707   0.43788   0.01810   0.00000  Uiso   1.00
H82    H     0.13603   0.90556   0.06004   0.00000  Uiso   1.00
H83    H     0.79185   0.00290   0.24059   0.00000  Uiso   1.00
O84    O     0.59362   0.61426   0.12455   0.00000  Uiso   1.00
O85    O     0.04124   0.91588   0.17957   0.00000  Uiso   1.00
O86    O     0.90165   0.04358   0.41646   0.00000  Uiso   1.00
N87    N     0.57952   0.53350   0.22987   0.00000  Uiso   1.00
N88    N     0.18586   0.03583   0.26908   0.00000  Uiso   1.00
N89    N     0.79898   0.12681   0.43789   0.00000  Uiso   1.00
N90    N     0.56100   0.45192   0.08571   0.00000  Uiso   1.00
N91    N     0.16735   0.95425   0.12492   0.00000  Uiso   1.00
N92    N     0.78046   0.04522   0.29373   0.00000  Uiso   1.00
C93    C     0.32546   0.52324   0.23962   0.00000  Uiso   1.00
C94    C     0.26355   0.53416   0.30050   0.00000  Uiso   1.00
C95    C     0.29231   0.55368   0.39707   0.00000  Uiso   1.00
C96    C     0.22503   0.56091   0.43982   0.00000  Uiso   1.00
C97    C     0.14298   0.57962   0.54227   0.00000  Uiso   1.00
C98    C     0.27461   0.42609   0.16384   0.00000  Uiso   1.00
C99    C     0.31267   0.35474   0.14550   0.00000  Uiso   1.00
C100   C     0.25471   0.27100   0.07320   0.00000  Uiso   1.00
C101   C     0.18986   0.12195   0.96344   0.00000  Uiso   1.00
C102   C     0.32129   0.59450   0.18885   0.00000  Uiso   1.00
C103   C     0.39861   0.66475   0.19151   0.00000  Uiso   1.00
C104   C     0.37995   0.72279   0.14025   0.00000  Uiso   1.00
C105   C     0.38759   0.83523   0.06931   0.00000  Uiso   1.00
C106   C     0.15484   0.50140   0.14381   0.00000  Uiso   1.00
C107   C     0.17087   0.52229   0.24846   0.00000  Uiso   1.00
C108   C     0.10354   0.52951   0.29108   0.00000  Uiso   1.00
C109   C     0.13219   0.54903   0.38770   0.00000  Uiso   1.00
C110   C     0.18194   0.41422   0.11181   0.00000  Uiso   1.00
C111   C     0.12391   0.33057   0.03951   0.00000  Uiso   1.00
C112   C     0.16187   0.25911   0.02107   0.00000  Uiso   1.00
C113   C     0.22862   0.58264   0.13681   0.00000  Uiso   1.00
C114   C     0.20984   0.64058   0.08552   0.00000  Uiso   1.00
C115   C     0.28711   0.71090   0.08811   0.00000  Uiso   1.00
H116   H     0.39761   0.53248   0.28013   0.00000  Uiso   1.00
H117   H     0.36403   0.56284   0.43732   0.00000  Uiso   1.00
H118   H     0.38439   0.36395   0.18578   0.00000  Uiso   1.00
H119   H     0.47032   0.67391   0.23179   0.00000  Uiso   1.00
H120   H     0.28592   0.59125   0.58864   0.00000  Uiso   1.00
H121   H     0.32888   0.17187   0.05824   0.00000  Uiso   1.00
H122   H     0.51006   0.82548   0.15526   0.00000  Uiso   1.00
H123   H     0.08269   0.49216   0.10329   0.00000  Uiso   1.00
H124   H     0.03183   0.52032   0.25079   0.00000  Uiso   1.00
H125   H     0.05220   0.32142   0.99925   0.00000  Uiso   1.00
H126   H     0.13812   0.63138   0.04526   0.00000  Uiso   1.00
H127   H     0.01630   0.55672   0.43725   0.00000  Uiso   1.00
H128   H     0.05925   0.13735   0.90684   0.00000  Uiso   1.00
H129   H     0.24043   0.79096   0.00386   0.00000  Uiso   1.00
O130   O     0.12333   0.59321   0.61316   0.00000  Uiso   1.00
O131   O     0.17969   0.04301   0.91728   0.00000  Uiso   1.00
O132   O     0.41740   0.90053   0.04457   0.00000  Uiso   1.00
N133   N     0.22945   0.57928   0.53277   0.00000  Uiso   1.00
N134   N     0.26961   0.18718   0.03689   0.00000  Uiso   1.00
N135   N     0.43900   0.79824   0.12757   0.00000  Uiso   1.00
N136   N     0.08437   0.56070   0.45131   0.00000  Uiso   1.00
N137   N     0.12452   0.16860   0.95542   0.00000  Uiso   1.00
N138   N     0.29392   0.77966   0.04611   0.00000  Uiso   1.00
C139   C     0.76104   0.67485   0.47683   0.00000  Uiso   1.00
C140   C     0.69969   0.73648   0.46586   0.00000  Uiso   1.00
C141   C     0.60249   0.70774   0.44632   0.00000  Uiso   1.00
C142   C     0.55939   0.77473   0.43904   0.00000  Uiso   1.00
C143   C     0.45618   0.85638   0.42027   0.00000  Uiso   1.00
C144   C     0.83723   0.72557   0.57373   0.00000  Uiso   1.00
C145   C     0.85568   0.68765   0.64487   0.00000  Uiso   1.00
C146   C     0.92837   0.74545   0.72839   0.00000  Uiso   1.00
C147   C     0.03874   0.81015   0.87706   0.00000  Uiso   1.00
C148   C     0.81221   0.67907   0.40585   0.00000  Uiso   1.00
C149   C     0.80964   0.60204   0.33586   0.00000  Uiso   1.00
C150   C     0.86129   0.62069   0.27805   0.00000  Uiso   1.00
C151   C     0.93280   0.61318   0.16606   0.00000  Uiso   1.00
C152   C     0.85735   0.84495   0.49865   0.00000  Uiso   1.00
C153   C     0.75201   0.82887   0.47772   0.00000  Uiso   1.00
C154   C     0.70905   0.89592   0.47047   0.00000  Uiso   1.00
C155   C     0.61180   0.86728   0.45092   0.00000  Uiso   1.00
C156   C     0.88954   0.81796   0.58559   0.00000  Uiso   1.00
C157   C     0.96223   0.87583   0.66902   0.00000  Uiso   1.00
C158   C     0.98078   0.83801   0.74027   0.00000  Uiso   1.00
C159   C     0.86452   0.77146   0.41771   0.00000  Uiso   1.00
C160   C     0.91619   0.79023   0.36001   0.00000  Uiso   1.00
C161   C     0.91369   0.71325   0.28993   0.00000  Uiso   1.00
H162   H     0.72032   0.60293   0.46760   0.00000  Uiso   1.00
H163   H     0.56204   0.63623   0.43716   0.00000  Uiso   1.00
H164   H     0.81519   0.61615   0.63567   0.00000  Uiso   1.00
H165   H     0.76915   0.53055   0.32671   0.00000  Uiso   1.00
H166   H     0.40962   0.71392   0.40867   0.00000  Uiso   1.00
H167   H     0.94343   0.67155   0.82724   0.00000  Uiso   1.00
H168   H     0.84635   0.49106   0.17572   0.00000  Uiso   1.00
H169   H     0.89808   0.91688   0.50789   0.00000  Uiso   1.00
H170   H     0.74954   0.96741   0.47965   0.00000  Uiso   1.00
H171   H     0.00270   0.94732   0.67817   0.00000  Uiso   1.00
H172   H     0.95666   0.86173   0.36920   0.00000  Uiso   1.00
H173   H     0.56181   0.98272   0.44316   0.00000  Uiso   1.00
H174   H     0.09563   0.94034   0.86173   0.00000  Uiso   1.00
H175   H     0.99854   0.75986   0.21021   0.00000  Uiso   1.00
O176   O     0.38480   0.87590   0.40665   0.00000  Uiso   1.00
O177   O     0.08515   0.82031   0.95578   0.00000  Uiso   1.00
O178   O     0.95778   0.58351   0.10101   0.00000  Uiso   1.00
N179   N     0.46582   0.77024   0.42064   0.00000  Uiso   1.00
N180   N     0.96489   0.73063   0.81199   0.00000  Uiso   1.00
N181   N     0.87415   0.56188   0.20289   0.00000  Uiso   1.00
N182   N     0.54771   0.91487   0.43920   0.00000  Uiso   1.00
N183   N     0.04679   0.87527   0.83055   0.00000  Uiso   1.00
N184   N     0.95604   0.70652   0.22144   0.00000  Uiso   1.00
C185   C     0.47687   0.76073   0.67503   0.00000  Uiso   1.00
C186   C     0.46584   0.69958   0.73646   0.00000  Uiso   1.00
C187   C     0.44627   0.60272   0.70782   0.00000  Uiso   1.00
C188   C     0.43893   0.55975   0.77460   0.00000  Uiso   1.00
C189   C     0.42005   0.45688   0.85599   0.00000  Uiso   1.00
C190   C     0.57435   0.83673   0.72567   0.00000  Uiso   1.00
C191   C     0.64599   0.85519   0.68793   0.00000  Uiso   1.00
C192   C     0.72999   0.92770   0.74562   0.00000  Uiso   1.00
C193   C     0.87954   0.03780   0.81023   0.00000  Uiso   1.00
C194   C     0.40536   0.81165   0.67914   0.00000  Uiso   1.00
C195   C     0.33494   0.80903   0.60229   0.00000  Uiso   1.00
C196   C     0.27668   0.86044   0.62081   0.00000  Uiso   1.00
C197   C     0.16386   0.93158   0.61318   0.00000  Uiso   1.00
C198   C     0.49865   0.85668   0.84456   0.00000  Uiso   1.00
C199   C     0.47767   0.75170   0.82855   0.00000  Uiso   1.00
C200   C     0.47036   0.70887   0.89539   0.00000  Uiso   1.00
C201   C     0.45077   0.61196   0.86684   0.00000  Uiso   1.00
C202   C     0.58618   0.88885   0.81775   0.00000  Uiso   1.00
C203   C     0.67009   0.96135   0.87550   0.00000  Uiso   1.00
C204   C     0.74184   0.97991   0.83787   0.00000  Uiso   1.00
C205   C     0.41719   0.86376   0.77123   0.00000  Uiso   1.00
C206   C     0.35903   0.91518   0.78986   0.00000  Uiso   1.00
C207   C     0.28853   0.91265   0.71306   0.00000  Uiso   1.00
H208   H     0.46767   0.72017   0.60334   0.00000  Uiso   1.00
H209   H     0.43713   0.56241   0.63655   0.00000  Uiso   1.00
H210   H     0.63681   0.81486   0.61667   0.00000  Uiso   1.00
H211   H     0.32581   0.76870   0.53105   0.00000  Uiso   1.00
H212   H     0.40851   0.41050   0.71399   0.00000  Uiso   1.00
H213   H     0.82955   0.94281   0.67206   0.00000  Uiso   1.00
H214   H     0.17374   0.84548   0.49150   0.00000  Uiso   1.00
H215   H     0.50786   0.89726   0.91626   0.00000  Uiso   1.00
H216   H     0.47952   0.74922   0.96664   0.00000  Uiso   1.00
H217   H     0.67921   0.00166   0.94676   0.00000  Uiso   1.00
H218   H     0.36821   0.95550   0.86113   0.00000  Uiso   1.00
H219   H     0.44293   0.56212   0.98190   0.00000  Uiso   1.00
H220   H     0.86397   0.09444   0.93996   0.00000  Uiso   1.00
H221   H     0.20815   0.99710   0.75941   0.00000  Uiso   1.00
O222   O     0.40638   0.38574   0.87545   0.00000  Uiso   1.00
O223   O     0.95876   0.08412   0.82043   0.00000  Uiso   1.00
O224   O     0.09835   0.95642   0.58354   0.00000  Uiso   1.00
N225   N     0.42048   0.46650   0.77013   0.00000  Uiso   1.00
N226   N     0.81414   0.96417   0.73092   0.00000  Uiso   1.00
N227   N     0.20102   0.87319   0.56211   0.00000  Uiso   1.00
N228   N     0.43900   0.54808   0.91429   0.00000  Uiso   1.00
N229   N     0.83265   0.04575   0.87508   0.00000  Uiso   1.00
N230   N     0.21954   0.95478   0.70627   0.00000  Uiso   1.00
C231   C     0.67454   0.47676   0.76038   0.00000  Uiso   1.00
C232   C     0.73645   0.46584   0.69950   0.00000  Uiso   1.00
C233   C     0.70769   0.44632   0.60293   0.00000  Uiso   1.00
C234   C     0.77497   0.43909   0.56018   0.00000  Uiso   1.00
C235   C     0.85702   0.42038   0.45773   0.00000  Uiso   1.00
C236   C     0.72539   0.57391   0.83616   0.00000  Uiso   1.00
C237   C     0.68733   0.64526   0.85450   0.00000  Uiso   1.00
C238   C     0.74529   0.72900   0.92680   0.00000  Uiso   1.00
C239   C     0.81014   0.87805   0.03656   0.00000  Uiso   1.00
C240   C     0.67871   0.40550   0.81115   0.00000  Uiso   1.00
C241   C     0.60139   0.33525   0.80849   0.00000  Uiso   1.00
C242   C     0.62005   0.27721   0.85975   0.00000  Uiso   1.00
C243   C     0.61241   0.16477   0.93069   0.00000  Uiso   1.00
C244   C     0.84516   0.49860   0.85619   0.00000  Uiso   1.00
C245   C     0.82913   0.47771   0.75154   0.00000  Uiso   1.00
C246   C     0.89646   0.47049   0.70892   0.00000  Uiso   1.00
C247   C     0.86781   0.45097   0.61230   0.00000  Uiso   1.00
C248   C     0.81806   0.58578   0.88819   0.00000  Uiso   1.00
C249   C     0.87609   0.66943   0.96049   0.00000  Uiso   1.00
C250   C     0.83813   0.74089   0.97893   0.00000  Uiso   1.00
C251   C     0.77138   0.41736   0.86319   0.00000  Uiso   1.00
C252   C     0.79016   0.35942   0.91448   0.00000  Uiso   1.00
C253   C     0.71289   0.28910   0.91189   0.00000  Uiso   1.00
H254   H     0.60239   0.46752   0.71987   0.00000  Uiso   1.00
H255   H     0.63597   0.43716   0.56268   0.00000  Uiso   1.00
H256   H     0.61561   0.63605   0.81422   0.00000  Uiso   1.00
H257   H     0.52968   0.32609   0.76821   0.00000  Uiso   1.00
H258   H     0.71408   0.40875   0.41136   0.00000  Uiso   1.00
H259   H     0.67112   0.82813   0.94176   0.00000  Uiso   1.00
H260   H     0.48994   0.17452   0.84474   0.00000  Uiso   1.00
H261   H     0.91731   0.50784   0.89671   0.00000  Uiso   1.00
H262   H     0.96817   0.47968   0.74921   0.00000  Uiso   1.00
H263   H     0.94780   0.67858   0.00075   0.00000  Uiso   1.00
H264   H     0.86188   0.36862   0.95474   0.00000  Uiso   1.00
H265   H     0.98370   0.44328   0.56275   0.00000  Uiso   1.00
H266   H     0.94075   0.86265   0.09316   0.00000  Uiso   1.00
H267   H     0.75957   0.20904   0.99614   0.00000  Uiso   1.00
O268   O     0.87667   0.40679   0.38684   0.00000  Uiso   1.00
O269   O     0.82031   0.95699   0.08272   0.00000  Uiso   1.00
O270   O     0.58260   0.09947   0.95543   0.00000  Uiso   1.00
N271   N     0.77055   0.42072   0.46723   0.00000  Uiso   1.00
N272   N     0.73039   0.81282   0.96311   0.00000  Uiso   1.00
N273   N     0.56100   0.20176   0.87243   0.00000  Uiso   1.00
N274   N     0.91563   0.43930   0.54869   0.00000  Uiso   1.00
N275   N     0.87548   0.83140   0.04458   0.00000  Uiso   1.00
N276   N     0.70608   0.22034   0.95389   0.00000  Uiso   1.00
