data_job_03734
_audit_creation_date              2018-12-19
_audit_creation_method            'Materials Studio'
_symmetry_space_group_name_H-M    'P1'
_symmetry_Int_Tables_number       1
_symmetry_cell_setting            triclinic
loop_
_symmetry_equiv_pos_as_xyz
  x,y,z
_cell_length_a                    9.7671
_cell_length_b                    15.2596
_cell_length_c                    22.2180
_cell_angle_alpha                 90.0000
_cell_angle_beta                  114.0640
_cell_angle_gamma                 90.0000
loop_
_atom_site_label
_atom_site_type_symbol
_atom_site_fract_x
_atom_site_fract_y
_atom_site_fract_z
_atom_site_U_iso_or_equiv
_atom_site_adp_type
_atom_site_occupancy
C1     C     0.78986   0.11245   0.59601   0.00000  Uiso   1.00
C2     C     0.73638   0.11380   0.65160   0.00000  Uiso   1.00
C3     C     0.58798   0.11357   0.64380   0.00000  Uiso   1.00
C4     C     0.56234   0.11497   0.70083   0.00000  Uiso   1.00
C5     C     0.46125   0.11687   0.77764   0.00000  Uiso   1.00
C6     C     0.89031   0.19259   0.60655   0.00000  Uiso   1.00
C7     C     0.87134   0.25860   0.56085   0.00000  Uiso   1.00
C8     C     0.97530   0.32632   0.57996   0.00000  Uiso   1.00
C9     C     0.11325   0.45051   0.58680   0.00000  Uiso   1.00
C10    C     0.89254   0.03297   0.60879   0.00000  Uiso   1.00
C11    C     0.87548   0.96477   0.56498   0.00000  Uiso   1.00
C12    C     0.98134   0.89811   0.58596   0.00000  Uiso   1.00
C13    C     0.12276   0.77446   0.59629   0.00000  Uiso   1.00
C14    C     0.00822   0.11536   0.71117   0.00000  Uiso   1.00
C15    C     0.85499   0.11538   0.71416   0.00000  Uiso   1.00
C16    C     0.82957   0.11678   0.77122   0.00000  Uiso   1.00
C17    C     0.68116   0.11655   0.76350   0.00000  Uiso   1.00
C18    C     0.00891   0.19417   0.66910   0.00000  Uiso   1.00
C19    C     0.11293   0.26181   0.68827   0.00000  Uiso   1.00
C20    C     0.09412   0.32791   0.64263   0.00000  Uiso   1.00
C21    C     0.01115   0.03454   0.67135   0.00000  Uiso   1.00
C22    C     0.11706   0.96798   0.69240   0.00000  Uiso   1.00
C23    C     0.10016   0.89970   0.64863   0.00000  Uiso   1.00
H24    H     0.69753   0.11123   0.54730   0.00000  Uiso   1.00
H25    H     0.49622   0.11235   0.59538   0.00000  Uiso   1.00
H26    H     0.77956   0.25735   0.51245   0.00000  Uiso   1.00
H27    H     0.78368   0.96357   0.51657   0.00000  Uiso   1.00
H28    H     0.32535   0.11433   0.67626   0.00000  Uiso   1.00
H29    H     0.92279   0.42006   0.50139   0.00000  Uiso   1.00
H30    H     0.93150   0.80056   0.51009   0.00000  Uiso   1.00
H31    H     0.10057   0.11659   0.75988   0.00000  Uiso   1.00
H32    H     0.92138   0.11801   0.81962   0.00000  Uiso   1.00
H33    H     0.20470   0.26301   0.73669   0.00000  Uiso   1.00
H34    H     0.20883   0.96923   0.74081   0.00000  Uiso   1.00
H35    H     0.67041   0.11892   0.85827   0.00000  Uiso   1.00
H36    H     0.26786   0.42465   0.68339   0.00000  Uiso   1.00
H37    H     0.27657   0.80515   0.69209   0.00000  Uiso   1.00
O38    O     0.37273   0.11749   0.80273   0.00000  Uiso   1.00
O39    O     0.15656   0.51858   0.57330   0.00000  Uiso   1.00
O40    O     0.16798   0.70582   0.58471   0.00000  Uiso   1.00
N41    N     0.43115   0.11520   0.71090   0.00000  Uiso   1.00
N42    N     0.98971   0.40104   0.54741   0.00000  Uiso   1.00
N43    N     0.99787   0.82187   0.55553   0.00000  Uiso   1.00
N44    N     0.61683   0.11767   0.80883   0.00000  Uiso   1.00
N45    N     0.17539   0.40351   0.64534   0.00000  Uiso   1.00
N46    N     0.18355   0.82434   0.65347   0.00000  Uiso   1.00
C47    C     0.21014   0.61245   0.90399   0.00000  Uiso   1.00
C48    C     0.26362   0.61380   0.84840   0.00000  Uiso   1.00
C49    C     0.41202   0.61357   0.85620   0.00000  Uiso   1.00
C50    C     0.43766   0.61497   0.79917   0.00000  Uiso   1.00
C51    C     0.53875   0.61687   0.72236   0.00000  Uiso   1.00
C52    C     0.10969   0.69259   0.89345   0.00000  Uiso   1.00
C53    C     0.12866   0.75860   0.93915   0.00000  Uiso   1.00
C54    C     0.02470   0.82632   0.92004   0.00000  Uiso   1.00
C55    C     0.88675   0.95051   0.91320   0.00000  Uiso   1.00
C56    C     0.10746   0.53297   0.89121   0.00000  Uiso   1.00
C57    C     0.12452   0.46477   0.93502   0.00000  Uiso   1.00
C58    C     0.01866   0.39811   0.91404   0.00000  Uiso   1.00
C59    C     0.87724   0.27446   0.90371   0.00000  Uiso   1.00
C60    C     0.99178   0.61536   0.78883   0.00000  Uiso   1.00
C61    C     0.14501   0.61538   0.78584   0.00000  Uiso   1.00
C62    C     0.17043   0.61678   0.72878   0.00000  Uiso   1.00
C63    C     0.31884   0.61655   0.73650   0.00000  Uiso   1.00
C64    C     0.99109   0.69417   0.83090   0.00000  Uiso   1.00
C65    C     0.88707   0.76181   0.81173   0.00000  Uiso   1.00
C66    C     0.90588   0.82791   0.85737   0.00000  Uiso   1.00
C67    C     0.98885   0.53454   0.82865   0.00000  Uiso   1.00
C68    C     0.88294   0.46798   0.80760   0.00000  Uiso   1.00
C69    C     0.89984   0.39970   0.85137   0.00000  Uiso   1.00
H70    H     0.30247   0.61123   0.95270   0.00000  Uiso   1.00
H71    H     0.50378   0.61235   0.90462   0.00000  Uiso   1.00
H72    H     0.22044   0.75735   0.98755   0.00000  Uiso   1.00
H73    H     0.21632   0.46357   0.98343   0.00000  Uiso   1.00
H74    H     0.67465   0.61433   0.82374   0.00000  Uiso   1.00
H75    H     0.07721   0.92006   0.99861   0.00000  Uiso   1.00
H76    H     0.06850   0.30056   0.98991   0.00000  Uiso   1.00
H77    H     0.89943   0.61659   0.74012   0.00000  Uiso   1.00
H78    H     0.07862   0.61801   0.68038   0.00000  Uiso   1.00
H79    H     0.79530   0.76301   0.76331   0.00000  Uiso   1.00
H80    H     0.79117   0.46923   0.75919   0.00000  Uiso   1.00
H81    H     0.32959   0.61892   0.64173   0.00000  Uiso   1.00
H82    H     0.73214   0.92465   0.81661   0.00000  Uiso   1.00
H83    H     0.72343   0.30515   0.80791   0.00000  Uiso   1.00
O84    O     0.62727   0.61749   0.69727   0.00000  Uiso   1.00
O85    O     0.84344   0.01858   0.92670   0.00000  Uiso   1.00
O86    O     0.83202   0.20582   0.91529   0.00000  Uiso   1.00
N87    N     0.56885   0.61520   0.78910   0.00000  Uiso   1.00
N88    N     0.01029   0.90104   0.95259   0.00000  Uiso   1.00
N89    N     0.00213   0.32187   0.94447   0.00000  Uiso   1.00
N90    N     0.38317   0.61767   0.69117   0.00000  Uiso   1.00
N91    N     0.82461   0.90351   0.85466   0.00000  Uiso   1.00
N92    N     0.81645   0.32434   0.84653   0.00000  Uiso   1.00
C93    C     0.21014   0.88755   0.40399   0.00000  Uiso   1.00
C94    C     0.26362   0.88620   0.34840   0.00000  Uiso   1.00
C95    C     0.41202   0.88643   0.35620   0.00000  Uiso   1.00
C96    C     0.43766   0.88503   0.29917   0.00000  Uiso   1.00
C97    C     0.53875   0.88313   0.22236   0.00000  Uiso   1.00
C98    C     0.10969   0.80741   0.39345   0.00000  Uiso   1.00
C99    C     0.12866   0.74140   0.43915   0.00000  Uiso   1.00
C100   C     0.02470   0.67368   0.42004   0.00000  Uiso   1.00
C101   C     0.88675   0.54949   0.41320   0.00000  Uiso   1.00
C102   C     0.10746   0.96703   0.39121   0.00000  Uiso   1.00
C103   C     0.12452   0.03523   0.43502   0.00000  Uiso   1.00
C104   C     0.01866   0.10189   0.41404   0.00000  Uiso   1.00
C105   C     0.87724   0.22554   0.40371   0.00000  Uiso   1.00
C106   C     0.99178   0.88464   0.28883   0.00000  Uiso   1.00
C107   C     0.14501   0.88462   0.28584   0.00000  Uiso   1.00
C108   C     0.17043   0.88322   0.22878   0.00000  Uiso   1.00
C109   C     0.31884   0.88345   0.23650   0.00000  Uiso   1.00
C110   C     0.99109   0.80583   0.33090   0.00000  Uiso   1.00
C111   C     0.88707   0.73819   0.31173   0.00000  Uiso   1.00
C112   C     0.90588   0.67209   0.35737   0.00000  Uiso   1.00
C113   C     0.98885   0.96546   0.32865   0.00000  Uiso   1.00
C114   C     0.88294   0.03202   0.30760   0.00000  Uiso   1.00
C115   C     0.89984   0.10030   0.35137   0.00000  Uiso   1.00
H116   H     0.30247   0.88877   0.45270   0.00000  Uiso   1.00
H117   H     0.50378   0.88765   0.40462   0.00000  Uiso   1.00
H118   H     0.22044   0.74265   0.48755   0.00000  Uiso   1.00
H119   H     0.21632   0.03643   0.48343   0.00000  Uiso   1.00
H120   H     0.67465   0.88567   0.32374   0.00000  Uiso   1.00
H121   H     0.07721   0.57994   0.49861   0.00000  Uiso   1.00
H122   H     0.06850   0.19944   0.48991   0.00000  Uiso   1.00
H123   H     0.89943   0.88341   0.24012   0.00000  Uiso   1.00
H124   H     0.07862   0.88199   0.18038   0.00000  Uiso   1.00
H125   H     0.79530   0.73699   0.26331   0.00000  Uiso   1.00
H126   H     0.79117   0.03077   0.25919   0.00000  Uiso   1.00
H127   H     0.32959   0.88108   0.14173   0.00000  Uiso   1.00
H128   H     0.73214   0.57535   0.31661   0.00000  Uiso   1.00
H129   H     0.72343   0.19485   0.30791   0.00000  Uiso   1.00
O130   O     0.62727   0.88251   0.19727   0.00000  Uiso   1.00
O131   O     0.84344   0.48142   0.42670   0.00000  Uiso   1.00
O132   O     0.83202   0.29418   0.41529   0.00000  Uiso   1.00
N133   N     0.56885   0.88480   0.28910   0.00000  Uiso   1.00
N134   N     0.01029   0.59896   0.45259   0.00000  Uiso   1.00
N135   N     0.00213   0.17813   0.44447   0.00000  Uiso   1.00
N136   N     0.38317   0.88233   0.19117   0.00000  Uiso   1.00
N137   N     0.82461   0.59649   0.35466   0.00000  Uiso   1.00
N138   N     0.81645   0.17566   0.34653   0.00000  Uiso   1.00
C139   C     0.78986   0.38755   0.09601   0.00000  Uiso   1.00
C140   C     0.73638   0.38620   0.15160   0.00000  Uiso   1.00
C141   C     0.58798   0.38643   0.14380   0.00000  Uiso   1.00
C142   C     0.56234   0.38503   0.20083   0.00000  Uiso   1.00
C143   C     0.46125   0.38313   0.27764   0.00000  Uiso   1.00
C144   C     0.89031   0.30741   0.10655   0.00000  Uiso   1.00
C145   C     0.87134   0.24140   0.06085   0.00000  Uiso   1.00
C146   C     0.97530   0.17368   0.07996   0.00000  Uiso   1.00
C147   C     0.11325   0.04949   0.08680   0.00000  Uiso   1.00
C148   C     0.89254   0.46703   0.10879   0.00000  Uiso   1.00
C149   C     0.87548   0.53523   0.06498   0.00000  Uiso   1.00
C150   C     0.98134   0.60189   0.08596   0.00000  Uiso   1.00
C151   C     0.12276   0.72554   0.09629   0.00000  Uiso   1.00
C152   C     0.00822   0.38464   0.21117   0.00000  Uiso   1.00
C153   C     0.85499   0.38462   0.21416   0.00000  Uiso   1.00
C154   C     0.82957   0.38322   0.27122   0.00000  Uiso   1.00
C155   C     0.68116   0.38345   0.26350   0.00000  Uiso   1.00
C156   C     0.00891   0.30583   0.16910   0.00000  Uiso   1.00
C157   C     0.11293   0.23819   0.18827   0.00000  Uiso   1.00
C158   C     0.09412   0.17209   0.14263   0.00000  Uiso   1.00
C159   C     0.01115   0.46546   0.17135   0.00000  Uiso   1.00
C160   C     0.11706   0.53202   0.19240   0.00000  Uiso   1.00
C161   C     0.10016   0.60030   0.14863   0.00000  Uiso   1.00
H162   H     0.69753   0.38877   0.04730   0.00000  Uiso   1.00
H163   H     0.49622   0.38765   0.09538   0.00000  Uiso   1.00
H164   H     0.77956   0.24265   0.01245   0.00000  Uiso   1.00
H165   H     0.78368   0.53643   0.01657   0.00000  Uiso   1.00
H166   H     0.32535   0.38567   0.17626   0.00000  Uiso   1.00
H167   H     0.92279   0.07994   0.00139   0.00000  Uiso   1.00
H168   H     0.93150   0.69944   0.01009   0.00000  Uiso   1.00
H169   H     0.10057   0.38341   0.25988   0.00000  Uiso   1.00
H170   H     0.92138   0.38199   0.31962   0.00000  Uiso   1.00
H171   H     0.20470   0.23699   0.23669   0.00000  Uiso   1.00
H172   H     0.20883   0.53077   0.24081   0.00000  Uiso   1.00
H173   H     0.67041   0.38108   0.35827   0.00000  Uiso   1.00
H174   H     0.26786   0.07535   0.18339   0.00000  Uiso   1.00
H175   H     0.27657   0.69485   0.19209   0.00000  Uiso   1.00
O176   O     0.37273   0.38251   0.30273   0.00000  Uiso   1.00
O177   O     0.15656   0.98142   0.07330   0.00000  Uiso   1.00
O178   O     0.16798   0.79418   0.08471   0.00000  Uiso   1.00
N179   N     0.43115   0.38480   0.21090   0.00000  Uiso   1.00
N180   N     0.98971   0.09896   0.04741   0.00000  Uiso   1.00
N181   N     0.99787   0.67813   0.05553   0.00000  Uiso   1.00
N182   N     0.61683   0.38233   0.30883   0.00000  Uiso   1.00
N183   N     0.17539   0.09649   0.14534   0.00000  Uiso   1.00
N184   N     0.18355   0.67566   0.15347   0.00000  Uiso   1.00
