data_job_06631
_audit_creation_date              2018-12-19
_audit_creation_method            'Materials Studio'
_symmetry_space_group_name_H-M    'P1'
_symmetry_Int_Tables_number       1
_symmetry_cell_setting            triclinic
loop_
_symmetry_equiv_pos_as_xyz
  x,y,z
_cell_length_a                    21.2443
_cell_length_b                    22.2751
_cell_length_c                    22.3536
_cell_angle_alpha                 72.8499
_cell_angle_beta                  70.4550
_cell_angle_gamma                 109.8783
loop_
_atom_site_label
_atom_site_type_symbol
_atom_site_fract_x
_atom_site_fract_y
_atom_site_fract_z
_atom_site_U_iso_or_equiv
_atom_site_adp_type
_atom_site_occupancy
C1     C     0.57133   0.88327   0.24347   0.00000  Uiso   1.00
C2     C     0.58883   0.82244   0.26875   0.00000  Uiso   1.00
C3     C     0.55950   0.75790   0.26604   0.00000  Uiso   1.00
C4     C     0.58248   0.70919   0.29182   0.00000  Uiso   1.00
C5     C     0.60194   0.61238   0.32692   0.00000  Uiso   1.00
C6     C     0.54045   0.89651   0.30763   0.00000  Uiso   1.00
C7     C     0.47044   0.89426   0.33760   0.00000  Uiso   1.00
C8     C     0.45270   0.90792   0.39610   0.00000  Uiso   1.00
C9     C     0.39708   0.92616   0.49153   0.00000  Uiso   1.00
C10    C     0.64841   0.95022   0.18874   0.00000  Uiso   1.00
C11    C     0.66917   0.99315   0.11874   0.00000  Uiso   1.00
C12    C     0.74233   0.05204   0.07716   0.00000  Uiso   1.00
C13    C     0.85433   0.15368   0.98799   0.00000  Uiso   1.00
C14    C     0.66430   0.91152   0.29409   0.00000  Uiso   1.00
C15    C     0.63933   0.83778   0.29624   0.00000  Uiso   1.00
C16    C     0.66236   0.78916   0.32204   0.00000  Uiso   1.00
C17    C     0.63307   0.72456   0.31936   0.00000  Uiso   1.00
C18    C     0.59095   0.91185   0.33512   0.00000  Uiso   1.00
C19    C     0.57331   0.92552   0.39360   0.00000  Uiso   1.00
C20    C     0.50330   0.92329   0.42365   0.00000  Uiso   1.00
C21    C     0.69891   0.96556   0.21623   0.00000  Uiso   1.00
C22    C     0.77204   0.02440   0.17475   0.00000  Uiso   1.00
C23    C     0.79292   0.06741   0.10470   0.00000  Uiso   1.00
H24    H     0.53201   0.87132   0.22207   0.00000  Uiso   1.00
H25    H     0.52041   0.74605   0.24476   0.00000  Uiso   1.00
H26    H     0.43138   0.88240   0.31630   0.00000  Uiso   1.00
H27    H     0.63008   0.98126   0.09749   0.00000  Uiso   1.00
H28    H     0.52980   0.61391   0.28206   0.00000  Uiso   1.00
H29    H     0.34208   0.90143   0.43290   0.00000  Uiso   1.00
H30    H     0.76108   0.10991   0.97148   0.00000  Uiso   1.00
H31    H     0.70362   0.92346   0.31550   0.00000  Uiso   1.00
H32    H     0.70145   0.80104   0.34331   0.00000  Uiso   1.00
H33    H     0.61241   0.93739   0.41485   0.00000  Uiso   1.00
H34    H     0.81111   0.03626   0.19604   0.00000  Uiso   1.00
H35    H     0.67674   0.65854   0.36205   0.00000  Uiso   1.00
H36    H     0.48901   0.94607   0.51289   0.00000  Uiso   1.00
H37    H     0.90801   0.15455   0.05147   0.00000  Uiso   1.00
O38    O     0.59872   0.55474   0.33869   0.00000  Uiso   1.00
O39    O     0.35245   0.93197   0.53657   0.00000  Uiso   1.00
O40    O     0.90216   0.20549   0.93120   0.00000  Uiso   1.00
N41    N     0.56470   0.64122   0.29706   0.00000  Uiso   1.00
N42    N     0.38918   0.91002   0.43809   0.00000  Uiso   1.00
N43    N     0.78090   0.10495   0.00671   0.00000  Uiso   1.00
N44    N     0.64376   0.66524   0.34010   0.00000  Uiso   1.00
N45    N     0.46824   0.93404   0.48113   0.00000  Uiso   1.00
N46    N     0.85997   0.12897   0.04975   0.00000  Uiso   1.00
C47    C     0.25703   0.08938   0.22889   0.00000  Uiso   1.00
C48    C     0.28296   0.03782   0.21144   0.00000  Uiso   1.00
C49    C     0.26963   0.97380   0.26104   0.00000  Uiso   1.00
C50    C     0.29806   0.93427   0.23430   0.00000  Uiso   1.00
C51    C     0.33222   0.85062   0.21842   0.00000  Uiso   1.00
C52    C     0.32920   0.16221   0.19043   0.00000  Uiso   1.00
C53    C     0.35473   0.20277   0.22236   0.00000  Uiso   1.00
C54    C     0.42208   0.26796   0.17793   0.00000  Uiso   1.00
C55    C     0.52800   0.37744   0.12942   0.00000  Uiso   1.00
C56    C     0.20978   0.09804   0.19182   0.00000  Uiso   1.00
C57    C     0.13492   0.08466   0.22491   0.00000  Uiso   1.00
C58    C     0.10173   0.09584   0.18165   0.00000  Uiso   1.00
C59    C     0.02223   0.10569   0.13530   0.00000  Uiso   1.00
C60    C     0.33122   0.13303   0.09322   0.00000  Uiso   1.00
C61    C     0.32326   0.06153   0.13775   0.00000  Uiso   1.00
C62    C     0.35171   0.02209   0.11093   0.00000  Uiso   1.00
C63    C     0.33842   0.95802   0.16048   0.00000  Uiso   1.00
C64    C     0.36949   0.18592   0.11674   0.00000  Uiso   1.00
C65    C     0.43681   0.25106   0.07226   0.00000  Uiso   1.00
C66    C     0.46245   0.29171   0.10411   0.00000  Uiso   1.00
C67    C     0.25007   0.12175   0.11813   0.00000  Uiso   1.00
C68    C     0.21700   0.13295   0.07481   0.00000  Uiso   1.00
C69    C     0.14210   0.11959   0.10783   0.00000  Uiso   1.00
H70    H     0.22566   0.07093   0.28626   0.00000  Uiso   1.00
H71    H     0.23845   0.95547   0.31806   0.00000  Uiso   1.00
H72    H     0.32354   0.18441   0.27939   0.00000  Uiso   1.00
H73    H     0.10375   0.06632   0.28194   0.00000  Uiso   1.00
H74    H     0.27042   0.83793   0.32082   0.00000  Uiso   1.00
H75    H     0.44982   0.32068   0.23927   0.00000  Uiso   1.00
H76    H     0.98636   0.07166   0.24466   0.00000  Uiso   1.00
H77    H     0.36259   0.15149   0.03584   0.00000  Uiso   1.00
H78    H     0.38289   0.04045   0.05390   0.00000  Uiso   1.00
H79    H     0.46798   0.26939   0.01523   0.00000  Uiso   1.00
H80    H     0.24820   0.15130   0.01779   0.00000  Uiso   1.00
H81    H     0.38766   0.90691   0.10642   0.00000  Uiso   1.00
H82    H     0.56705   0.38966   0.02487   0.00000  Uiso   1.00
H83    H     0.10360   0.14063   0.03026   0.00000  Uiso   1.00
O84    O     0.33995   0.79793   0.23001   0.00000  Uiso   1.00
O85    O     0.57530   0.43128   0.12303   0.00000  Uiso   1.00
O86    O     0.96725   0.10457   0.13010   0.00000  Uiso   1.00
N87    N     0.29521   0.86940   0.26788   0.00000  Uiso   1.00
N88    N     0.46295   0.32073   0.19164   0.00000  Uiso   1.00
N89    N     0.02966   0.08794   0.19667   0.00000  Uiso   1.00
N90    N     0.35830   0.90651   0.15251   0.00000  Uiso   1.00
N91    N     0.52603   0.35784   0.07628   0.00000  Uiso   1.00
N92    N     0.09274   0.12505   0.08131   0.00000  Uiso   1.00
C93    C     0.36688   0.50792   0.51758   0.00000  Uiso   1.00
C94    C     0.35072   0.45516   0.48695   0.00000  Uiso   1.00
C95    C     0.40544   0.44925   0.43734   0.00000  Uiso   1.00
C96    C     0.37903   0.39764   0.41601   0.00000  Uiso   1.00
C97    C     0.36586   0.32245   0.36426   0.00000  Uiso   1.00
C98    C     0.32650   0.55060   0.50167   0.00000  Uiso   1.00
C99    C     0.36086   0.62493   0.46445   0.00000  Uiso   1.00
C100   C     0.31406   0.65365   0.45552   0.00000  Uiso   1.00
C101   C     0.26327   0.72663   0.42667   0.00000  Uiso   1.00
C102   C     0.32460   0.46238   0.59862   0.00000  Uiso   1.00
C103   C     0.35735   0.46256   0.64292   0.00000  Uiso   1.00
C104   C     0.30894   0.41703   0.71562   0.00000  Uiso   1.00
C105   C     0.25519   0.35304   0.83730   0.00000  Uiso   1.00
C106   C     0.22267   0.42675   0.56792   0.00000  Uiso   1.00
C107   C     0.27239   0.41107   0.51429   0.00000  Uiso   1.00
C108   C     0.24589   0.35945   0.49304   0.00000  Uiso   1.00
C109   C     0.30057   0.35347   0.44341   0.00000  Uiso   1.00
C110   C     0.24818   0.50651   0.52901   0.00000  Uiso   1.00
C111   C     0.20131   0.53513   0.52014   0.00000  Uiso   1.00
C112   C     0.23559   0.60949   0.48291   0.00000  Uiso   1.00
C113   C     0.24627   0.41829   0.62597   0.00000  Uiso   1.00
C114   C     0.19780   0.37275   0.69861   0.00000  Uiso   1.00
C115   C     0.23047   0.37286   0.74302   0.00000  Uiso   1.00
H116   H     0.42786   0.54225   0.49629   0.00000  Uiso   1.00
H117   H     0.46606   0.48339   0.41619   0.00000  Uiso   1.00
H118   H     0.42148   0.65904   0.44330   0.00000  Uiso   1.00
H119   H     0.41796   0.49669   0.62174   0.00000  Uiso   1.00
H120   H     0.47386   0.39871   0.33941   0.00000  Uiso   1.00
H121   H     0.37985   0.76907   0.39660   0.00000  Uiso   1.00
H122   H     0.37245   0.42673   0.77288   0.00000  Uiso   1.00
H123   H     0.16169   0.39242   0.58921   0.00000  Uiso   1.00
H124   H     0.18527   0.32534   0.51421   0.00000  Uiso   1.00
H125   H     0.14070   0.50099   0.54132   0.00000  Uiso   1.00
H126   H     0.13718   0.33864   0.71976   0.00000  Uiso   1.00
H127   H     0.24596   0.27043   0.41897   0.00000  Uiso   1.00
H128   H     0.15196   0.64080   0.47616   0.00000  Uiso   1.00
H129   H     0.14455   0.29846   0.85243   0.00000  Uiso   1.00
O130   O     0.38023   0.29316   0.32816   0.00000  Uiso   1.00
O131   O     0.25690   0.77907   0.40319   0.00000  Uiso   1.00
O132   O     0.24718   0.32992   0.89686   0.00000  Uiso   1.00
N133   N     0.41698   0.37771   0.36844   0.00000  Uiso   1.00
N134   N     0.32910   0.72399   0.42190   0.00000  Uiso   1.00
N135   N     0.32217   0.40394   0.77369   0.00000  Uiso   1.00
N136   N     0.29436   0.30869   0.41125   0.00000  Uiso   1.00
N137   N     0.20647   0.65496   0.46470   0.00000  Uiso   1.00
N138   N     0.19955   0.33491   0.81650   0.00000  Uiso   1.00
C139   C     0.77802   0.38063   0.49813   0.00000  Uiso   1.00
C140   C     0.74632   0.32308   0.47653   0.00000  Uiso   1.00
C141   C     0.73992   0.25528   0.50221   0.00000  Uiso   1.00
C142   C     0.70941   0.21047   0.47582   0.00000  Uiso   1.00
C143   C     0.66368   0.11772   0.44995   0.00000  Uiso   1.00
C144   C     0.71530   0.39973   0.52555   0.00000  Uiso   1.00
C145   C     0.68283   0.39638   0.59244   0.00000  Uiso   1.00
C146   C     0.62622   0.41611   0.60731   0.00000  Uiso   1.00
C147   C     0.53237   0.44241   0.65752   0.00000  Uiso   1.00
C148   C     0.84312   0.44716   0.42891   0.00000  Uiso   1.00
C149   C     0.91813   0.48370   0.41455   0.00000  Uiso   1.00
C150   C     0.96913   0.54336   0.34805   0.00000  Uiso   1.00
C151   C     0.07375   0.64329   0.24821   0.00000  Uiso   1.00
C152   C     0.73523   0.42162   0.40560   0.00000  Uiso   1.00
C153   C     0.72307   0.34535   0.42627   0.00000  Uiso   1.00
C154   C     0.69257   0.30063   0.39983   0.00000  Uiso   1.00
C155   C     0.68613   0.23278   0.42546   0.00000  Uiso   1.00
C156   C     0.69206   0.42200   0.47530   0.00000  Uiso   1.00
C157   C     0.63549   0.44174   0.49006   0.00000  Uiso   1.00
C158   C     0.60294   0.43841   0.55696   0.00000  Uiso   1.00
C159   C     0.81988   0.46942   0.37865   0.00000  Uiso   1.00
C160   C     0.87078   0.52905   0.31216   0.00000  Uiso   1.00
C161   C     0.94585   0.56567   0.29770   0.00000  Uiso   1.00
H162   H     0.79612   0.36329   0.53727   0.00000  Uiso   1.00
H163   H     0.75790   0.23807   0.54111   0.00000  Uiso   1.00
H164   H     0.70083   0.37916   0.63132   0.00000  Uiso   1.00
H165   H     0.93609   0.46645   0.45345   0.00000  Uiso   1.00
H166   H     0.70526   0.10904   0.52323   0.00000  Uiso   1.00
H167   H     0.58494   0.40656   0.71344   0.00000  Uiso   1.00
H168   H     0.08103   0.59064   0.33836   0.00000  Uiso   1.00
H169   H     0.71714   0.43896   0.36647   0.00000  Uiso   1.00
H170   H     0.67459   0.31788   0.36093   0.00000  Uiso   1.00
H171   H     0.61752   0.45897   0.45115   0.00000  Uiso   1.00
H172   H     0.85278   0.54626   0.27328   0.00000  Uiso   1.00
H173   H     0.63764   0.17381   0.37699   0.00000  Uiso   1.00
H174   H     0.51732   0.47134   0.56720   0.00000  Uiso   1.00
H175   H     0.01341   0.65542   0.19213   0.00000  Uiso   1.00
O176   O     0.64486   0.06040   0.44957   0.00000  Uiso   1.00
O177   O     0.48702   0.45075   0.69911   0.00000  Uiso   1.00
O178   O     0.13788   0.69226   0.20703   0.00000  Uiso   1.00
N179   N     0.69520   0.14090   0.48956   0.00000  Uiso   1.00
N180   N     0.58270   0.41906   0.66740   0.00000  Uiso   1.00
N181   N     0.04650   0.59117   0.31674   0.00000  Uiso   1.00
N182   N     0.65881   0.17576   0.41087   0.00000  Uiso   1.00
N183   N     0.54631   0.45391   0.58871   0.00000  Uiso   1.00
N184   N     0.01011   0.62603   0.23805   0.00000  Uiso   1.00
C185   C     0.76634   0.55269   0.78899   0.00000  Uiso   1.00
C186   C     0.81691   0.52399   0.75586   0.00000  Uiso   1.00
C187   C     0.79156   0.46013   0.75127   0.00000  Uiso   1.00
C188   C     0.84685   0.44342   0.71900   0.00000  Uiso   1.00
C189   C     0.91353   0.39194   0.67158   0.00000  Uiso   1.00
C190   C     0.79589   0.62750   0.73086   0.00000  Uiso   1.00
C191   C     0.75285   0.65067   0.70526   0.00000  Uiso   1.00
C192   C     0.79045   0.72110   0.65195   0.00000  Uiso   1.00
C193   C     0.82448   0.83033   0.56575   0.00000  Uiso   1.00
C194   C     0.78443   0.56408   0.84657   0.00000  Uiso   1.00
C195   C     0.73176   0.53393   0.91826   0.00000  Uiso   1.00
C196   C     0.75970   0.55098   0.96237   0.00000  Uiso   1.00
C197   C     0.77594   0.56174   0.05583   0.00000  Uiso   1.00
C198   C     0.90963   0.63657   0.73983   0.00000  Uiso   1.00
C199   C     0.89474   0.56955   0.72915   0.00000  Uiso   1.00
C200   C     0.95008   0.55293   0.69688   0.00000  Uiso   1.00
C201   C     0.92482   0.48906   0.69225   0.00000  Uiso   1.00
C202   C     0.87371   0.67306   0.70415   0.00000  Uiso   1.00
C203   C     0.91138   0.74347   0.65087   0.00000  Uiso   1.00
C204   C     0.86842   0.76674   0.62520   0.00000  Uiso   1.00
C205   C     0.86225   0.60964   0.81986   0.00000  Uiso   1.00
C206   C     0.89029   0.62674   0.86386   0.00000  Uiso   1.00
C207   C     0.83767   0.59663   0.93561   0.00000  Uiso   1.00
H208   H     0.70575   0.51722   0.80978   0.00000  Uiso   1.00
H209   H     0.73132   0.42488   0.77194   0.00000  Uiso   1.00
H210   H     0.69263   0.61540   0.72595   0.00000  Uiso   1.00
H211   H     0.67154   0.49868   0.93891   0.00000  Uiso   1.00
H212   H     0.79400   0.34262   0.71819   0.00000  Uiso   1.00
H213   H     0.71239   0.74433   0.62122   0.00000  Uiso   1.00
H214   H     0.66792   0.49821   0.07030   0.00000  Uiso   1.00
H215   H     0.97022   0.67205   0.71903   0.00000  Uiso   1.00
H216   H     0.01031   0.58820   0.67621   0.00000  Uiso   1.00
H217   H     0.97161   0.77872   0.63022   0.00000  Uiso   1.00
H218   H     0.95052   0.66200   0.84318   0.00000  Uiso   1.00
H219   H     0.02043   0.47517   0.64049   0.00000  Uiso   1.00
H220   H     0.93882   0.87689   0.54352   0.00000  Uiso   1.00
H221   H     0.89435   0.63077   0.99260   0.00000  Uiso   1.00
O222   O     0.92881   0.35096   0.65279   0.00000  Uiso   1.00
O223   O     0.82175   0.87800   0.52558   0.00000  Uiso   1.00
O224   O     0.76340   0.55508   0.11476   0.00000  Uiso   1.00
N225   N     0.84179   0.38531   0.70579   0.00000  Uiso   1.00
N226   N     0.76549   0.76089   0.61512   0.00000  Uiso   1.00
N227   N     0.72391   0.53080   0.03497   0.00000  Uiso   1.00
N228   N     0.96363   0.45664   0.66398   0.00000  Uiso   1.00
N229   N     0.88734   0.83222   0.57331   0.00000  Uiso   1.00
N230   N     0.84575   0.60213   0.99316   0.00000  Uiso   1.00
C231   C     0.50202   0.99963   0.67309   0.00000  Uiso   1.00
C232   C     0.52076   0.93826   0.68390   0.00000  Uiso   1.00
C233   C     0.56012   0.92532   0.63006   0.00000  Uiso   1.00
C234   C     0.57149   0.86642   0.65095   0.00000  Uiso   1.00
C235   C     0.60474   0.77789   0.65675   0.00000  Uiso   1.00
C236   C     0.53574   0.04029   0.70858   0.00000  Uiso   1.00
C237   C     0.58770   0.11313   0.67550   0.00000  Uiso   1.00
C238   C     0.61167   0.14010   0.71718   0.00000  Uiso   1.00
C239   C     0.66814   0.20998   0.76131   0.00000  Uiso   1.00
C240   C     0.41541   0.96444   0.71783   0.00000  Uiso   1.00
C241   C     0.36620   0.97352   0.69253   0.00000  Uiso   1.00
C242   C     0.28886   0.93664   0.74200   0.00000  Uiso   1.00
C243   C     0.15850   0.88875   0.80050   0.00000  Uiso   1.00
C244   C     0.45219   0.91803   0.80593   0.00000  Uiso   1.00
C245   C     0.49370   0.89394   0.75605   0.00000  Uiso   1.00
C246   C     0.50500   0.83503   0.77703   0.00000  Uiso   1.00
C247   C     0.54437   0.82201   0.72323   0.00000  Uiso   1.00
C248   C     0.50868   0.99596   0.78073   0.00000  Uiso   1.00
C249   C     0.53258   0.02284   0.82247   0.00000  Uiso   1.00
C250   C     0.58456   0.09570   0.78946   0.00000  Uiso   1.00
C251   C     0.38835   0.92011   0.78999   0.00000  Uiso   1.00
C252   C     0.31108   0.88322   0.83950   0.00000  Uiso   1.00
C253   C     0.26175   0.89224   0.81428   0.00000  Uiso   1.00
H254   H     0.52309   0.03415   0.61692   0.00000  Uiso   1.00
H255   H     0.58106   0.95964   0.57423   0.00000  Uiso   1.00
H256   H     0.60862   0.14742   0.61966   0.00000  Uiso   1.00
H257   H     0.38716   0.00782   0.63669   0.00000  Uiso   1.00
H258   H     0.63343   0.85751   0.55871   0.00000  Uiso   1.00
H259   H     0.69152   0.25344   0.65452   0.00000  Uiso   1.00
H260   H     0.22452   0.95908   0.69043   0.00000  Uiso   1.00
H261   H     0.43113   0.88352   0.86211   0.00000  Uiso   1.00
H262   H     0.48405   0.80074   0.83287   0.00000  Uiso   1.00
H263   H     0.51162   0.98852   0.87831   0.00000  Uiso   1.00
H264   H     0.29015   0.84892   0.89534   0.00000  Uiso   1.00
H265   H     0.55470   0.72854   0.76864   0.00000  Uiso   1.00
H266   H     0.61279   0.12448   0.86445   0.00000  Uiso   1.00
H267   H     0.14579   0.83012   0.90036   0.00000  Uiso   1.00
O268   O     0.63056   0.74131   0.64001   0.00000  Uiso   1.00
O269   O     0.70677   0.26076   0.76572   0.00000  Uiso   1.00
O270   O     0.09408   0.87456   0.81283   0.00000  Uiso   1.00
N271   N     0.60762   0.83851   0.61213   0.00000  Uiso   1.00
N272   N     0.66195   0.20868   0.70171   0.00000  Uiso   1.00
N273   N     0.22534   0.93349   0.73528   0.00000  Uiso   1.00
N274   N     0.56526   0.76911   0.72509   0.00000  Uiso   1.00
N275   N     0.61958   0.13929   0.81467   0.00000  Uiso   1.00
N276   N     0.18298   0.86410   0.84824   0.00000  Uiso   1.00
C277   C     0.44963   0.17971   0.79190   0.00000  Uiso   1.00
C278   C     0.45985   0.23467   0.82044   0.00000  Uiso   1.00
C279   C     0.51913   0.26464   0.83398   0.00000  Uiso   1.00
C280   C     0.51824   0.31396   0.85996   0.00000  Uiso   1.00
C281   C     0.54296   0.39649   0.90242   0.00000  Uiso   1.00
C282   C     0.44525   0.21264   0.72415   0.00000  Uiso   1.00
C283   C     0.49224   0.22407   0.65675   0.00000  Uiso   1.00
C284   C     0.47905   0.25484   0.60168   0.00000  Uiso   1.00
C285   C     0.48107   0.30312   0.49467   0.00000  Uiso   1.00
C286   C     0.37048   0.11534   0.84619   0.00000  Uiso   1.00
C287   C     0.35460   0.04496   0.88139   0.00000  Uiso   1.00
C288   C     0.27845   0.99380   0.92905   0.00000  Uiso   1.00
C289   C     0.16438   0.89101   0.01153   0.00000  Uiso   1.00
C290   C     0.34263   0.21401   0.81394   0.00000  Uiso   1.00
C291   C     0.40173   0.25330   0.83241   0.00000  Uiso   1.00
C292   C     0.40075   0.30259   0.85838   0.00000  Uiso   1.00
C293   C     0.46001   0.33263   0.87196   0.00000  Uiso   1.00
C294   C     0.38713   0.23127   0.73613   0.00000  Uiso   1.00
C295   C     0.37386   0.26202   0.68114   0.00000  Uiso   1.00
C296   C     0.42083   0.27351   0.61367   0.00000  Uiso   1.00
C297   C     0.31236   0.13397   0.85817   0.00000  Uiso   1.00
C298   C     0.23622   0.08291   0.90578   0.00000  Uiso   1.00
C299   C     0.22023   0.01247   0.94105   0.00000  Uiso   1.00
H300   H     0.49488   0.16521   0.78257   0.00000  Uiso   1.00
H301   H     0.56410   0.25021   0.82470   0.00000  Uiso   1.00
H302   H     0.53721   0.20965   0.64750   0.00000  Uiso   1.00
H303   H     0.39959   0.03056   0.87211   0.00000  Uiso   1.00
H304   H     0.61523   0.35269   0.87667   0.00000  Uiso   1.00
H305   H     0.55851   0.26713   0.50304   0.00000  Uiso   1.00
H306   H     0.26832   0.88949   0.97667   0.00000  Uiso   1.00
H307   H     0.29738   0.22852   0.82326   0.00000  Uiso   1.00
H308   H     0.35576   0.31700   0.86764   0.00000  Uiso   1.00
H309   H     0.32888   0.27643   0.69043   0.00000  Uiso   1.00
H310   H     0.19126   0.09735   0.91504   0.00000  Uiso   1.00
H311   H     0.44614   0.40690   0.91151   0.00000  Uiso   1.00
H312   H     0.38942   0.32133   0.53788   0.00000  Uiso   1.00
H313   H     0.09922   0.94370   0.01151   0.00000  Uiso   1.00
O314   O     0.57266   0.43688   0.92252   0.00000  Uiso   1.00
O315   O     0.49825   0.32461   0.43234   0.00000  Uiso   1.00
O316   O     0.11752   0.82916   0.05373   0.00000  Uiso   1.00
N317   N     0.56741   0.35330   0.87880   0.00000  Uiso   1.00
N318   N     0.51440   0.27331   0.52947   0.00000  Uiso   1.00
N319   N     0.24308   0.92025   0.97226   0.00000  Uiso   1.00
N320   N     0.47642   0.38246   0.89755   0.00000  Uiso   1.00
N321   N     0.42341   0.30248   0.54822   0.00000  Uiso   1.00
N322   N     0.15210   0.94942   0.99101   0.00000  Uiso   1.00
C323   C     0.76050   0.78602   0.82224   0.00000  Uiso   1.00
C324   C     0.74407   0.84383   0.78560   0.00000  Uiso   1.00
C325   C     0.76888   0.87815   0.71286   0.00000  Uiso   1.00
C326   C     0.74780   0.92949   0.68987   0.00000  Uiso   1.00
C327   C     0.72901   0.01673   0.62566   0.00000  Uiso   1.00
C328   C     0.68274   0.72111   0.87937   0.00000  Uiso   1.00
C329   C     0.65599   0.65225   0.88547   0.00000  Uiso   1.00
C330   C     0.58329   0.60027   0.94143   0.00000  Uiso   1.00
C331   C     0.46930   0.49698   0.02284   0.00000  Uiso   1.00
C332   C     0.79878   0.81377   0.86243   0.00000  Uiso   1.00
C333   C     0.86959   0.82280   0.85431   0.00000  Uiso   1.00
C334   C     0.89458   0.84883   0.89602   0.00000  Uiso   1.00
C335   C     0.96076   0.88941   0.95113   0.00000  Uiso   1.00
C336   C     0.67896   0.81615   0.91078   0.00000  Uiso   1.00
C337   C     0.69978   0.86019   0.83369   0.00000  Uiso   1.00
C338   C     0.67867   0.91149   0.81081   0.00000  Uiso   1.00
C339   C     0.70344   0.94588   0.73804   0.00000  Uiso   1.00
C340   C     0.63845   0.73747   0.92746   0.00000  Uiso   1.00
C341   C     0.56578   0.68558   0.98343   0.00000  Uiso   1.00
C342   C     0.53892   0.61666   0.98961   0.00000  Uiso   1.00
C343   C     0.75450   0.83013   0.91052   0.00000  Uiso   1.00
C344   C     0.77938   0.85614   0.95226   0.00000  Uiso   1.00
C345   C     0.85021   0.86522   0.94420   0.00000  Uiso   1.00
H346   H     0.79497   0.77328   0.78481   0.00000  Uiso   1.00
H347   H     0.80315   0.86547   0.67566   0.00000  Uiso   1.00
H348   H     0.69028   0.63960   0.84826   0.00000  Uiso   1.00
H349   H     0.90385   0.81014   0.81709   0.00000  Uiso   1.00
H350   H     0.79266   0.97488   0.57586   0.00000  Uiso   1.00
H351   H     0.55468   0.49862   0.93980   0.00000  Uiso   1.00
H352   H     0.00503   0.85822   0.87409   0.00000  Uiso   1.00
H353   H     0.64447   0.82889   0.94822   0.00000  Uiso   1.00
H354   H     0.64439   0.92414   0.84803   0.00000  Uiso   1.00
H355   H     0.53152   0.69826   0.02063   0.00000  Uiso   1.00
H356   H     0.74509   0.86880   0.98947   0.00000  Uiso   1.00
H357   H     0.66380   0.02250   0.71576   0.00000  Uiso   1.00
H358   H     0.42583   0.54622   0.07971   0.00000  Uiso   1.00
H359   H     0.87617   0.90583   0.01399   0.00000  Uiso   1.00
O360   O     0.73087   0.06033   0.57696   0.00000  Uiso   1.00
O361   O     0.41866   0.43548   0.05445   0.00000  Uiso   1.00
O362   O     0.00951   0.90728   0.96823   0.00000  Uiso   1.00
N363   N     0.76235   0.97303   0.62253   0.00000  Uiso   1.00
N364   N     0.53986   0.52775   0.96279   0.00000  Uiso   1.00
N365   N     0.96089   0.86393   0.90137   0.00000  Uiso   1.00
N366   N     0.69302   0.99865   0.69781   0.00000  Uiso   1.00
N367   N     0.47052   0.55337   0.03807   0.00000  Uiso   1.00
N368   N     0.89155   0.88955   0.97665   0.00000  Uiso   1.00
C369   C     0.82807   0.68138   0.37684   0.00000  Uiso   1.00
C370   C     0.81960   0.74480   0.38335   0.00000  Uiso   1.00
C371   C     0.75236   0.74139   0.42592   0.00000  Uiso   1.00
C372   C     0.75651   0.80541   0.42446   0.00000  Uiso   1.00
C373   C     0.73288   0.89398   0.44107   0.00000  Uiso   1.00
C374   C     0.89013   0.67985   0.39606   0.00000  Uiso   1.00
C375   C     0.88220   0.62184   0.44932   0.00000  Uiso   1.00
C376   C     0.94572   0.63118   0.45855   0.00000  Uiso   1.00
C377   C     0.03162   0.61890   0.49486   0.00000  Uiso   1.00
C378   C     0.86145   0.70157   0.29744   0.00000  Uiso   1.00
C379   C     0.82941   0.66180   0.26778   0.00000  Uiso   1.00
C380   C     0.86880   0.68942   0.19398   0.00000  Uiso   1.00
C381   C     0.91016   0.71085   0.07717   0.00000  Uiso   1.00
C382   C     0.95499   0.80114   0.29853   0.00000  Uiso   1.00
C383   C     0.88854   0.80985   0.34081   0.00000  Uiso   1.00
C384   C     0.89279   0.87389   0.33928   0.00000  Uiso   1.00
C385   C     0.82557   0.87058   0.38185   0.00000  Uiso   1.00
C386   C     0.95907   0.74490   0.35353   0.00000  Uiso   1.00
C387   C     0.02263   0.75434   0.36268   0.00000  Uiso   1.00
C388   C     0.01479   0.69635   0.41594   0.00000  Uiso   1.00
C389   C     0.93039   0.76662   0.25491   0.00000  Uiso   1.00
C390   C     0.96984   0.79430   0.18114   0.00000  Uiso   1.00
C391   C     0.93787   0.75458   0.15137   0.00000  Uiso   1.00
H392   H     0.77440   0.63074   0.40995   0.00000  Uiso   1.00
H393   H     0.69902   0.69104   0.45884   0.00000  Uiso   1.00
H394   H     0.82884   0.57150   0.48222   0.00000  Uiso   1.00
H395   H     0.77606   0.61146   0.30071   0.00000  Uiso   1.00
H396   H     0.64587   0.78657   0.49430   0.00000  Uiso   1.00
H397   H     0.91960   0.53452   0.54359   0.00000  Uiso   1.00
H398   H     0.80831   0.61877   0.16084   0.00000  Uiso   1.00
H399   H     0.00867   0.85179   0.26541   0.00000  Uiso   1.00
H400   H     0.94615   0.92422   0.30636   0.00000  Uiso   1.00
H401   H     0.07597   0.80468   0.32975   0.00000  Uiso   1.00
H402   H     0.02319   0.84464   0.14824   0.00000  Uiso   1.00
H403   H     0.84645   0.97583   0.37054   0.00000  Uiso   1.00
H404   H     0.12019   0.72377   0.41984   0.00000  Uiso   1.00
H405   H     0.00889   0.80803   0.03709   0.00000  Uiso   1.00
O406   O     0.70081   0.92486   0.46198   0.00000  Uiso   1.00
O407   O     0.05994   0.59416   0.52664   0.00000  Uiso   1.00
O408   O     0.91393   0.70471   0.02449   0.00000  Uiso   1.00
N409   N     0.70165   0.82118   0.45954   0.00000  Uiso   1.00
N410   N     0.95757   0.58552   0.50563   0.00000  Uiso   1.00
N411   N     0.85354   0.66428   0.14780   0.00000  Uiso   1.00
N412   N     0.80958   0.92302   0.39295   0.00000  Uiso   1.00
N413   N     0.06550   0.68736   0.43904   0.00000  Uiso   1.00
N414   N     0.96147   0.76612   0.08121   0.00000  Uiso   1.00
C415   C     0.15694   0.66598   0.66375   0.00000  Uiso   1.00
C416   C     0.15216   0.73248   0.62669   0.00000  Uiso   1.00
C417   C     0.12232   0.74074   0.58015   0.00000  Uiso   1.00
C418   C     0.12315   0.80566   0.55183   0.00000  Uiso   1.00
C419   C     0.11125   0.90061   0.49158   0.00000  Uiso   1.00
C420   C     0.24101   0.69201   0.64311   0.00000  Uiso   1.00
C421   C     0.28586   0.66624   0.61039   0.00000  Uiso   1.00
C422   C     0.36148   0.69709   0.59590   0.00000  Uiso   1.00
C423   C     0.48751   0.72918   0.56119   0.00000  Uiso   1.00
C424   C     0.11504   0.64240   0.74368   0.00000  Uiso   1.00
C425   C     0.05398   0.57491   0.79551   0.00000  Uiso   1.00
C426   C     0.02356   0.56399   0.86570   0.00000  Uiso   1.00
C427   C     0.95399   0.51906   0.98714   0.00000  Uiso   1.00
C428   C     0.21148   0.76659   0.69622   0.00000  Uiso   1.00
C429   C     0.18178   0.78712   0.64433   0.00000  Uiso   1.00
C430   C     0.18265   0.85205   0.61607   0.00000  Uiso   1.00
C431   C     0.15282   0.86040   0.56950   0.00000  Uiso   1.00
C432   C     0.27063   0.74666   0.66075   0.00000  Uiso   1.00
C433   C     0.34620   0.77755   0.64631   0.00000  Uiso   1.00
C434   C     0.39116   0.75183   0.61357   0.00000  Uiso   1.00
C435   C     0.14466   0.69705   0.76132   0.00000  Uiso   1.00
C436   C     0.11432   0.68623   0.83143   0.00000  Uiso   1.00
C437   C     0.05323   0.61874   0.88337   0.00000  Uiso   1.00
H438   H     0.13388   0.62344   0.65001   0.00000  Uiso   1.00
H439   H     0.09940   0.69844   0.56651   0.00000  Uiso   1.00
H440   H     0.26292   0.62394   0.59675   0.00000  Uiso   1.00
H441   H     0.03108   0.53264   0.78185   0.00000  Uiso   1.00
H442   H     0.07427   0.80570   0.48169   0.00000  Uiso   1.00
H443   H     0.41904   0.64861   0.54547   0.00000  Uiso   1.00
H444   H     0.93016   0.45607   0.93578   0.00000  Uiso   1.00
H445   H     0.23454   0.80914   0.70995   0.00000  Uiso   1.00
H446   H     0.20558   0.89433   0.62973   0.00000  Uiso   1.00
H447   H     0.36910   0.81983   0.65997   0.00000  Uiso   1.00
H448   H     0.13726   0.72853   0.84506   0.00000  Uiso   1.00
H449   H     0.16045   0.96469   0.53300   0.00000  Uiso   1.00
H450   H     0.50522   0.80760   0.59678   0.00000  Uiso   1.00
H451   H     0.01634   0.61506   0.98709   0.00000  Uiso   1.00
O452   O     0.09652   0.93789   0.45347   0.00000  Uiso   1.00
O453   O     0.54884   0.73178   0.53717   0.00000  Uiso   1.00
O454   O     0.90744   0.47919   0.04925   0.00000  Uiso   1.00
N455   N     0.09851   0.83142   0.50478   0.00000  Uiso   1.00
N456   N     0.42086   0.68456   0.56441   0.00000  Uiso   1.00
N457   N     0.96381   0.50454   0.92932   0.00000  Uiso   1.00
N458   N     0.14488   0.91697   0.53239   0.00000  Uiso   1.00
N459   N     0.46723   0.77011   0.59202   0.00000  Uiso   1.00
N460   N     0.01018   0.59010   0.95693   0.00000  Uiso   1.00
C461   C     0.22296   0.29155   0.22990   0.00000  Uiso   1.00
C462   C     0.25773   0.35718   0.24048   0.00000  Uiso   1.00
C463   C     0.33398   0.39567   0.22183   0.00000  Uiso   1.00
C464   C     0.35443   0.45405   0.23592   0.00000  Uiso   1.00
C465   C     0.41661   0.55302   0.24758   0.00000  Uiso   1.00
C466   C     0.15816   0.23169   0.30358   0.00000  Uiso   1.00
C467   C     0.15070   0.16465   0.33798   0.00000  Uiso   1.00
C468   C     0.08733   0.11738   0.40518   0.00000  Uiso   1.00
C469   C     0.99491   0.02150   0.51479   0.00000  Uiso   1.00
C470   C     0.18495   0.30992   0.18551   0.00000  Uiso   1.00
C471   C     0.19999   0.30866   0.12064   0.00000  Uiso   1.00
C472   C     0.15916   0.32724   0.08844   0.00000  Uiso   1.00
C473   C     0.10833   0.35283   0.01472   0.00000  Uiso   1.00
C474   C     0.12368   0.32678   0.28809   0.00000  Uiso   1.00
C475   C     0.20380   0.37632   0.27209   0.00000  Uiso   1.00
C476   C     0.22414   0.43465   0.28621   0.00000  Uiso   1.00
C477   C     0.30042   0.47322   0.26757   0.00000  Uiso   1.00
C478   C     0.10424   0.25082   0.33519   0.00000  Uiso   1.00
C479   C     0.04087   0.20363   0.40236   0.00000  Uiso   1.00
C480   C     0.03331   0.13655   0.43685   0.00000  Uiso   1.00
C481   C     0.13103   0.32906   0.21711   0.00000  Uiso   1.00
C482   C     0.09016   0.34764   0.18501   0.00000  Uiso   1.00
C483   C     0.10514   0.34641   0.12010   0.00000  Uiso   1.00
H484   H     0.26493   0.27665   0.20530   0.00000  Uiso   1.00
H485   H     0.37569   0.38084   0.19738   0.00000  Uiso   1.00
H486   H     0.19243   0.14986   0.31351   0.00000  Uiso   1.00
H487   H     0.24172   0.29384   0.09620   0.00000  Uiso   1.00
H488   H     0.47470   0.50478   0.20256   0.00000  Uiso   1.00
H489   H     0.08828   0.01774   0.44741   0.00000  Uiso   1.00
H490   H     0.19221   0.32135   0.98917   0.00000  Uiso   1.00
H491   H     0.08170   0.34168   0.31269   0.00000  Uiso   1.00
H492   H     0.18240   0.44945   0.31066   0.00000  Uiso   1.00
H493   H     0.99915   0.21846   0.42680   0.00000  Uiso   1.00
H494   H     0.04844   0.36244   0.20949   0.00000  Uiso   1.00
H495   H     0.31782   0.56046   0.29451   0.00000  Uiso   1.00
H496   H     0.93140   0.07341   0.53936   0.00000  Uiso   1.00
H497   H     0.03534   0.37703   0.08113   0.00000  Uiso   1.00
O498   O     0.46581   0.60233   0.24528   0.00000  Uiso   1.00
O499   O     0.95884   0.96333   0.56651   0.00000  Uiso   1.00
O500   O     0.09520   0.36168   0.96532   0.00000  Uiso   1.00
N501   N     0.42396   0.50311   0.22446   0.00000  Uiso   1.00
N502   N     0.06269   0.04775   0.45339   0.00000  Uiso   1.00
N503   N     0.15984   0.33159   0.02499   0.00000  Uiso   1.00
N504   N     0.33954   0.53307   0.27394   0.00000  Uiso   1.00
N505   N     0.97828   0.07771   0.50287   0.00000  Uiso   1.00
N506   N     0.07543   0.36155   0.07447   0.00000  Uiso   1.00
C507   C     0.62181   0.14928   0.23822   0.00000  Uiso   1.00
C508   C     0.62843   0.22122   0.23290   0.00000  Uiso   1.00
C509   C     0.57509   0.23035   0.28022   0.00000  Uiso   1.00
C510   C     0.59170   0.30055   0.26603   0.00000  Uiso   1.00
C511   C     0.59169   0.40330   0.26679   0.00000  Uiso   1.00
C512   C     0.62877   0.15095   0.16753   0.00000  Uiso   1.00
C513   C     0.57571   0.10098   0.15989   0.00000  Uiso   1.00
C514   C     0.59261   0.11202   0.09066   0.00000  Uiso   1.00
C515   C     0.59315   0.10565   0.98994   0.00000  Uiso   1.00
C516   C     0.69345   0.14998   0.23927   0.00000  Uiso   1.00
C517   C     0.69478   0.09918   0.29195   0.00000  Uiso   1.00
C518   C     0.76615   0.10940   0.28312   0.00000  Uiso   1.00
C519   C     0.86711   0.10151   0.29379   0.00000  Uiso   1.00
C520   C     0.74617   0.25773   0.12885   0.00000  Uiso   1.00
C521   C     0.69598   0.28013   0.17349   0.00000  Uiso   1.00
C522   C     0.71268   0.35034   0.15923   0.00000  Uiso   1.00
C523   C     0.65937   0.35956   0.20652   0.00000  Uiso   1.00
C524   C     0.69631   0.20986   0.10812   0.00000  Uiso   1.00
C525   C     0.71330   0.22097   0.03889   0.00000  Uiso   1.00
C526   C     0.66028   0.17103   0.03115   0.00000  Uiso   1.00
C527   C     0.76100   0.20889   0.17987   0.00000  Uiso   1.00
C528   C     0.83237   0.21918   0.17095   0.00000  Uiso   1.00
C529   C     0.83382   0.16841   0.22361   0.00000  Uiso   1.00
H530   H     0.56922   0.10342   0.28446   0.00000  Uiso   1.00
H531   H     0.52282   0.18474   0.32619   0.00000  Uiso   1.00
H532   H     0.52345   0.05540   0.20587   0.00000  Uiso   1.00
H533   H     0.64250   0.05361   0.33791   0.00000  Uiso   1.00
H534   H     0.50114   0.30089   0.34624   0.00000  Uiso   1.00
H535   H     0.50248   0.02814   0.09255   0.00000  Uiso   1.00
H536   H     0.75353   0.02436   0.37098   0.00000  Uiso   1.00
H537   H     0.79876   0.30359   0.08260   0.00000  Uiso   1.00
H538   H     0.76496   0.39591   0.11325   0.00000  Uiso   1.00
H539   H     0.76558   0.26656   0.99294   0.00000  Uiso   1.00
H540   H     0.88464   0.26477   0.12498   0.00000  Uiso   1.00
H541   H     0.69767   0.47228   0.17341   0.00000  Uiso   1.00
H542   H     0.69901   0.19953   0.91972   0.00000  Uiso   1.00
H543   H     0.95006   0.19575   0.19815   0.00000  Uiso   1.00
O544   O     0.57301   0.44370   0.28361   0.00000  Uiso   1.00
O545   O     0.57478   0.08586   0.95079   0.00000  Uiso   1.00
O546   O     0.90414   0.08090   0.31608   0.00000  Uiso   1.00
N547   N     0.55204   0.32856   0.30136   0.00000  Uiso   1.00
N548   N     0.55329   0.07356   0.06418   0.00000  Uiso   1.00
N549   N     0.78800   0.07001   0.32448   0.00000  Uiso   1.00
N550   N     0.65779   0.42078   0.20837   0.00000  Uiso   1.00
N551   N     0.65904   0.16578   0.97118   0.00000  Uiso   1.00
N552   N     0.89375   0.16224   0.23148   0.00000  Uiso   1.00
