data_job_01010
_audit_creation_date              2018-12-19
_audit_creation_method            'Materials Studio'
_symmetry_space_group_name_H-M    'P1'
_symmetry_Int_Tables_number       1
_symmetry_cell_setting            triclinic
loop_
_symmetry_equiv_pos_as_xyz
  x,y,z
_cell_length_a                    19.2981
_cell_length_b                    14.6004
_cell_length_c                    21.0777
_cell_angle_alpha                 90.0000
_cell_angle_beta                  90.0000
_cell_angle_gamma                 90.0000
loop_
_atom_site_label
_atom_site_type_symbol
_atom_site_fract_x
_atom_site_fract_y
_atom_site_fract_z
_atom_site_U_iso_or_equiv
_atom_site_adp_type
_atom_site_occupancy
C1     C     0.54165   0.13820   0.08352   0.00000  Uiso   1.00
C2     C     0.49174   0.20904   0.11071   0.00000  Uiso   1.00
C3     C     0.42698   0.19068   0.13634   0.00000  Uiso   1.00
C4     C     0.38924   0.26492   0.15869   0.00000  Uiso   1.00
C5     C     0.30775   0.36132   0.20136   0.00000  Uiso   1.00
C6     C     0.55691   0.16866   0.01574   0.00000  Uiso   1.00
C7     C     0.54694   0.11633   0.96153   0.00000  Uiso   1.00
C8     C     0.56406   0.15658   0.90395   0.00000  Uiso   1.00
C9     C     0.58379   0.19027   0.79919   0.00000  Uiso   1.00
C10    C     0.60928   0.14965   0.12008   0.00000  Uiso   1.00
C11    C     0.64336   0.08135   0.15359   0.00000  Uiso   1.00
C12    C     0.70459   0.10559   0.18384   0.00000  Uiso   1.00
C13    C     0.80564   0.10977   0.24108   0.00000  Uiso   1.00
C14    C     0.58979   0.30272   0.07764   0.00000  Uiso   1.00
C15    C     0.51789   0.29840   0.10751   0.00000  Uiso   1.00
C16    C     0.48024   0.37269   0.12983   0.00000  Uiso   1.00
C17    C     0.41543   0.35444   0.15550   0.00000  Uiso   1.00
C18    C     0.58305   0.25801   0.01255   0.00000  Uiso   1.00
C19    C     0.60020   0.29835   0.95503   0.00000  Uiso   1.00
C20    C     0.59025   0.24610   0.90075   0.00000  Uiso   1.00
C21    C     0.63543   0.23901   0.11689   0.00000  Uiso   1.00
C22    C     0.69662   0.26336   0.14709   0.00000  Uiso   1.00
C23    C     0.73078   0.19511   0.18064   0.00000  Uiso   1.00
H24    H     0.52130   0.06864   0.08601   0.00000  Uiso   1.00
H25    H     0.40676   0.12151   0.13880   0.00000  Uiso   1.00
H26    H     0.52671   0.04718   0.96402   0.00000  Uiso   1.00
H27    H     0.62312   0.01221   0.15605   0.00000  Uiso   1.00
H28    H     0.29130   0.21955   0.19590   0.00000  Uiso   1.00
H29    H     0.54424   0.06281   0.82738   0.00000  Uiso   1.00
H30    H     0.74753   0.98905   0.23230   0.00000  Uiso   1.00
H31    H     0.61015   0.37229   0.07515   0.00000  Uiso   1.00
H32    H     0.50048   0.44183   0.12735   0.00000  Uiso   1.00
H33    H     0.62043   0.36750   0.95257   0.00000  Uiso   1.00
H34    H     0.71684   0.33252   0.14460   0.00000  Uiso   1.00
H35    H     0.36737   0.47953   0.18661   0.00000  Uiso   1.00
H36    H     0.62031   0.32278   0.81808   0.00000  Uiso   1.00
H37    H     0.82360   0.24903   0.22301   0.00000  Uiso   1.00
O38    O     0.25558   0.38981   0.22577   0.00000  Uiso   1.00
O39    O     0.58744   0.18416   0.74228   0.00000  Uiso   1.00
O40    O     0.85415   0.08739   0.27354   0.00000  Uiso   1.00
N41    N     0.32426   0.27119   0.18656   0.00000  Uiso   1.00
N42    N     0.56073   0.12465   0.84201   0.00000  Uiso   1.00
N43    N     0.75080   0.05568   0.22057   0.00000  Uiso   1.00
N44    N     0.36519   0.41108   0.18156   0.00000  Uiso   1.00
N45    N     0.60166   0.26454   0.83701   0.00000  Uiso   1.00
N46    N     0.79173   0.19558   0.21557   0.00000  Uiso   1.00
C47    C     0.95835   0.36180   0.58352   0.00000  Uiso   1.00
C48    C     0.00826   0.29096   0.61071   0.00000  Uiso   1.00
C49    C     0.07302   0.30932   0.63634   0.00000  Uiso   1.00
C50    C     0.11076   0.23508   0.65869   0.00000  Uiso   1.00
C51    C     0.19225   0.13868   0.70136   0.00000  Uiso   1.00
C52    C     0.94309   0.33134   0.51574   0.00000  Uiso   1.00
C53    C     0.95306   0.38367   0.46153   0.00000  Uiso   1.00
C54    C     0.93594   0.34342   0.40395   0.00000  Uiso   1.00
C55    C     0.91621   0.30973   0.29919   0.00000  Uiso   1.00
C56    C     0.89072   0.35035   0.62008   0.00000  Uiso   1.00
C57    C     0.85664   0.41865   0.65359   0.00000  Uiso   1.00
C58    C     0.79541   0.39441   0.68384   0.00000  Uiso   1.00
C59    C     0.69436   0.39023   0.74108   0.00000  Uiso   1.00
C60    C     0.91021   0.19728   0.57764   0.00000  Uiso   1.00
C61    C     0.98211   0.20160   0.60751   0.00000  Uiso   1.00
C62    C     0.01976   0.12731   0.62983   0.00000  Uiso   1.00
C63    C     0.08457   0.14556   0.65550   0.00000  Uiso   1.00
C64    C     0.91695   0.24199   0.51255   0.00000  Uiso   1.00
C65    C     0.89980   0.20165   0.45503   0.00000  Uiso   1.00
C66    C     0.90975   0.25390   0.40075   0.00000  Uiso   1.00
C67    C     0.86457   0.26099   0.61689   0.00000  Uiso   1.00
C68    C     0.80338   0.23664   0.64709   0.00000  Uiso   1.00
C69    C     0.76922   0.30489   0.68064   0.00000  Uiso   1.00
H70    H     0.97870   0.43136   0.58601   0.00000  Uiso   1.00
H71    H     0.09324   0.37849   0.63880   0.00000  Uiso   1.00
H72    H     0.97329   0.45282   0.46402   0.00000  Uiso   1.00
H73    H     0.87688   0.48779   0.65605   0.00000  Uiso   1.00
H74    H     0.20870   0.28045   0.69590   0.00000  Uiso   1.00
H75    H     0.95576   0.43719   0.32738   0.00000  Uiso   1.00
H76    H     0.75247   0.51095   0.73230   0.00000  Uiso   1.00
H77    H     0.88985   0.12771   0.57515   0.00000  Uiso   1.00
H78    H     0.99952   0.05817   0.62735   0.00000  Uiso   1.00
H79    H     0.87957   0.13250   0.45257   0.00000  Uiso   1.00
H80    H     0.78316   0.16748   0.64460   0.00000  Uiso   1.00
H81    H     0.13263   0.02047   0.68661   0.00000  Uiso   1.00
H82    H     0.87969   0.17722   0.31808   0.00000  Uiso   1.00
H83    H     0.67640   0.25097   0.72301   0.00000  Uiso   1.00
O84    O     0.24442   0.11019   0.72577   0.00000  Uiso   1.00
O85    O     0.91256   0.31584   0.24228   0.00000  Uiso   1.00
O86    O     0.64585   0.41261   0.77354   0.00000  Uiso   1.00
N87    N     0.17574   0.22881   0.68656   0.00000  Uiso   1.00
N88    N     0.93927   0.37535   0.34201   0.00000  Uiso   1.00
N89    N     0.74920   0.44432   0.72057   0.00000  Uiso   1.00
N90    N     0.13481   0.08892   0.68156   0.00000  Uiso   1.00
N91    N     0.89834   0.23546   0.33701   0.00000  Uiso   1.00
N92    N     0.70827   0.30442   0.71557   0.00000  Uiso   1.00
C93    C     0.45835   0.13820   0.41648   0.00000  Uiso   1.00
C94    C     0.50826   0.20904   0.38929   0.00000  Uiso   1.00
C95    C     0.57302   0.19068   0.36366   0.00000  Uiso   1.00
C96    C     0.61076   0.26492   0.34131   0.00000  Uiso   1.00
C97    C     0.69225   0.36132   0.29864   0.00000  Uiso   1.00
C98    C     0.44309   0.16866   0.48426   0.00000  Uiso   1.00
C99    C     0.45306   0.11633   0.53847   0.00000  Uiso   1.00
C100   C     0.43594   0.15658   0.59605   0.00000  Uiso   1.00
C101   C     0.41621   0.19027   0.70081   0.00000  Uiso   1.00
C102   C     0.39072   0.14965   0.37992   0.00000  Uiso   1.00
C103   C     0.35664   0.08135   0.34641   0.00000  Uiso   1.00
C104   C     0.29541   0.10559   0.31616   0.00000  Uiso   1.00
C105   C     0.19436   0.10977   0.25892   0.00000  Uiso   1.00
C106   C     0.41021   0.30272   0.42236   0.00000  Uiso   1.00
C107   C     0.48211   0.29840   0.39249   0.00000  Uiso   1.00
C108   C     0.51976   0.37269   0.37017   0.00000  Uiso   1.00
C109   C     0.58457   0.35444   0.34450   0.00000  Uiso   1.00
C110   C     0.41695   0.25801   0.48745   0.00000  Uiso   1.00
C111   C     0.39980   0.29835   0.54497   0.00000  Uiso   1.00
C112   C     0.40975   0.24610   0.59925   0.00000  Uiso   1.00
C113   C     0.36457   0.23901   0.38311   0.00000  Uiso   1.00
C114   C     0.30338   0.26336   0.35291   0.00000  Uiso   1.00
C115   C     0.26922   0.19511   0.31936   0.00000  Uiso   1.00
H116   H     0.47870   0.06864   0.41399   0.00000  Uiso   1.00
H117   H     0.59324   0.12151   0.36120   0.00000  Uiso   1.00
H118   H     0.47329   0.04718   0.53598   0.00000  Uiso   1.00
H119   H     0.37688   0.01221   0.34395   0.00000  Uiso   1.00
H120   H     0.70870   0.21955   0.30410   0.00000  Uiso   1.00
H121   H     0.45576   0.06281   0.67262   0.00000  Uiso   1.00
H122   H     0.25247   0.98905   0.26770   0.00000  Uiso   1.00
H123   H     0.38985   0.37229   0.42485   0.00000  Uiso   1.00
H124   H     0.49952   0.44183   0.37265   0.00000  Uiso   1.00
H125   H     0.37957   0.36750   0.54743   0.00000  Uiso   1.00
H126   H     0.28316   0.33252   0.35540   0.00000  Uiso   1.00
H127   H     0.63263   0.47953   0.31339   0.00000  Uiso   1.00
H128   H     0.37969   0.32278   0.68192   0.00000  Uiso   1.00
H129   H     0.17640   0.24903   0.27699   0.00000  Uiso   1.00
O130   O     0.74442   0.38981   0.27423   0.00000  Uiso   1.00
O131   O     0.41256   0.18416   0.75772   0.00000  Uiso   1.00
O132   O     0.14585   0.08739   0.22646   0.00000  Uiso   1.00
N133   N     0.67574   0.27119   0.31344   0.00000  Uiso   1.00
N134   N     0.43927   0.12465   0.65799   0.00000  Uiso   1.00
N135   N     0.24920   0.05568   0.27943   0.00000  Uiso   1.00
N136   N     0.63481   0.41108   0.31844   0.00000  Uiso   1.00
N137   N     0.39834   0.26454   0.66299   0.00000  Uiso   1.00
N138   N     0.20827   0.19558   0.28443   0.00000  Uiso   1.00
C139   C     0.04165   0.36180   0.91648   0.00000  Uiso   1.00
C140   C     0.99174   0.29096   0.88929   0.00000  Uiso   1.00
C141   C     0.92698   0.30932   0.86366   0.00000  Uiso   1.00
C142   C     0.88924   0.23508   0.84131   0.00000  Uiso   1.00
C143   C     0.80775   0.13868   0.79864   0.00000  Uiso   1.00
C144   C     0.05691   0.33134   0.98426   0.00000  Uiso   1.00
C145   C     0.04694   0.38367   0.03847   0.00000  Uiso   1.00
C146   C     0.06406   0.34342   0.09605   0.00000  Uiso   1.00
C147   C     0.08379   0.30973   0.20081   0.00000  Uiso   1.00
C148   C     0.10928   0.35035   0.87992   0.00000  Uiso   1.00
C149   C     0.14336   0.41865   0.84641   0.00000  Uiso   1.00
C150   C     0.20459   0.39441   0.81616   0.00000  Uiso   1.00
C151   C     0.30564   0.39023   0.75892   0.00000  Uiso   1.00
C152   C     0.08979   0.19728   0.92236   0.00000  Uiso   1.00
C153   C     0.01789   0.20160   0.89249   0.00000  Uiso   1.00
C154   C     0.98024   0.12731   0.87017   0.00000  Uiso   1.00
C155   C     0.91543   0.14556   0.84450   0.00000  Uiso   1.00
C156   C     0.08305   0.24199   0.98745   0.00000  Uiso   1.00
C157   C     0.10020   0.20165   0.04497   0.00000  Uiso   1.00
C158   C     0.09025   0.25390   0.09925   0.00000  Uiso   1.00
C159   C     0.13543   0.26099   0.88311   0.00000  Uiso   1.00
C160   C     0.19662   0.23664   0.85291   0.00000  Uiso   1.00
C161   C     0.23078   0.30489   0.81936   0.00000  Uiso   1.00
H162   H     0.02130   0.43136   0.91399   0.00000  Uiso   1.00
H163   H     0.90676   0.37849   0.86120   0.00000  Uiso   1.00
H164   H     0.02671   0.45282   0.03598   0.00000  Uiso   1.00
H165   H     0.12312   0.48779   0.84395   0.00000  Uiso   1.00
H166   H     0.79130   0.28045   0.80410   0.00000  Uiso   1.00
H167   H     0.04424   0.43719   0.17262   0.00000  Uiso   1.00
H168   H     0.24753   0.51095   0.76770   0.00000  Uiso   1.00
H169   H     0.11015   0.12771   0.92485   0.00000  Uiso   1.00
H170   H     0.00048   0.05817   0.87265   0.00000  Uiso   1.00
H171   H     0.12043   0.13250   0.04743   0.00000  Uiso   1.00
H172   H     0.21684   0.16748   0.85540   0.00000  Uiso   1.00
H173   H     0.86737   0.02047   0.81339   0.00000  Uiso   1.00
H174   H     0.12031   0.17722   0.18192   0.00000  Uiso   1.00
H175   H     0.32360   0.25097   0.77699   0.00000  Uiso   1.00
O176   O     0.75558   0.11019   0.77423   0.00000  Uiso   1.00
O177   O     0.08744   0.31584   0.25772   0.00000  Uiso   1.00
O178   O     0.35415   0.41261   0.72646   0.00000  Uiso   1.00
N179   N     0.82426   0.22881   0.81344   0.00000  Uiso   1.00
N180   N     0.06073   0.37535   0.15799   0.00000  Uiso   1.00
N181   N     0.25080   0.44432   0.77943   0.00000  Uiso   1.00
N182   N     0.86519   0.08892   0.81844   0.00000  Uiso   1.00
N183   N     0.10166   0.23546   0.16299   0.00000  Uiso   1.00
N184   N     0.29173   0.30442   0.78443   0.00000  Uiso   1.00
C185   C     0.45835   0.86180   0.91648   0.00000  Uiso   1.00
C186   C     0.50826   0.79096   0.88929   0.00000  Uiso   1.00
C187   C     0.57302   0.80932   0.86366   0.00000  Uiso   1.00
C188   C     0.61076   0.73508   0.84131   0.00000  Uiso   1.00
C189   C     0.69225   0.63868   0.79864   0.00000  Uiso   1.00
C190   C     0.44309   0.83134   0.98426   0.00000  Uiso   1.00
C191   C     0.45306   0.88367   0.03847   0.00000  Uiso   1.00
C192   C     0.43594   0.84342   0.09605   0.00000  Uiso   1.00
C193   C     0.41621   0.80973   0.20081   0.00000  Uiso   1.00
C194   C     0.39072   0.85035   0.87992   0.00000  Uiso   1.00
C195   C     0.35664   0.91865   0.84641   0.00000  Uiso   1.00
C196   C     0.29541   0.89441   0.81616   0.00000  Uiso   1.00
C197   C     0.19436   0.89023   0.75892   0.00000  Uiso   1.00
C198   C     0.41021   0.69728   0.92236   0.00000  Uiso   1.00
C199   C     0.48211   0.70160   0.89249   0.00000  Uiso   1.00
C200   C     0.51976   0.62731   0.87017   0.00000  Uiso   1.00
C201   C     0.58457   0.64556   0.84450   0.00000  Uiso   1.00
C202   C     0.41695   0.74199   0.98745   0.00000  Uiso   1.00
C203   C     0.39980   0.70165   0.04497   0.00000  Uiso   1.00
C204   C     0.40975   0.75390   0.09925   0.00000  Uiso   1.00
C205   C     0.36457   0.76099   0.88311   0.00000  Uiso   1.00
C206   C     0.30338   0.73664   0.85291   0.00000  Uiso   1.00
C207   C     0.26922   0.80489   0.81936   0.00000  Uiso   1.00
H208   H     0.47870   0.93136   0.91399   0.00000  Uiso   1.00
H209   H     0.59324   0.87849   0.86120   0.00000  Uiso   1.00
H210   H     0.47329   0.95282   0.03598   0.00000  Uiso   1.00
H211   H     0.37688   0.98779   0.84395   0.00000  Uiso   1.00
H212   H     0.70870   0.78045   0.80410   0.00000  Uiso   1.00
H213   H     0.45576   0.93719   0.17262   0.00000  Uiso   1.00
H214   H     0.25247   0.01095   0.76770   0.00000  Uiso   1.00
H215   H     0.38985   0.62771   0.92485   0.00000  Uiso   1.00
H216   H     0.49952   0.55817   0.87265   0.00000  Uiso   1.00
H217   H     0.37957   0.63250   0.04743   0.00000  Uiso   1.00
H218   H     0.28316   0.66748   0.85540   0.00000  Uiso   1.00
H219   H     0.63263   0.52047   0.81339   0.00000  Uiso   1.00
H220   H     0.37969   0.67722   0.18192   0.00000  Uiso   1.00
H221   H     0.17640   0.75097   0.77699   0.00000  Uiso   1.00
O222   O     0.74442   0.61019   0.77423   0.00000  Uiso   1.00
O223   O     0.41256   0.81584   0.25772   0.00000  Uiso   1.00
O224   O     0.14585   0.91261   0.72646   0.00000  Uiso   1.00
N225   N     0.67574   0.72881   0.81344   0.00000  Uiso   1.00
N226   N     0.43927   0.87535   0.15799   0.00000  Uiso   1.00
N227   N     0.24920   0.94432   0.77943   0.00000  Uiso   1.00
N228   N     0.63481   0.58892   0.81844   0.00000  Uiso   1.00
N229   N     0.39834   0.73546   0.16299   0.00000  Uiso   1.00
N230   N     0.20827   0.80442   0.78443   0.00000  Uiso   1.00
C231   C     0.04165   0.63820   0.41648   0.00000  Uiso   1.00
C232   C     0.99174   0.70904   0.38929   0.00000  Uiso   1.00
C233   C     0.92698   0.69068   0.36366   0.00000  Uiso   1.00
C234   C     0.88924   0.76492   0.34131   0.00000  Uiso   1.00
C235   C     0.80775   0.86132   0.29864   0.00000  Uiso   1.00
C236   C     0.05691   0.66866   0.48426   0.00000  Uiso   1.00
C237   C     0.04694   0.61633   0.53847   0.00000  Uiso   1.00
C238   C     0.06406   0.65658   0.59605   0.00000  Uiso   1.00
C239   C     0.08379   0.69027   0.70081   0.00000  Uiso   1.00
C240   C     0.10928   0.64965   0.37992   0.00000  Uiso   1.00
C241   C     0.14336   0.58135   0.34641   0.00000  Uiso   1.00
C242   C     0.20459   0.60559   0.31616   0.00000  Uiso   1.00
C243   C     0.30564   0.60977   0.25892   0.00000  Uiso   1.00
C244   C     0.08979   0.80272   0.42236   0.00000  Uiso   1.00
C245   C     0.01789   0.79840   0.39249   0.00000  Uiso   1.00
C246   C     0.98024   0.87269   0.37017   0.00000  Uiso   1.00
C247   C     0.91543   0.85444   0.34450   0.00000  Uiso   1.00
C248   C     0.08305   0.75801   0.48745   0.00000  Uiso   1.00
C249   C     0.10020   0.79835   0.54497   0.00000  Uiso   1.00
C250   C     0.09025   0.74610   0.59925   0.00000  Uiso   1.00
C251   C     0.13543   0.73901   0.38311   0.00000  Uiso   1.00
C252   C     0.19662   0.76336   0.35291   0.00000  Uiso   1.00
C253   C     0.23078   0.69511   0.31936   0.00000  Uiso   1.00
H254   H     0.02130   0.56864   0.41399   0.00000  Uiso   1.00
H255   H     0.90676   0.62151   0.36120   0.00000  Uiso   1.00
H256   H     0.02671   0.54718   0.53598   0.00000  Uiso   1.00
H257   H     0.12312   0.51221   0.34395   0.00000  Uiso   1.00
H258   H     0.79130   0.71955   0.30410   0.00000  Uiso   1.00
H259   H     0.04424   0.56281   0.67262   0.00000  Uiso   1.00
H260   H     0.24753   0.48905   0.26770   0.00000  Uiso   1.00
H261   H     0.11015   0.87229   0.42485   0.00000  Uiso   1.00
H262   H     0.00048   0.94183   0.37265   0.00000  Uiso   1.00
H263   H     0.12043   0.86750   0.54743   0.00000  Uiso   1.00
H264   H     0.21684   0.83252   0.35540   0.00000  Uiso   1.00
H265   H     0.86737   0.97953   0.31339   0.00000  Uiso   1.00
H266   H     0.12031   0.82278   0.68192   0.00000  Uiso   1.00
H267   H     0.32360   0.74903   0.27699   0.00000  Uiso   1.00
O268   O     0.75558   0.88981   0.27423   0.00000  Uiso   1.00
O269   O     0.08744   0.68416   0.75772   0.00000  Uiso   1.00
O270   O     0.35415   0.58739   0.22646   0.00000  Uiso   1.00
N271   N     0.82426   0.77119   0.31344   0.00000  Uiso   1.00
N272   N     0.06073   0.62465   0.65799   0.00000  Uiso   1.00
N273   N     0.25080   0.55568   0.27943   0.00000  Uiso   1.00
N274   N     0.86519   0.91108   0.31844   0.00000  Uiso   1.00
N275   N     0.10166   0.76454   0.66299   0.00000  Uiso   1.00
N276   N     0.29173   0.69558   0.28443   0.00000  Uiso   1.00
C277   C     0.54165   0.86180   0.58352   0.00000  Uiso   1.00
C278   C     0.49174   0.79096   0.61071   0.00000  Uiso   1.00
C279   C     0.42698   0.80932   0.63634   0.00000  Uiso   1.00
C280   C     0.38924   0.73508   0.65869   0.00000  Uiso   1.00
C281   C     0.30775   0.63868   0.70136   0.00000  Uiso   1.00
C282   C     0.55691   0.83134   0.51574   0.00000  Uiso   1.00
C283   C     0.54694   0.88367   0.46153   0.00000  Uiso   1.00
C284   C     0.56406   0.84342   0.40395   0.00000  Uiso   1.00
C285   C     0.58379   0.80973   0.29919   0.00000  Uiso   1.00
C286   C     0.60928   0.85035   0.62008   0.00000  Uiso   1.00
C287   C     0.64336   0.91865   0.65359   0.00000  Uiso   1.00
C288   C     0.70459   0.89441   0.68384   0.00000  Uiso   1.00
C289   C     0.80564   0.89023   0.74108   0.00000  Uiso   1.00
C290   C     0.58979   0.69728   0.57764   0.00000  Uiso   1.00
C291   C     0.51789   0.70160   0.60751   0.00000  Uiso   1.00
C292   C     0.48024   0.62731   0.62983   0.00000  Uiso   1.00
C293   C     0.41543   0.64556   0.65550   0.00000  Uiso   1.00
C294   C     0.58305   0.74199   0.51255   0.00000  Uiso   1.00
C295   C     0.60020   0.70165   0.45503   0.00000  Uiso   1.00
C296   C     0.59025   0.75390   0.40075   0.00000  Uiso   1.00
C297   C     0.63543   0.76099   0.61689   0.00000  Uiso   1.00
C298   C     0.69662   0.73664   0.64709   0.00000  Uiso   1.00
C299   C     0.73078   0.80489   0.68064   0.00000  Uiso   1.00
H300   H     0.52130   0.93136   0.58601   0.00000  Uiso   1.00
H301   H     0.40676   0.87849   0.63880   0.00000  Uiso   1.00
H302   H     0.52671   0.95282   0.46402   0.00000  Uiso   1.00
H303   H     0.62312   0.98779   0.65605   0.00000  Uiso   1.00
H304   H     0.29130   0.78045   0.69590   0.00000  Uiso   1.00
H305   H     0.54424   0.93719   0.32738   0.00000  Uiso   1.00
H306   H     0.74753   0.01095   0.73230   0.00000  Uiso   1.00
H307   H     0.61015   0.62771   0.57515   0.00000  Uiso   1.00
H308   H     0.50048   0.55817   0.62735   0.00000  Uiso   1.00
H309   H     0.62043   0.63250   0.45257   0.00000  Uiso   1.00
H310   H     0.71684   0.66748   0.64460   0.00000  Uiso   1.00
H311   H     0.36737   0.52047   0.68661   0.00000  Uiso   1.00
H312   H     0.62031   0.67722   0.31808   0.00000  Uiso   1.00
H313   H     0.82360   0.75097   0.72301   0.00000  Uiso   1.00
O314   O     0.25558   0.61019   0.72577   0.00000  Uiso   1.00
O315   O     0.58744   0.81584   0.24228   0.00000  Uiso   1.00
O316   O     0.85415   0.91261   0.77354   0.00000  Uiso   1.00
N317   N     0.32426   0.72881   0.68656   0.00000  Uiso   1.00
N318   N     0.56073   0.87535   0.34201   0.00000  Uiso   1.00
N319   N     0.75080   0.94432   0.72057   0.00000  Uiso   1.00
N320   N     0.36519   0.58892   0.68156   0.00000  Uiso   1.00
N321   N     0.60166   0.73546   0.33701   0.00000  Uiso   1.00
N322   N     0.79173   0.80442   0.71557   0.00000  Uiso   1.00
C323   C     0.95835   0.63820   0.08352   0.00000  Uiso   1.00
C324   C     0.00826   0.70904   0.11071   0.00000  Uiso   1.00
C325   C     0.07302   0.69068   0.13634   0.00000  Uiso   1.00
C326   C     0.11076   0.76492   0.15869   0.00000  Uiso   1.00
C327   C     0.19225   0.86132   0.20136   0.00000  Uiso   1.00
C328   C     0.94309   0.66866   0.01574   0.00000  Uiso   1.00
C329   C     0.95306   0.61633   0.96153   0.00000  Uiso   1.00
C330   C     0.93594   0.65658   0.90395   0.00000  Uiso   1.00
C331   C     0.91621   0.69027   0.79919   0.00000  Uiso   1.00
C332   C     0.89072   0.64965   0.12008   0.00000  Uiso   1.00
C333   C     0.85664   0.58135   0.15359   0.00000  Uiso   1.00
C334   C     0.79541   0.60559   0.18384   0.00000  Uiso   1.00
C335   C     0.69436   0.60977   0.24108   0.00000  Uiso   1.00
C336   C     0.91021   0.80272   0.07764   0.00000  Uiso   1.00
C337   C     0.98211   0.79840   0.10751   0.00000  Uiso   1.00
C338   C     0.01976   0.87269   0.12983   0.00000  Uiso   1.00
C339   C     0.08457   0.85444   0.15550   0.00000  Uiso   1.00
C340   C     0.91695   0.75801   0.01255   0.00000  Uiso   1.00
C341   C     0.89980   0.79835   0.95503   0.00000  Uiso   1.00
C342   C     0.90975   0.74610   0.90075   0.00000  Uiso   1.00
C343   C     0.86457   0.73901   0.11689   0.00000  Uiso   1.00
C344   C     0.80338   0.76336   0.14709   0.00000  Uiso   1.00
C345   C     0.76922   0.69511   0.18064   0.00000  Uiso   1.00
H346   H     0.97870   0.56864   0.08601   0.00000  Uiso   1.00
H347   H     0.09324   0.62151   0.13880   0.00000  Uiso   1.00
H348   H     0.97329   0.54718   0.96402   0.00000  Uiso   1.00
H349   H     0.87688   0.51221   0.15605   0.00000  Uiso   1.00
H350   H     0.20870   0.71955   0.19590   0.00000  Uiso   1.00
H351   H     0.95576   0.56281   0.82738   0.00000  Uiso   1.00
H352   H     0.75247   0.48905   0.23230   0.00000  Uiso   1.00
H353   H     0.88985   0.87229   0.07515   0.00000  Uiso   1.00
H354   H     0.99952   0.94183   0.12735   0.00000  Uiso   1.00
H355   H     0.87957   0.86750   0.95257   0.00000  Uiso   1.00
H356   H     0.78316   0.83252   0.14460   0.00000  Uiso   1.00
H357   H     0.13263   0.97953   0.18661   0.00000  Uiso   1.00
H358   H     0.87969   0.82278   0.81808   0.00000  Uiso   1.00
H359   H     0.67640   0.74903   0.22301   0.00000  Uiso   1.00
O360   O     0.24442   0.88981   0.22577   0.00000  Uiso   1.00
O361   O     0.91256   0.68416   0.74228   0.00000  Uiso   1.00
O362   O     0.64585   0.58739   0.27354   0.00000  Uiso   1.00
N363   N     0.17574   0.77119   0.18656   0.00000  Uiso   1.00
N364   N     0.93927   0.62465   0.84201   0.00000  Uiso   1.00
N365   N     0.74920   0.55568   0.22057   0.00000  Uiso   1.00
N366   N     0.13481   0.91108   0.18156   0.00000  Uiso   1.00
N367   N     0.89834   0.76454   0.83701   0.00000  Uiso   1.00
N368   N     0.70827   0.69558   0.21557   0.00000  Uiso   1.00
