data_job_05385
_audit_creation_date              2018-12-19
_audit_creation_method            'Materials Studio'
_symmetry_space_group_name_H-M    'P1'
_symmetry_Int_Tables_number       1
_symmetry_cell_setting            triclinic
loop_
_symmetry_equiv_pos_as_xyz
  x,y,z
_cell_length_a                    22.7202
_cell_length_b                    12.1540
_cell_length_c                    23.4980
_cell_angle_alpha                 90.0000
_cell_angle_beta                  90.0000
_cell_angle_gamma                 90.0000
loop_
_atom_site_label
_atom_site_type_symbol
_atom_site_fract_x
_atom_site_fract_y
_atom_site_fract_z
_atom_site_U_iso_or_equiv
_atom_site_adp_type
_atom_site_occupancy
C1     C     0.59728   0.22403   0.16427   0.00000  Uiso   1.00
C2     C     0.59192   0.31154   0.11806   0.00000  Uiso   1.00
C3     C     0.56652   0.41461   0.12459   0.00000  Uiso   1.00
C4     C     0.56591   0.48274   0.07717   0.00000  Uiso   1.00
C5     C     0.55392   0.62375   0.01331   0.00000  Uiso   1.00
C6     C     0.56749   0.12130   0.14063   0.00000  Uiso   1.00
C7     C     0.52157   0.06442   0.16616   0.00000  Uiso   1.00
C8     C     0.50041   0.97240   0.13774   0.00000  Uiso   1.00
C9     C     0.45054   0.81800   0.10896   0.00000  Uiso   1.00
C10    C     0.66262   0.19656   0.16845   0.00000  Uiso   1.00
C11    C     0.69668   0.20293   0.21737   0.00000  Uiso   1.00
C12    C     0.75561   0.17425   0.21238   0.00000  Uiso   1.00
C13    C     0.85343   0.13671   0.22679   0.00000  Uiso   1.00
C14    C     0.64136   0.16173   0.06844   0.00000  Uiso   1.00
C15    C     0.61586   0.27770   0.06600   0.00000  Uiso   1.00
C16    C     0.61529   0.34569   0.01856   0.00000  Uiso   1.00
C17    C     0.58990   0.44885   0.02502   0.00000  Uiso   1.00
C18    C     0.59143   0.08746   0.08858   0.00000  Uiso   1.00
C19    C     0.57034   0.99550   0.06012   0.00000  Uiso   1.00
C20    C     0.52440   0.93850   0.08559   0.00000  Uiso   1.00
C21    C     0.68656   0.16272   0.11640   0.00000  Uiso   1.00
C22    C     0.74545   0.13401   0.11133   0.00000  Uiso   1.00
C23    C     0.77959   0.14035   0.16023   0.00000  Uiso   1.00
H24    H     0.57863   0.25037   0.20480   0.00000  Uiso   1.00
H25    H     0.54799   0.44076   0.16488   0.00000  Uiso   1.00
H26    H     0.50306   0.09062   0.20644   0.00000  Uiso   1.00
H27    H     0.67814   0.22912   0.25764   0.00000  Uiso   1.00
H28    H     0.52456   0.63692   0.09766   0.00000  Uiso   1.00
H29    H     0.42983   0.89859   0.18531   0.00000  Uiso   1.00
H30    H     0.79902   0.19064   0.29327   0.00000  Uiso   1.00
H31    H     0.66000   0.13539   0.02791   0.00000  Uiso   1.00
H32    H     0.63382   0.31948   0.97828   0.00000  Uiso   1.00
H33    H     0.58888   0.96933   0.01984   0.00000  Uiso   1.00
H34    H     0.76396   0.10783   0.07104   0.00000  Uiso   1.00
H35    H     0.59422   0.53848   0.94621   0.00000  Uiso   1.00
H36    H     0.49948   0.80015   0.03386   0.00000  Uiso   1.00
H37    H     0.86867   0.09220   0.14182   0.00000  Uiso   1.00
O38    O     0.54068   0.71086   0.99247   0.00000  Uiso   1.00
O39    O     0.41641   0.74220   0.10747   0.00000  Uiso   1.00
O40    O     0.90077   0.12536   0.24912   0.00000  Uiso   1.00
N41    N     0.54456   0.58849   0.06883   0.00000  Uiso   1.00
N42    N     0.45598   0.89821   0.15077   0.00000  Uiso   1.00
N43    N     0.80114   0.17123   0.25171   0.00000  Uiso   1.00
N44    N     0.58204   0.53553   0.98733   0.00000  Uiso   1.00
N45    N     0.49346   0.84525   0.06927   0.00000  Uiso   1.00
N46    N     0.83862   0.11826   0.17022   0.00000  Uiso   1.00
C47    C     0.90272   0.77597   0.16427   0.00000  Uiso   1.00
C48    C     0.90808   0.68846   0.11806   0.00000  Uiso   1.00
C49    C     0.93348   0.58539   0.12459   0.00000  Uiso   1.00
C50    C     0.93409   0.51726   0.07717   0.00000  Uiso   1.00
C51    C     0.94608   0.37625   0.01331   0.00000  Uiso   1.00
C52    C     0.93251   0.87870   0.14063   0.00000  Uiso   1.00
C53    C     0.97843   0.93558   0.16616   0.00000  Uiso   1.00
C54    C     0.99959   0.02760   0.13774   0.00000  Uiso   1.00
C55    C     0.04946   0.18200   0.10896   0.00000  Uiso   1.00
C56    C     0.83738   0.80344   0.16845   0.00000  Uiso   1.00
C57    C     0.80332   0.79707   0.21737   0.00000  Uiso   1.00
C58    C     0.74439   0.82575   0.21238   0.00000  Uiso   1.00
C59    C     0.64657   0.86329   0.22679   0.00000  Uiso   1.00
C60    C     0.85864   0.83827   0.06844   0.00000  Uiso   1.00
C61    C     0.88414   0.72230   0.06600   0.00000  Uiso   1.00
C62    C     0.88471   0.65431   0.01856   0.00000  Uiso   1.00
C63    C     0.91010   0.55115   0.02502   0.00000  Uiso   1.00
C64    C     0.90857   0.91254   0.08858   0.00000  Uiso   1.00
C65    C     0.92966   0.00450   0.06012   0.00000  Uiso   1.00
C66    C     0.97560   0.06150   0.08559   0.00000  Uiso   1.00
C67    C     0.81344   0.83728   0.11640   0.00000  Uiso   1.00
C68    C     0.75455   0.86599   0.11133   0.00000  Uiso   1.00
C69    C     0.72041   0.85965   0.16023   0.00000  Uiso   1.00
H70    H     0.92137   0.74963   0.20480   0.00000  Uiso   1.00
H71    H     0.95201   0.55924   0.16488   0.00000  Uiso   1.00
H72    H     0.99694   0.90938   0.20644   0.00000  Uiso   1.00
H73    H     0.82186   0.77088   0.25764   0.00000  Uiso   1.00
H74    H     0.97544   0.36308   0.09766   0.00000  Uiso   1.00
H75    H     0.07017   0.10141   0.18531   0.00000  Uiso   1.00
H76    H     0.70098   0.80936   0.29327   0.00000  Uiso   1.00
H77    H     0.84000   0.86461   0.02791   0.00000  Uiso   1.00
H78    H     0.86618   0.68052   0.97828   0.00000  Uiso   1.00
H79    H     0.91112   0.03067   0.01984   0.00000  Uiso   1.00
H80    H     0.73604   0.89217   0.07104   0.00000  Uiso   1.00
H81    H     0.90578   0.46152   0.94621   0.00000  Uiso   1.00
H82    H     0.00052   0.19985   0.03386   0.00000  Uiso   1.00
H83    H     0.63133   0.90780   0.14182   0.00000  Uiso   1.00
O84    O     0.95932   0.28914   0.99247   0.00000  Uiso   1.00
O85    O     0.08359   0.25780   0.10747   0.00000  Uiso   1.00
O86    O     0.59923   0.87464   0.24912   0.00000  Uiso   1.00
N87    N     0.95544   0.41151   0.06883   0.00000  Uiso   1.00
N88    N     0.04402   0.10179   0.15077   0.00000  Uiso   1.00
N89    N     0.69886   0.82877   0.25171   0.00000  Uiso   1.00
N90    N     0.91796   0.46447   0.98733   0.00000  Uiso   1.00
N91    N     0.00654   0.15475   0.06927   0.00000  Uiso   1.00
N92    N     0.66138   0.88174   0.17022   0.00000  Uiso   1.00
C93    C     0.40272   0.22403   0.33573   0.00000  Uiso   1.00
C94    C     0.40808   0.31154   0.38194   0.00000  Uiso   1.00
C95    C     0.43348   0.41461   0.37541   0.00000  Uiso   1.00
C96    C     0.43409   0.48274   0.42283   0.00000  Uiso   1.00
C97    C     0.44608   0.62375   0.48669   0.00000  Uiso   1.00
C98    C     0.43251   0.12130   0.35937   0.00000  Uiso   1.00
C99    C     0.47843   0.06442   0.33384   0.00000  Uiso   1.00
C100   C     0.49959   0.97240   0.36226   0.00000  Uiso   1.00
C101   C     0.54946   0.81800   0.39104   0.00000  Uiso   1.00
C102   C     0.33738   0.19656   0.33155   0.00000  Uiso   1.00
C103   C     0.30332   0.20293   0.28263   0.00000  Uiso   1.00
C104   C     0.24439   0.17425   0.28762   0.00000  Uiso   1.00
C105   C     0.14657   0.13671   0.27321   0.00000  Uiso   1.00
C106   C     0.35864   0.16173   0.43156   0.00000  Uiso   1.00
C107   C     0.38414   0.27770   0.43400   0.00000  Uiso   1.00
C108   C     0.38471   0.34569   0.48144   0.00000  Uiso   1.00
C109   C     0.41010   0.44885   0.47498   0.00000  Uiso   1.00
C110   C     0.40857   0.08746   0.41142   0.00000  Uiso   1.00
C111   C     0.42966   0.99550   0.43988   0.00000  Uiso   1.00
C112   C     0.47560   0.93850   0.41441   0.00000  Uiso   1.00
C113   C     0.31344   0.16272   0.38360   0.00000  Uiso   1.00
C114   C     0.25455   0.13401   0.38867   0.00000  Uiso   1.00
C115   C     0.22041   0.14035   0.33977   0.00000  Uiso   1.00
H116   H     0.42137   0.25037   0.29520   0.00000  Uiso   1.00
H117   H     0.45201   0.44076   0.33512   0.00000  Uiso   1.00
H118   H     0.49694   0.09062   0.29356   0.00000  Uiso   1.00
H119   H     0.32186   0.22912   0.24236   0.00000  Uiso   1.00
H120   H     0.47544   0.63692   0.40234   0.00000  Uiso   1.00
H121   H     0.57017   0.89859   0.31469   0.00000  Uiso   1.00
H122   H     0.20098   0.19064   0.20673   0.00000  Uiso   1.00
H123   H     0.34000   0.13539   0.47209   0.00000  Uiso   1.00
H124   H     0.36618   0.31948   0.52172   0.00000  Uiso   1.00
H125   H     0.41112   0.96933   0.48016   0.00000  Uiso   1.00
H126   H     0.23604   0.10783   0.42896   0.00000  Uiso   1.00
H127   H     0.40578   0.53848   0.55379   0.00000  Uiso   1.00
H128   H     0.50052   0.80015   0.46614   0.00000  Uiso   1.00
H129   H     0.13133   0.09220   0.35818   0.00000  Uiso   1.00
O130   O     0.45932   0.71086   0.50753   0.00000  Uiso   1.00
O131   O     0.58359   0.74220   0.39253   0.00000  Uiso   1.00
O132   O     0.09923   0.12536   0.25088   0.00000  Uiso   1.00
N133   N     0.45544   0.58849   0.43117   0.00000  Uiso   1.00
N134   N     0.54402   0.89821   0.34923   0.00000  Uiso   1.00
N135   N     0.19886   0.17123   0.24829   0.00000  Uiso   1.00
N136   N     0.41796   0.53553   0.51267   0.00000  Uiso   1.00
N137   N     0.50654   0.84525   0.43073   0.00000  Uiso   1.00
N138   N     0.16138   0.11826   0.32978   0.00000  Uiso   1.00
C139   C     0.09728   0.77597   0.33573   0.00000  Uiso   1.00
C140   C     0.09192   0.68846   0.38194   0.00000  Uiso   1.00
C141   C     0.06652   0.58539   0.37541   0.00000  Uiso   1.00
C142   C     0.06591   0.51726   0.42283   0.00000  Uiso   1.00
C143   C     0.05392   0.37625   0.48669   0.00000  Uiso   1.00
C144   C     0.06749   0.87870   0.35937   0.00000  Uiso   1.00
C145   C     0.02157   0.93558   0.33384   0.00000  Uiso   1.00
C146   C     0.00041   0.02760   0.36226   0.00000  Uiso   1.00
C147   C     0.95054   0.18200   0.39104   0.00000  Uiso   1.00
C148   C     0.16262   0.80344   0.33155   0.00000  Uiso   1.00
C149   C     0.19668   0.79707   0.28263   0.00000  Uiso   1.00
C150   C     0.25561   0.82575   0.28762   0.00000  Uiso   1.00
C151   C     0.35343   0.86329   0.27321   0.00000  Uiso   1.00
C152   C     0.14136   0.83827   0.43156   0.00000  Uiso   1.00
C153   C     0.11586   0.72230   0.43400   0.00000  Uiso   1.00
C154   C     0.11529   0.65431   0.48144   0.00000  Uiso   1.00
C155   C     0.08990   0.55115   0.47498   0.00000  Uiso   1.00
C156   C     0.09143   0.91254   0.41142   0.00000  Uiso   1.00
C157   C     0.07034   0.00450   0.43988   0.00000  Uiso   1.00
C158   C     0.02440   0.06150   0.41441   0.00000  Uiso   1.00
C159   C     0.18656   0.83728   0.38360   0.00000  Uiso   1.00
C160   C     0.24545   0.86599   0.38867   0.00000  Uiso   1.00
C161   C     0.27959   0.85965   0.33977   0.00000  Uiso   1.00
H162   H     0.07863   0.74963   0.29520   0.00000  Uiso   1.00
H163   H     0.04799   0.55924   0.33512   0.00000  Uiso   1.00
H164   H     0.00306   0.90938   0.29356   0.00000  Uiso   1.00
H165   H     0.17814   0.77088   0.24236   0.00000  Uiso   1.00
H166   H     0.02456   0.36308   0.40234   0.00000  Uiso   1.00
H167   H     0.92983   0.10141   0.31469   0.00000  Uiso   1.00
H168   H     0.29902   0.80936   0.20673   0.00000  Uiso   1.00
H169   H     0.16000   0.86461   0.47209   0.00000  Uiso   1.00
H170   H     0.13382   0.68052   0.52172   0.00000  Uiso   1.00
H171   H     0.08888   0.03067   0.48016   0.00000  Uiso   1.00
H172   H     0.26396   0.89217   0.42896   0.00000  Uiso   1.00
H173   H     0.09422   0.46152   0.55379   0.00000  Uiso   1.00
H174   H     0.99948   0.19985   0.46614   0.00000  Uiso   1.00
H175   H     0.36867   0.90780   0.35818   0.00000  Uiso   1.00
O176   O     0.04068   0.28914   0.50753   0.00000  Uiso   1.00
O177   O     0.91641   0.25780   0.39253   0.00000  Uiso   1.00
O178   O     0.40077   0.87464   0.25088   0.00000  Uiso   1.00
N179   N     0.04456   0.41151   0.43117   0.00000  Uiso   1.00
N180   N     0.95598   0.10179   0.34923   0.00000  Uiso   1.00
N181   N     0.30114   0.82877   0.24829   0.00000  Uiso   1.00
N182   N     0.08204   0.46447   0.51267   0.00000  Uiso   1.00
N183   N     0.99346   0.15475   0.43073   0.00000  Uiso   1.00
N184   N     0.33862   0.88174   0.32978   0.00000  Uiso   1.00
C185   C     0.40272   0.77597   0.83573   0.00000  Uiso   1.00
C186   C     0.40808   0.68846   0.88194   0.00000  Uiso   1.00
C187   C     0.43348   0.58539   0.87541   0.00000  Uiso   1.00
C188   C     0.43409   0.51726   0.92283   0.00000  Uiso   1.00
C189   C     0.44608   0.37625   0.98669   0.00000  Uiso   1.00
C190   C     0.43251   0.87870   0.85937   0.00000  Uiso   1.00
C191   C     0.47843   0.93558   0.83384   0.00000  Uiso   1.00
C192   C     0.49959   0.02760   0.86226   0.00000  Uiso   1.00
C193   C     0.54946   0.18200   0.89104   0.00000  Uiso   1.00
C194   C     0.33738   0.80344   0.83155   0.00000  Uiso   1.00
C195   C     0.30332   0.79707   0.78263   0.00000  Uiso   1.00
C196   C     0.24439   0.82575   0.78762   0.00000  Uiso   1.00
C197   C     0.14657   0.86329   0.77321   0.00000  Uiso   1.00
C198   C     0.35864   0.83827   0.93156   0.00000  Uiso   1.00
C199   C     0.38414   0.72230   0.93400   0.00000  Uiso   1.00
C200   C     0.38471   0.65431   0.98144   0.00000  Uiso   1.00
C201   C     0.41010   0.55115   0.97498   0.00000  Uiso   1.00
C202   C     0.40857   0.91254   0.91142   0.00000  Uiso   1.00
C203   C     0.42966   0.00450   0.93988   0.00000  Uiso   1.00
C204   C     0.47560   0.06150   0.91441   0.00000  Uiso   1.00
C205   C     0.31344   0.83728   0.88360   0.00000  Uiso   1.00
C206   C     0.25455   0.86599   0.88867   0.00000  Uiso   1.00
C207   C     0.22041   0.85965   0.83977   0.00000  Uiso   1.00
H208   H     0.42137   0.74963   0.79520   0.00000  Uiso   1.00
H209   H     0.45201   0.55924   0.83512   0.00000  Uiso   1.00
H210   H     0.49694   0.90938   0.79356   0.00000  Uiso   1.00
H211   H     0.32186   0.77088   0.74236   0.00000  Uiso   1.00
H212   H     0.47544   0.36308   0.90234   0.00000  Uiso   1.00
H213   H     0.57017   0.10141   0.81469   0.00000  Uiso   1.00
H214   H     0.20098   0.80936   0.70673   0.00000  Uiso   1.00
H215   H     0.34000   0.86461   0.97209   0.00000  Uiso   1.00
H216   H     0.36618   0.68052   0.02172   0.00000  Uiso   1.00
H217   H     0.41112   0.03067   0.98016   0.00000  Uiso   1.00
H218   H     0.23604   0.89217   0.92896   0.00000  Uiso   1.00
H219   H     0.40578   0.46152   0.05379   0.00000  Uiso   1.00
H220   H     0.50052   0.19985   0.96614   0.00000  Uiso   1.00
H221   H     0.13133   0.90780   0.85818   0.00000  Uiso   1.00
O222   O     0.45932   0.28914   0.00753   0.00000  Uiso   1.00
O223   O     0.58359   0.25780   0.89253   0.00000  Uiso   1.00
O224   O     0.09923   0.87464   0.75088   0.00000  Uiso   1.00
N225   N     0.45544   0.41151   0.93117   0.00000  Uiso   1.00
N226   N     0.54402   0.10179   0.84923   0.00000  Uiso   1.00
N227   N     0.19886   0.82877   0.74829   0.00000  Uiso   1.00
N228   N     0.41796   0.46447   0.01267   0.00000  Uiso   1.00
N229   N     0.50654   0.15475   0.93073   0.00000  Uiso   1.00
N230   N     0.16138   0.88174   0.82978   0.00000  Uiso   1.00
C231   C     0.09728   0.22403   0.83573   0.00000  Uiso   1.00
C232   C     0.09192   0.31154   0.88194   0.00000  Uiso   1.00
C233   C     0.06652   0.41461   0.87541   0.00000  Uiso   1.00
C234   C     0.06591   0.48274   0.92283   0.00000  Uiso   1.00
C235   C     0.05392   0.62375   0.98669   0.00000  Uiso   1.00
C236   C     0.06749   0.12130   0.85937   0.00000  Uiso   1.00
C237   C     0.02157   0.06442   0.83384   0.00000  Uiso   1.00
C238   C     0.00041   0.97240   0.86226   0.00000  Uiso   1.00
C239   C     0.95054   0.81800   0.89104   0.00000  Uiso   1.00
C240   C     0.16262   0.19656   0.83155   0.00000  Uiso   1.00
C241   C     0.19668   0.20293   0.78263   0.00000  Uiso   1.00
C242   C     0.25561   0.17425   0.78762   0.00000  Uiso   1.00
C243   C     0.35343   0.13671   0.77321   0.00000  Uiso   1.00
C244   C     0.14136   0.16173   0.93156   0.00000  Uiso   1.00
C245   C     0.11586   0.27770   0.93400   0.00000  Uiso   1.00
C246   C     0.11529   0.34569   0.98144   0.00000  Uiso   1.00
C247   C     0.08990   0.44885   0.97498   0.00000  Uiso   1.00
C248   C     0.09143   0.08746   0.91142   0.00000  Uiso   1.00
C249   C     0.07034   0.99550   0.93988   0.00000  Uiso   1.00
C250   C     0.02440   0.93850   0.91441   0.00000  Uiso   1.00
C251   C     0.18656   0.16272   0.88360   0.00000  Uiso   1.00
C252   C     0.24545   0.13401   0.88867   0.00000  Uiso   1.00
C253   C     0.27959   0.14035   0.83977   0.00000  Uiso   1.00
H254   H     0.07863   0.25037   0.79520   0.00000  Uiso   1.00
H255   H     0.04799   0.44076   0.83512   0.00000  Uiso   1.00
H256   H     0.00306   0.09062   0.79356   0.00000  Uiso   1.00
H257   H     0.17814   0.22912   0.74236   0.00000  Uiso   1.00
H258   H     0.02456   0.63692   0.90234   0.00000  Uiso   1.00
H259   H     0.92983   0.89859   0.81469   0.00000  Uiso   1.00
H260   H     0.29902   0.19064   0.70673   0.00000  Uiso   1.00
H261   H     0.16000   0.13539   0.97209   0.00000  Uiso   1.00
H262   H     0.13382   0.31948   0.02172   0.00000  Uiso   1.00
H263   H     0.08888   0.96933   0.98016   0.00000  Uiso   1.00
H264   H     0.26396   0.10783   0.92896   0.00000  Uiso   1.00
H265   H     0.09422   0.53848   0.05379   0.00000  Uiso   1.00
H266   H     0.99948   0.80015   0.96614   0.00000  Uiso   1.00
H267   H     0.36867   0.09220   0.85818   0.00000  Uiso   1.00
O268   O     0.04068   0.71086   0.00753   0.00000  Uiso   1.00
O269   O     0.91641   0.74220   0.89253   0.00000  Uiso   1.00
O270   O     0.40077   0.12536   0.75088   0.00000  Uiso   1.00
N271   N     0.04456   0.58849   0.93117   0.00000  Uiso   1.00
N272   N     0.95598   0.89821   0.84923   0.00000  Uiso   1.00
N273   N     0.30114   0.17123   0.74829   0.00000  Uiso   1.00
N274   N     0.08204   0.53553   0.01267   0.00000  Uiso   1.00
N275   N     0.99346   0.84525   0.93073   0.00000  Uiso   1.00
N276   N     0.33862   0.11826   0.82978   0.00000  Uiso   1.00
C277   C     0.59728   0.77597   0.66427   0.00000  Uiso   1.00
C278   C     0.59192   0.68846   0.61806   0.00000  Uiso   1.00
C279   C     0.56652   0.58539   0.62459   0.00000  Uiso   1.00
C280   C     0.56591   0.51726   0.57717   0.00000  Uiso   1.00
C281   C     0.55392   0.37625   0.51331   0.00000  Uiso   1.00
C282   C     0.56749   0.87870   0.64063   0.00000  Uiso   1.00
C283   C     0.52157   0.93558   0.66616   0.00000  Uiso   1.00
C284   C     0.50041   0.02760   0.63774   0.00000  Uiso   1.00
C285   C     0.45054   0.18200   0.60896   0.00000  Uiso   1.00
C286   C     0.66262   0.80344   0.66845   0.00000  Uiso   1.00
C287   C     0.69668   0.79707   0.71737   0.00000  Uiso   1.00
C288   C     0.75561   0.82575   0.71238   0.00000  Uiso   1.00
C289   C     0.85343   0.86329   0.72679   0.00000  Uiso   1.00
C290   C     0.64136   0.83827   0.56844   0.00000  Uiso   1.00
C291   C     0.61586   0.72230   0.56600   0.00000  Uiso   1.00
C292   C     0.61529   0.65431   0.51856   0.00000  Uiso   1.00
C293   C     0.58990   0.55115   0.52502   0.00000  Uiso   1.00
C294   C     0.59143   0.91254   0.58858   0.00000  Uiso   1.00
C295   C     0.57034   0.00450   0.56012   0.00000  Uiso   1.00
C296   C     0.52440   0.06150   0.58559   0.00000  Uiso   1.00
C297   C     0.68656   0.83728   0.61640   0.00000  Uiso   1.00
C298   C     0.74545   0.86599   0.61133   0.00000  Uiso   1.00
C299   C     0.77959   0.85965   0.66023   0.00000  Uiso   1.00
H300   H     0.57863   0.74963   0.70480   0.00000  Uiso   1.00
H301   H     0.54799   0.55924   0.66488   0.00000  Uiso   1.00
H302   H     0.50306   0.90938   0.70644   0.00000  Uiso   1.00
H303   H     0.67814   0.77088   0.75764   0.00000  Uiso   1.00
H304   H     0.52456   0.36308   0.59766   0.00000  Uiso   1.00
H305   H     0.42983   0.10141   0.68531   0.00000  Uiso   1.00
H306   H     0.79902   0.80936   0.79327   0.00000  Uiso   1.00
H307   H     0.66000   0.86461   0.52791   0.00000  Uiso   1.00
H308   H     0.63382   0.68052   0.47828   0.00000  Uiso   1.00
H309   H     0.58888   0.03067   0.51984   0.00000  Uiso   1.00
H310   H     0.76396   0.89217   0.57104   0.00000  Uiso   1.00
H311   H     0.59422   0.46152   0.44621   0.00000  Uiso   1.00
H312   H     0.49948   0.19985   0.53386   0.00000  Uiso   1.00
H313   H     0.86867   0.90780   0.64182   0.00000  Uiso   1.00
O314   O     0.54068   0.28914   0.49247   0.00000  Uiso   1.00
O315   O     0.41641   0.25780   0.60747   0.00000  Uiso   1.00
O316   O     0.90077   0.87464   0.74912   0.00000  Uiso   1.00
N317   N     0.54456   0.41151   0.56883   0.00000  Uiso   1.00
N318   N     0.45598   0.10179   0.65077   0.00000  Uiso   1.00
N319   N     0.80114   0.82877   0.75171   0.00000  Uiso   1.00
N320   N     0.58204   0.46447   0.48733   0.00000  Uiso   1.00
N321   N     0.49346   0.15475   0.56927   0.00000  Uiso   1.00
N322   N     0.83862   0.88174   0.67022   0.00000  Uiso   1.00
C323   C     0.90272   0.22403   0.66427   0.00000  Uiso   1.00
C324   C     0.90808   0.31154   0.61806   0.00000  Uiso   1.00
C325   C     0.93348   0.41461   0.62459   0.00000  Uiso   1.00
C326   C     0.93409   0.48274   0.57717   0.00000  Uiso   1.00
C327   C     0.94608   0.62375   0.51331   0.00000  Uiso   1.00
C328   C     0.93251   0.12130   0.64063   0.00000  Uiso   1.00
C329   C     0.97843   0.06442   0.66616   0.00000  Uiso   1.00
C330   C     0.99959   0.97240   0.63774   0.00000  Uiso   1.00
C331   C     0.04946   0.81800   0.60896   0.00000  Uiso   1.00
C332   C     0.83738   0.19656   0.66845   0.00000  Uiso   1.00
C333   C     0.80332   0.20293   0.71737   0.00000  Uiso   1.00
C334   C     0.74439   0.17425   0.71238   0.00000  Uiso   1.00
C335   C     0.64657   0.13671   0.72679   0.00000  Uiso   1.00
C336   C     0.85864   0.16173   0.56844   0.00000  Uiso   1.00
C337   C     0.88414   0.27770   0.56600   0.00000  Uiso   1.00
C338   C     0.88471   0.34569   0.51856   0.00000  Uiso   1.00
C339   C     0.91010   0.44885   0.52502   0.00000  Uiso   1.00
C340   C     0.90857   0.08746   0.58858   0.00000  Uiso   1.00
C341   C     0.92966   0.99550   0.56012   0.00000  Uiso   1.00
C342   C     0.97560   0.93850   0.58559   0.00000  Uiso   1.00
C343   C     0.81344   0.16272   0.61640   0.00000  Uiso   1.00
C344   C     0.75455   0.13401   0.61133   0.00000  Uiso   1.00
C345   C     0.72041   0.14035   0.66023   0.00000  Uiso   1.00
H346   H     0.92137   0.25037   0.70480   0.00000  Uiso   1.00
H347   H     0.95201   0.44076   0.66488   0.00000  Uiso   1.00
H348   H     0.99694   0.09062   0.70644   0.00000  Uiso   1.00
H349   H     0.82186   0.22912   0.75764   0.00000  Uiso   1.00
H350   H     0.97544   0.63692   0.59766   0.00000  Uiso   1.00
H351   H     0.07017   0.89859   0.68531   0.00000  Uiso   1.00
H352   H     0.70098   0.19064   0.79327   0.00000  Uiso   1.00
H353   H     0.84000   0.13539   0.52791   0.00000  Uiso   1.00
H354   H     0.86618   0.31948   0.47828   0.00000  Uiso   1.00
H355   H     0.91112   0.96933   0.51984   0.00000  Uiso   1.00
H356   H     0.73604   0.10783   0.57104   0.00000  Uiso   1.00
H357   H     0.90578   0.53848   0.44621   0.00000  Uiso   1.00
H358   H     0.00052   0.80015   0.53386   0.00000  Uiso   1.00
H359   H     0.63133   0.09220   0.64182   0.00000  Uiso   1.00
O360   O     0.95932   0.71086   0.49247   0.00000  Uiso   1.00
O361   O     0.08359   0.74220   0.60747   0.00000  Uiso   1.00
O362   O     0.59923   0.12536   0.74912   0.00000  Uiso   1.00
N363   N     0.95544   0.58849   0.56883   0.00000  Uiso   1.00
N364   N     0.04402   0.89821   0.65077   0.00000  Uiso   1.00
N365   N     0.69886   0.17123   0.75171   0.00000  Uiso   1.00
N366   N     0.91796   0.53553   0.48733   0.00000  Uiso   1.00
N367   N     0.00654   0.84525   0.56927   0.00000  Uiso   1.00
N368   N     0.66138   0.11826   0.67022   0.00000  Uiso   1.00
