data_job_01977
_audit_creation_date              2018-12-19
_audit_creation_method            'Materials Studio'
_symmetry_space_group_name_H-M    'P1'
_symmetry_Int_Tables_number       1
_symmetry_cell_setting            triclinic
loop_
_symmetry_equiv_pos_as_xyz
  x,y,z
_cell_length_a                    17.7041
_cell_length_b                    21.1512
_cell_length_c                    23.7087
_cell_angle_alpha                 90.0000
_cell_angle_beta                  90.0000
_cell_angle_gamma                 90.0000
loop_
_atom_site_label
_atom_site_type_symbol
_atom_site_fract_x
_atom_site_fract_y
_atom_site_fract_z
_atom_site_U_iso_or_equiv
_atom_site_adp_type
_atom_site_occupancy
C1     C     0.71337   0.92778   0.14570   0.00000  Uiso   1.00
C2     C     0.69856   0.90611   0.08535   0.00000  Uiso   1.00
C3     C     0.75258   0.88383   0.04789   0.00000  Uiso   1.00
C4     C     0.72765   0.86636   0.99460   0.00000  Uiso   1.00
C5     C     0.71625   0.83204   0.90321   0.00000  Uiso   1.00
C6     C     0.68341   0.99524   0.14946   0.00000  Uiso   1.00
C7     C     0.72470   0.04789   0.16590   0.00000  Uiso   1.00
C8     C     0.68701   0.10545   0.16657   0.00000  Uiso   1.00
C9     C     0.65208   0.20949   0.17474   0.00000  Uiso   1.00
C10    C     0.66197   0.88789   0.18307   0.00000  Uiso   1.00
C11    C     0.68522   0.85028   0.22779   0.00000  Uiso   1.00
C12    C     0.62948   0.81747   0.25678   0.00000  Uiso   1.00
C13    C     0.56127   0.75483   0.31715   0.00000  Uiso   1.00
C14    C     0.57303   0.93639   0.11768   0.00000  Uiso   1.00
C15    C     0.62233   0.91079   0.07014   0.00000  Uiso   1.00
C16    C     0.59731   0.89336   0.01689   0.00000  Uiso   1.00
C17    C     0.65129   0.87105   0.97935   0.00000  Uiso   1.00
C18    C     0.60719   0.99992   0.13424   0.00000  Uiso   1.00
C19    C     0.56943   0.05742   0.13489   0.00000  Uiso   1.00
C20    C     0.61064   0.11014   0.15133   0.00000  Uiso   1.00
C21    C     0.58574   0.89256   0.16785   0.00000  Uiso   1.00
C22    C     0.52996   0.85981   0.19678   0.00000  Uiso   1.00
C23    C     0.55312   0.82216   0.24153   0.00000  Uiso   1.00
H24    H     0.77271   0.92414   0.15754   0.00000  Uiso   1.00
H25    H     0.81157   0.88022   0.05968   0.00000  Uiso   1.00
H26    H     0.78368   0.04425   0.17768   0.00000  Uiso   1.00
H27    H     0.74422   0.84667   0.23955   0.00000  Uiso   1.00
H28    H     0.82103   0.83361   0.94446   0.00000  Uiso   1.00
H29    H     0.76223   0.17947   0.19328   0.00000  Uiso   1.00
H30    H     0.67901   0.76285   0.32377   0.00000  Uiso   1.00
H31    H     0.51368   0.94003   0.10583   0.00000  Uiso   1.00
H32    H     0.53832   0.89698   0.00512   0.00000  Uiso   1.00
H33    H     0.51044   0.06102   0.12312   0.00000  Uiso   1.00
H34    H     0.47097   0.86344   0.18500   0.00000  Uiso   1.00
H35    H     0.59925   0.84722   0.90018   0.00000  Uiso   1.00
H36    H     0.54045   0.19309   0.14900   0.00000  Uiso   1.00
H37    H     0.45723   0.77646   0.27948   0.00000  Uiso   1.00
O38    O     0.73102   0.81183   0.85700   0.00000  Uiso   1.00
O39    O     0.65388   0.26559   0.18345   0.00000  Uiso   1.00
O40    O     0.54470   0.71898   0.35464   0.00000  Uiso   1.00
N41    N     0.76545   0.84271   0.94786   0.00000  Uiso   1.00
N42    N     0.71048   0.16607   0.18048   0.00000  Uiso   1.00
N43    N     0.63267   0.77658   0.30249   0.00000  Uiso   1.00
N44    N     0.64611   0.85003   0.92403   0.00000  Uiso   1.00
N45    N     0.59114   0.17340   0.15666   0.00000  Uiso   1.00
N46    N     0.51334   0.78390   0.27866   0.00000  Uiso   1.00
C47    C     0.78663   0.57222   0.14570   0.00000  Uiso   1.00
C48    C     0.80144   0.59389   0.08535   0.00000  Uiso   1.00
C49    C     0.74742   0.61617   0.04789   0.00000  Uiso   1.00
C50    C     0.77235   0.63364   0.99460   0.00000  Uiso   1.00
C51    C     0.78375   0.66796   0.90321   0.00000  Uiso   1.00
C52    C     0.81659   0.50476   0.14946   0.00000  Uiso   1.00
C53    C     0.77530   0.45211   0.16590   0.00000  Uiso   1.00
C54    C     0.81299   0.39455   0.16657   0.00000  Uiso   1.00
C55    C     0.84792   0.29051   0.17474   0.00000  Uiso   1.00
C56    C     0.83803   0.61211   0.18307   0.00000  Uiso   1.00
C57    C     0.81478   0.64972   0.22779   0.00000  Uiso   1.00
C58    C     0.87052   0.68253   0.25678   0.00000  Uiso   1.00
C59    C     0.93873   0.74517   0.31715   0.00000  Uiso   1.00
C60    C     0.92697   0.56361   0.11768   0.00000  Uiso   1.00
C61    C     0.87767   0.58921   0.07014   0.00000  Uiso   1.00
C62    C     0.90269   0.60664   0.01689   0.00000  Uiso   1.00
C63    C     0.84871   0.62895   0.97935   0.00000  Uiso   1.00
C64    C     0.89281   0.50008   0.13424   0.00000  Uiso   1.00
C65    C     0.93057   0.44258   0.13489   0.00000  Uiso   1.00
C66    C     0.88936   0.38986   0.15133   0.00000  Uiso   1.00
C67    C     0.91426   0.60744   0.16785   0.00000  Uiso   1.00
C68    C     0.97004   0.64019   0.19678   0.00000  Uiso   1.00
C69    C     0.94688   0.67784   0.24153   0.00000  Uiso   1.00
H70    H     0.72729   0.57586   0.15754   0.00000  Uiso   1.00
H71    H     0.68843   0.61978   0.05968   0.00000  Uiso   1.00
H72    H     0.71632   0.45575   0.17768   0.00000  Uiso   1.00
H73    H     0.75578   0.65333   0.23955   0.00000  Uiso   1.00
H74    H     0.67897   0.66639   0.94446   0.00000  Uiso   1.00
H75    H     0.73777   0.32053   0.19328   0.00000  Uiso   1.00
H76    H     0.82099   0.73715   0.32377   0.00000  Uiso   1.00
H77    H     0.98632   0.55997   0.10583   0.00000  Uiso   1.00
H78    H     0.96168   0.60302   0.00512   0.00000  Uiso   1.00
H79    H     0.98956   0.43898   0.12312   0.00000  Uiso   1.00
H80    H     0.02903   0.63656   0.18500   0.00000  Uiso   1.00
H81    H     0.90075   0.65278   0.90018   0.00000  Uiso   1.00
H82    H     0.95955   0.30691   0.14900   0.00000  Uiso   1.00
H83    H     0.04277   0.72354   0.27948   0.00000  Uiso   1.00
O84    O     0.76898   0.68817   0.85700   0.00000  Uiso   1.00
O85    O     0.84612   0.23441   0.18345   0.00000  Uiso   1.00
O86    O     0.95530   0.78102   0.35464   0.00000  Uiso   1.00
N87    N     0.73455   0.65729   0.94786   0.00000  Uiso   1.00
N88    N     0.78952   0.33393   0.18048   0.00000  Uiso   1.00
N89    N     0.86733   0.72342   0.30249   0.00000  Uiso   1.00
N90    N     0.85389   0.64997   0.92403   0.00000  Uiso   1.00
N91    N     0.90886   0.32660   0.15666   0.00000  Uiso   1.00
N92    N     0.98666   0.71610   0.27866   0.00000  Uiso   1.00
C93    C     0.28663   0.42778   0.35430   0.00000  Uiso   1.00
C94    C     0.30144   0.40611   0.41465   0.00000  Uiso   1.00
C95    C     0.24742   0.38383   0.45211   0.00000  Uiso   1.00
C96    C     0.27235   0.36636   0.50540   0.00000  Uiso   1.00
C97    C     0.28375   0.33204   0.59679   0.00000  Uiso   1.00
C98    C     0.31659   0.49524   0.35054   0.00000  Uiso   1.00
C99    C     0.27530   0.54789   0.33410   0.00000  Uiso   1.00
C100   C     0.31299   0.60545   0.33343   0.00000  Uiso   1.00
C101   C     0.34792   0.70949   0.32526   0.00000  Uiso   1.00
C102   C     0.33803   0.38789   0.31693   0.00000  Uiso   1.00
C103   C     0.31478   0.35028   0.27221   0.00000  Uiso   1.00
C104   C     0.37052   0.31747   0.24322   0.00000  Uiso   1.00
C105   C     0.43873   0.25483   0.18285   0.00000  Uiso   1.00
C106   C     0.42697   0.43639   0.38232   0.00000  Uiso   1.00
C107   C     0.37767   0.41079   0.42986   0.00000  Uiso   1.00
C108   C     0.40269   0.39336   0.48311   0.00000  Uiso   1.00
C109   C     0.34871   0.37105   0.52065   0.00000  Uiso   1.00
C110   C     0.39281   0.49992   0.36576   0.00000  Uiso   1.00
C111   C     0.43057   0.55742   0.36511   0.00000  Uiso   1.00
C112   C     0.38936   0.61014   0.34867   0.00000  Uiso   1.00
C113   C     0.41426   0.39256   0.33215   0.00000  Uiso   1.00
C114   C     0.47004   0.35981   0.30322   0.00000  Uiso   1.00
C115   C     0.44688   0.32216   0.25847   0.00000  Uiso   1.00
H116   H     0.22729   0.42414   0.34246   0.00000  Uiso   1.00
H117   H     0.18843   0.38022   0.44032   0.00000  Uiso   1.00
H118   H     0.21632   0.54425   0.32232   0.00000  Uiso   1.00
H119   H     0.25578   0.34667   0.26045   0.00000  Uiso   1.00
H120   H     0.17897   0.33361   0.55554   0.00000  Uiso   1.00
H121   H     0.23777   0.67947   0.30672   0.00000  Uiso   1.00
H122   H     0.32099   0.26285   0.17623   0.00000  Uiso   1.00
H123   H     0.48632   0.44003   0.39417   0.00000  Uiso   1.00
H124   H     0.46168   0.39698   0.49488   0.00000  Uiso   1.00
H125   H     0.48956   0.56102   0.37688   0.00000  Uiso   1.00
H126   H     0.52903   0.36344   0.31500   0.00000  Uiso   1.00
H127   H     0.40075   0.34722   0.59982   0.00000  Uiso   1.00
H128   H     0.45955   0.69309   0.35100   0.00000  Uiso   1.00
H129   H     0.54277   0.27646   0.22052   0.00000  Uiso   1.00
O130   O     0.26898   0.31183   0.64300   0.00000  Uiso   1.00
O131   O     0.34612   0.76559   0.31655   0.00000  Uiso   1.00
O132   O     0.45530   0.21898   0.14536   0.00000  Uiso   1.00
N133   N     0.23455   0.34271   0.55214   0.00000  Uiso   1.00
N134   N     0.28952   0.66607   0.31952   0.00000  Uiso   1.00
N135   N     0.36733   0.27658   0.19751   0.00000  Uiso   1.00
N136   N     0.35389   0.35003   0.57597   0.00000  Uiso   1.00
N137   N     0.40886   0.67340   0.34334   0.00000  Uiso   1.00
N138   N     0.48666   0.28390   0.22134   0.00000  Uiso   1.00
C139   C     0.21337   0.07222   0.35430   0.00000  Uiso   1.00
C140   C     0.19856   0.09389   0.41465   0.00000  Uiso   1.00
C141   C     0.25258   0.11617   0.45211   0.00000  Uiso   1.00
C142   C     0.22765   0.13364   0.50540   0.00000  Uiso   1.00
C143   C     0.21625   0.16796   0.59679   0.00000  Uiso   1.00
C144   C     0.18341   0.00476   0.35054   0.00000  Uiso   1.00
C145   C     0.22470   0.95211   0.33410   0.00000  Uiso   1.00
C146   C     0.18701   0.89455   0.33343   0.00000  Uiso   1.00
C147   C     0.15208   0.79051   0.32526   0.00000  Uiso   1.00
C148   C     0.16197   0.11211   0.31693   0.00000  Uiso   1.00
C149   C     0.18522   0.14972   0.27221   0.00000  Uiso   1.00
C150   C     0.12948   0.18253   0.24322   0.00000  Uiso   1.00
C151   C     0.06127   0.24517   0.18285   0.00000  Uiso   1.00
C152   C     0.07303   0.06361   0.38232   0.00000  Uiso   1.00
C153   C     0.12233   0.08921   0.42986   0.00000  Uiso   1.00
C154   C     0.09731   0.10664   0.48311   0.00000  Uiso   1.00
C155   C     0.15129   0.12895   0.52065   0.00000  Uiso   1.00
C156   C     0.10719   0.00008   0.36576   0.00000  Uiso   1.00
C157   C     0.06943   0.94258   0.36511   0.00000  Uiso   1.00
C158   C     0.11064   0.88986   0.34867   0.00000  Uiso   1.00
C159   C     0.08574   0.10744   0.33215   0.00000  Uiso   1.00
C160   C     0.02996   0.14019   0.30322   0.00000  Uiso   1.00
C161   C     0.05312   0.17784   0.25847   0.00000  Uiso   1.00
H162   H     0.27271   0.07586   0.34246   0.00000  Uiso   1.00
H163   H     0.31157   0.11978   0.44032   0.00000  Uiso   1.00
H164   H     0.28368   0.95575   0.32232   0.00000  Uiso   1.00
H165   H     0.24422   0.15333   0.26045   0.00000  Uiso   1.00
H166   H     0.32103   0.16639   0.55554   0.00000  Uiso   1.00
H167   H     0.26223   0.82053   0.30672   0.00000  Uiso   1.00
H168   H     0.17901   0.23715   0.17623   0.00000  Uiso   1.00
H169   H     0.01368   0.05997   0.39417   0.00000  Uiso   1.00
H170   H     0.03832   0.10302   0.49488   0.00000  Uiso   1.00
H171   H     0.01044   0.93898   0.37688   0.00000  Uiso   1.00
H172   H     0.97097   0.13656   0.31500   0.00000  Uiso   1.00
H173   H     0.09925   0.15278   0.59982   0.00000  Uiso   1.00
H174   H     0.04045   0.80691   0.35100   0.00000  Uiso   1.00
H175   H     0.95723   0.22354   0.22052   0.00000  Uiso   1.00
O176   O     0.23102   0.18817   0.64300   0.00000  Uiso   1.00
O177   O     0.15388   0.73441   0.31655   0.00000  Uiso   1.00
O178   O     0.04470   0.28102   0.14536   0.00000  Uiso   1.00
N179   N     0.26545   0.15729   0.55214   0.00000  Uiso   1.00
N180   N     0.21048   0.83393   0.31952   0.00000  Uiso   1.00
N181   N     0.13267   0.22342   0.19751   0.00000  Uiso   1.00
N182   N     0.14611   0.14997   0.57597   0.00000  Uiso   1.00
N183   N     0.09114   0.82660   0.34334   0.00000  Uiso   1.00
N184   N     0.01334   0.21610   0.22134   0.00000  Uiso   1.00
C185   C     0.28663   0.07222   0.85430   0.00000  Uiso   1.00
C186   C     0.30144   0.09389   0.91465   0.00000  Uiso   1.00
C187   C     0.24742   0.11617   0.95211   0.00000  Uiso   1.00
C188   C     0.27235   0.13364   0.00540   0.00000  Uiso   1.00
C189   C     0.28375   0.16796   0.09679   0.00000  Uiso   1.00
C190   C     0.31659   0.00476   0.85054   0.00000  Uiso   1.00
C191   C     0.27530   0.95211   0.83410   0.00000  Uiso   1.00
C192   C     0.31299   0.89455   0.83343   0.00000  Uiso   1.00
C193   C     0.34792   0.79051   0.82526   0.00000  Uiso   1.00
C194   C     0.33803   0.11211   0.81693   0.00000  Uiso   1.00
C195   C     0.31478   0.14972   0.77221   0.00000  Uiso   1.00
C196   C     0.37052   0.18253   0.74322   0.00000  Uiso   1.00
C197   C     0.43873   0.24517   0.68285   0.00000  Uiso   1.00
C198   C     0.42697   0.06361   0.88232   0.00000  Uiso   1.00
C199   C     0.37767   0.08921   0.92986   0.00000  Uiso   1.00
C200   C     0.40269   0.10664   0.98311   0.00000  Uiso   1.00
C201   C     0.34871   0.12895   0.02065   0.00000  Uiso   1.00
C202   C     0.39281   0.00008   0.86576   0.00000  Uiso   1.00
C203   C     0.43057   0.94258   0.86511   0.00000  Uiso   1.00
C204   C     0.38936   0.88986   0.84867   0.00000  Uiso   1.00
C205   C     0.41426   0.10744   0.83215   0.00000  Uiso   1.00
C206   C     0.47004   0.14019   0.80322   0.00000  Uiso   1.00
C207   C     0.44688   0.17784   0.75847   0.00000  Uiso   1.00
H208   H     0.22729   0.07586   0.84246   0.00000  Uiso   1.00
H209   H     0.18843   0.11978   0.94032   0.00000  Uiso   1.00
H210   H     0.21632   0.95575   0.82232   0.00000  Uiso   1.00
H211   H     0.25578   0.15333   0.76045   0.00000  Uiso   1.00
H212   H     0.17897   0.16639   0.05554   0.00000  Uiso   1.00
H213   H     0.23777   0.82053   0.80672   0.00000  Uiso   1.00
H214   H     0.32099   0.23715   0.67623   0.00000  Uiso   1.00
H215   H     0.48632   0.05997   0.89417   0.00000  Uiso   1.00
H216   H     0.46168   0.10302   0.99488   0.00000  Uiso   1.00
H217   H     0.48956   0.93898   0.87688   0.00000  Uiso   1.00
H218   H     0.52903   0.13656   0.81500   0.00000  Uiso   1.00
H219   H     0.40075   0.15278   0.09982   0.00000  Uiso   1.00
H220   H     0.45955   0.80691   0.85100   0.00000  Uiso   1.00
H221   H     0.54277   0.22354   0.72052   0.00000  Uiso   1.00
O222   O     0.26898   0.18817   0.14300   0.00000  Uiso   1.00
O223   O     0.34612   0.73441   0.81655   0.00000  Uiso   1.00
O224   O     0.45530   0.28102   0.64536   0.00000  Uiso   1.00
N225   N     0.23455   0.15729   0.05214   0.00000  Uiso   1.00
N226   N     0.28952   0.83393   0.81952   0.00000  Uiso   1.00
N227   N     0.36733   0.22342   0.69751   0.00000  Uiso   1.00
N228   N     0.35389   0.14997   0.07597   0.00000  Uiso   1.00
N229   N     0.40886   0.82660   0.84334   0.00000  Uiso   1.00
N230   N     0.48666   0.21610   0.72134   0.00000  Uiso   1.00
C231   C     0.21337   0.42778   0.85430   0.00000  Uiso   1.00
C232   C     0.19856   0.40611   0.91465   0.00000  Uiso   1.00
C233   C     0.25258   0.38383   0.95211   0.00000  Uiso   1.00
C234   C     0.22765   0.36636   0.00540   0.00000  Uiso   1.00
C235   C     0.21625   0.33204   0.09679   0.00000  Uiso   1.00
C236   C     0.18341   0.49524   0.85054   0.00000  Uiso   1.00
C237   C     0.22470   0.54789   0.83410   0.00000  Uiso   1.00
C238   C     0.18701   0.60545   0.83343   0.00000  Uiso   1.00
C239   C     0.15208   0.70949   0.82526   0.00000  Uiso   1.00
C240   C     0.16197   0.38789   0.81693   0.00000  Uiso   1.00
C241   C     0.18522   0.35028   0.77221   0.00000  Uiso   1.00
C242   C     0.12948   0.31747   0.74322   0.00000  Uiso   1.00
C243   C     0.06127   0.25483   0.68285   0.00000  Uiso   1.00
C244   C     0.07303   0.43639   0.88232   0.00000  Uiso   1.00
C245   C     0.12233   0.41079   0.92986   0.00000  Uiso   1.00
C246   C     0.09731   0.39336   0.98311   0.00000  Uiso   1.00
C247   C     0.15129   0.37105   0.02065   0.00000  Uiso   1.00
C248   C     0.10719   0.49992   0.86576   0.00000  Uiso   1.00
C249   C     0.06943   0.55742   0.86511   0.00000  Uiso   1.00
C250   C     0.11064   0.61014   0.84867   0.00000  Uiso   1.00
C251   C     0.08574   0.39256   0.83215   0.00000  Uiso   1.00
C252   C     0.02996   0.35981   0.80322   0.00000  Uiso   1.00
C253   C     0.05312   0.32216   0.75847   0.00000  Uiso   1.00
H254   H     0.27271   0.42414   0.84246   0.00000  Uiso   1.00
H255   H     0.31157   0.38022   0.94032   0.00000  Uiso   1.00
H256   H     0.28368   0.54425   0.82232   0.00000  Uiso   1.00
H257   H     0.24422   0.34667   0.76045   0.00000  Uiso   1.00
H258   H     0.32103   0.33361   0.05554   0.00000  Uiso   1.00
H259   H     0.26223   0.67947   0.80672   0.00000  Uiso   1.00
H260   H     0.17901   0.26285   0.67623   0.00000  Uiso   1.00
H261   H     0.01368   0.44003   0.89417   0.00000  Uiso   1.00
H262   H     0.03832   0.39698   0.99488   0.00000  Uiso   1.00
H263   H     0.01044   0.56102   0.87688   0.00000  Uiso   1.00
H264   H     0.97097   0.36344   0.81500   0.00000  Uiso   1.00
H265   H     0.09925   0.34722   0.09982   0.00000  Uiso   1.00
H266   H     0.04045   0.69309   0.85100   0.00000  Uiso   1.00
H267   H     0.95723   0.27646   0.72052   0.00000  Uiso   1.00
O268   O     0.23102   0.31183   0.14300   0.00000  Uiso   1.00
O269   O     0.15388   0.76559   0.81655   0.00000  Uiso   1.00
O270   O     0.04470   0.21898   0.64536   0.00000  Uiso   1.00
N271   N     0.26545   0.34271   0.05214   0.00000  Uiso   1.00
N272   N     0.21048   0.66607   0.81952   0.00000  Uiso   1.00
N273   N     0.13267   0.27658   0.69751   0.00000  Uiso   1.00
N274   N     0.14611   0.35003   0.07597   0.00000  Uiso   1.00
N275   N     0.09114   0.67340   0.84334   0.00000  Uiso   1.00
N276   N     0.01334   0.28390   0.72134   0.00000  Uiso   1.00
C277   C     0.71337   0.57222   0.64570   0.00000  Uiso   1.00
C278   C     0.69856   0.59389   0.58535   0.00000  Uiso   1.00
C279   C     0.75258   0.61617   0.54789   0.00000  Uiso   1.00
C280   C     0.72765   0.63364   0.49460   0.00000  Uiso   1.00
C281   C     0.71625   0.66796   0.40321   0.00000  Uiso   1.00
C282   C     0.68341   0.50476   0.64946   0.00000  Uiso   1.00
C283   C     0.72470   0.45211   0.66590   0.00000  Uiso   1.00
C284   C     0.68701   0.39455   0.66657   0.00000  Uiso   1.00
C285   C     0.65208   0.29051   0.67474   0.00000  Uiso   1.00
C286   C     0.66197   0.61211   0.68307   0.00000  Uiso   1.00
C287   C     0.68522   0.64972   0.72779   0.00000  Uiso   1.00
C288   C     0.62948   0.68253   0.75678   0.00000  Uiso   1.00
C289   C     0.56127   0.74517   0.81715   0.00000  Uiso   1.00
C290   C     0.57303   0.56361   0.61768   0.00000  Uiso   1.00
C291   C     0.62233   0.58921   0.57014   0.00000  Uiso   1.00
C292   C     0.59731   0.60664   0.51689   0.00000  Uiso   1.00
C293   C     0.65129   0.62895   0.47935   0.00000  Uiso   1.00
C294   C     0.60719   0.50008   0.63424   0.00000  Uiso   1.00
C295   C     0.56943   0.44258   0.63489   0.00000  Uiso   1.00
C296   C     0.61064   0.38986   0.65133   0.00000  Uiso   1.00
C297   C     0.58574   0.60744   0.66785   0.00000  Uiso   1.00
C298   C     0.52996   0.64019   0.69678   0.00000  Uiso   1.00
C299   C     0.55312   0.67784   0.74153   0.00000  Uiso   1.00
H300   H     0.77271   0.57586   0.65754   0.00000  Uiso   1.00
H301   H     0.81157   0.61978   0.55968   0.00000  Uiso   1.00
H302   H     0.78368   0.45575   0.67768   0.00000  Uiso   1.00
H303   H     0.74422   0.65333   0.73955   0.00000  Uiso   1.00
H304   H     0.82103   0.66639   0.44446   0.00000  Uiso   1.00
H305   H     0.76223   0.32053   0.69328   0.00000  Uiso   1.00
H306   H     0.67901   0.73715   0.82377   0.00000  Uiso   1.00
H307   H     0.51368   0.55997   0.60583   0.00000  Uiso   1.00
H308   H     0.53832   0.60302   0.50512   0.00000  Uiso   1.00
H309   H     0.51044   0.43898   0.62312   0.00000  Uiso   1.00
H310   H     0.47097   0.63656   0.68500   0.00000  Uiso   1.00
H311   H     0.59925   0.65278   0.40018   0.00000  Uiso   1.00
H312   H     0.54045   0.30691   0.64900   0.00000  Uiso   1.00
H313   H     0.45723   0.72354   0.77948   0.00000  Uiso   1.00
O314   O     0.73102   0.68817   0.35700   0.00000  Uiso   1.00
O315   O     0.65388   0.23441   0.68345   0.00000  Uiso   1.00
O316   O     0.54470   0.78102   0.85464   0.00000  Uiso   1.00
N317   N     0.76545   0.65729   0.44786   0.00000  Uiso   1.00
N318   N     0.71048   0.33393   0.68048   0.00000  Uiso   1.00
N319   N     0.63267   0.72342   0.80249   0.00000  Uiso   1.00
N320   N     0.64611   0.64997   0.42403   0.00000  Uiso   1.00
N321   N     0.59114   0.32660   0.65666   0.00000  Uiso   1.00
N322   N     0.51334   0.71610   0.77866   0.00000  Uiso   1.00
C323   C     0.78663   0.92778   0.64570   0.00000  Uiso   1.00
C324   C     0.80144   0.90611   0.58535   0.00000  Uiso   1.00
C325   C     0.74742   0.88383   0.54789   0.00000  Uiso   1.00
C326   C     0.77235   0.86636   0.49460   0.00000  Uiso   1.00
C327   C     0.78375   0.83204   0.40321   0.00000  Uiso   1.00
C328   C     0.81659   0.99524   0.64946   0.00000  Uiso   1.00
C329   C     0.77530   0.04789   0.66590   0.00000  Uiso   1.00
C330   C     0.81299   0.10545   0.66657   0.00000  Uiso   1.00
C331   C     0.84792   0.20949   0.67474   0.00000  Uiso   1.00
C332   C     0.83803   0.88789   0.68307   0.00000  Uiso   1.00
C333   C     0.81478   0.85028   0.72779   0.00000  Uiso   1.00
C334   C     0.87052   0.81747   0.75678   0.00000  Uiso   1.00
C335   C     0.93873   0.75483   0.81715   0.00000  Uiso   1.00
C336   C     0.92697   0.93639   0.61768   0.00000  Uiso   1.00
C337   C     0.87767   0.91079   0.57014   0.00000  Uiso   1.00
C338   C     0.90269   0.89336   0.51689   0.00000  Uiso   1.00
C339   C     0.84871   0.87105   0.47935   0.00000  Uiso   1.00
C340   C     0.89281   0.99992   0.63424   0.00000  Uiso   1.00
C341   C     0.93057   0.05742   0.63489   0.00000  Uiso   1.00
C342   C     0.88936   0.11014   0.65133   0.00000  Uiso   1.00
C343   C     0.91426   0.89256   0.66785   0.00000  Uiso   1.00
C344   C     0.97004   0.85981   0.69678   0.00000  Uiso   1.00
C345   C     0.94688   0.82216   0.74153   0.00000  Uiso   1.00
H346   H     0.72729   0.92414   0.65754   0.00000  Uiso   1.00
H347   H     0.68843   0.88022   0.55968   0.00000  Uiso   1.00
H348   H     0.71632   0.04425   0.67768   0.00000  Uiso   1.00
H349   H     0.75578   0.84667   0.73955   0.00000  Uiso   1.00
H350   H     0.67897   0.83361   0.44446   0.00000  Uiso   1.00
H351   H     0.73777   0.17947   0.69328   0.00000  Uiso   1.00
H352   H     0.82099   0.76285   0.82377   0.00000  Uiso   1.00
H353   H     0.98632   0.94003   0.60583   0.00000  Uiso   1.00
H354   H     0.96168   0.89698   0.50512   0.00000  Uiso   1.00
H355   H     0.98956   0.06102   0.62312   0.00000  Uiso   1.00
H356   H     0.02903   0.86344   0.68500   0.00000  Uiso   1.00
H357   H     0.90075   0.84722   0.40018   0.00000  Uiso   1.00
H358   H     0.95955   0.19309   0.64900   0.00000  Uiso   1.00
H359   H     0.04277   0.77646   0.77948   0.00000  Uiso   1.00
O360   O     0.76898   0.81183   0.35700   0.00000  Uiso   1.00
O361   O     0.84612   0.26559   0.68345   0.00000  Uiso   1.00
O362   O     0.95530   0.71898   0.85464   0.00000  Uiso   1.00
N363   N     0.73455   0.84271   0.44786   0.00000  Uiso   1.00
N364   N     0.78952   0.16607   0.68048   0.00000  Uiso   1.00
N365   N     0.86733   0.77658   0.80249   0.00000  Uiso   1.00
N366   N     0.85389   0.85003   0.42403   0.00000  Uiso   1.00
N367   N     0.90886   0.17340   0.65666   0.00000  Uiso   1.00
N368   N     0.98666   0.78390   0.77866   0.00000  Uiso   1.00
