data_job_03653
_audit_creation_date              2018-12-19
_audit_creation_method            'Materials Studio'
_symmetry_space_group_name_H-M    'P1'
_symmetry_Int_Tables_number       1
_symmetry_cell_setting            triclinic
loop_
_symmetry_equiv_pos_as_xyz
  x,y,z
_cell_length_a                    19.8710
_cell_length_b                    19.8710
_cell_length_c                    14.9309
_cell_angle_alpha                 90.0000
_cell_angle_beta                  90.0000
_cell_angle_gamma                 90.0000
loop_
_atom_site_label
_atom_site_type_symbol
_atom_site_fract_x
_atom_site_fract_y
_atom_site_fract_z
_atom_site_U_iso_or_equiv
_atom_site_adp_type
_atom_site_occupancy
C1     C     0.17073   0.53026   0.35816   0.00000  Uiso   1.00
C2     C     0.23491   0.56527   0.32711   0.00000  Uiso   1.00
C3     C     0.26149   0.56293   0.24121   0.00000  Uiso   1.00
C4     C     0.32066   0.59835   0.22627   0.00000  Uiso   1.00
C5     C     0.41556   0.64713   0.16763   0.00000  Uiso   1.00
C6     C     0.19106   0.48610   0.43718   0.00000  Uiso   1.00
C7     C     0.18075   0.41720   0.44383   0.00000  Uiso   1.00
C8     C     0.20300   0.38597   0.52157   0.00000  Uiso   1.00
C9     C     0.22978   0.31185   0.63385   0.00000  Uiso   1.00
C10    C     0.12585   0.58536   0.39670   0.00000  Uiso   1.00
C11    C     0.06071   0.59992   0.36935   0.00000  Uiso   1.00
C12    C     0.02806   0.65226   0.41302   0.00000  Uiso   1.00
C13    C     0.95359   0.73227   0.46245   0.00000  Uiso   1.00
C14    C     0.22856   0.59731   0.48439   0.00000  Uiso   1.00
C15    C     0.26632   0.60168   0.39567   0.00000  Uiso   1.00
C16    C     0.32547   0.63711   0.38086   0.00000  Uiso   1.00
C17    C     0.35213   0.63483   0.29496   0.00000  Uiso   1.00
C18    C     0.22247   0.52251   0.50574   0.00000  Uiso   1.00
C19    C     0.24474   0.49138   0.58349   0.00000  Uiso   1.00
C20    C     0.23447   0.42245   0.59026   0.00000  Uiso   1.00
C21    C     0.15726   0.62178   0.46527   0.00000  Uiso   1.00
C22    C     0.12470   0.67410   0.50900   0.00000  Uiso   1.00
C23    C     0.05953   0.68874   0.48171   0.00000  Uiso   1.00
H24    H     0.14627   0.50191   0.30479   0.00000  Uiso   1.00
H25    H     0.23716   0.53474   0.18817   0.00000  Uiso   1.00
H26    H     0.15643   0.38903   0.39077   0.00000  Uiso   1.00
H27    H     0.03642   0.57173   0.31629   0.00000  Uiso   1.00
H28    H     0.35180   0.58718   0.08912   0.00000  Uiso   1.00
H29    H     0.18156   0.27995   0.51632   0.00000  Uiso   1.00
H30    H     0.92848   0.66521   0.35927   0.00000  Uiso   1.00
H31    H     0.25302   0.62566   0.53777   0.00000  Uiso   1.00
H32    H     0.34977   0.66529   0.43393   0.00000  Uiso   1.00
H33    H     0.26904   0.51957   0.63653   0.00000  Uiso   1.00
H34    H     0.14903   0.70227   0.56205   0.00000  Uiso   1.00
H35    H     0.44320   0.69313   0.28859   0.00000  Uiso   1.00
H36    H     0.27296   0.38590   0.71580   0.00000  Uiso   1.00
H37    H     0.01988   0.77116   0.55874   0.00000  Uiso   1.00
O38    O     0.45923   0.66397   0.11635   0.00000  Uiso   1.00
O39    O     0.23587   0.26090   0.67683   0.00000  Uiso   1.00
O40    O     0.90384   0.76635   0.47077   0.00000  Uiso   1.00
N41    N     0.36003   0.60669   0.15031   0.00000  Uiso   1.00
N42    N     0.20087   0.31944   0.54972   0.00000  Uiso   1.00
N43    N     0.96425   0.67961   0.40290   0.00000  Uiso   1.00
N44    N     0.40921   0.66370   0.25765   0.00000  Uiso   1.00
N45    N     0.25005   0.37646   0.65705   0.00000  Uiso   1.00
N46    N     0.01343   0.73663   0.51023   0.00000  Uiso   1.00
C47    C     0.67073   0.03026   0.85816   0.00000  Uiso   1.00
C48    C     0.73491   0.06527   0.82711   0.00000  Uiso   1.00
C49    C     0.76149   0.06293   0.74121   0.00000  Uiso   1.00
C50    C     0.82066   0.09835   0.72627   0.00000  Uiso   1.00
C51    C     0.91556   0.14713   0.66763   0.00000  Uiso   1.00
C52    C     0.69106   0.98610   0.93718   0.00000  Uiso   1.00
C53    C     0.68075   0.91720   0.94383   0.00000  Uiso   1.00
C54    C     0.70300   0.88597   0.02157   0.00000  Uiso   1.00
C55    C     0.72978   0.81185   0.13385   0.00000  Uiso   1.00
C56    C     0.62585   0.08536   0.89670   0.00000  Uiso   1.00
C57    C     0.56071   0.09992   0.86935   0.00000  Uiso   1.00
C58    C     0.52806   0.15226   0.91302   0.00000  Uiso   1.00
C59    C     0.45359   0.23227   0.96245   0.00000  Uiso   1.00
C60    C     0.72856   0.09731   0.98439   0.00000  Uiso   1.00
C61    C     0.76632   0.10168   0.89567   0.00000  Uiso   1.00
C62    C     0.82547   0.13711   0.88086   0.00000  Uiso   1.00
C63    C     0.85213   0.13483   0.79496   0.00000  Uiso   1.00
C64    C     0.72247   0.02251   0.00574   0.00000  Uiso   1.00
C65    C     0.74474   0.99138   0.08349   0.00000  Uiso   1.00
C66    C     0.73447   0.92245   0.09026   0.00000  Uiso   1.00
C67    C     0.65726   0.12178   0.96527   0.00000  Uiso   1.00
C68    C     0.62470   0.17410   0.00900   0.00000  Uiso   1.00
C69    C     0.55953   0.18874   0.98171   0.00000  Uiso   1.00
H70    H     0.64627   0.00191   0.80479   0.00000  Uiso   1.00
H71    H     0.73716   0.03474   0.68817   0.00000  Uiso   1.00
H72    H     0.65643   0.88903   0.89077   0.00000  Uiso   1.00
H73    H     0.53642   0.07173   0.81629   0.00000  Uiso   1.00
H74    H     0.85180   0.08718   0.58912   0.00000  Uiso   1.00
H75    H     0.68156   0.77995   0.01632   0.00000  Uiso   1.00
H76    H     0.42848   0.16521   0.85927   0.00000  Uiso   1.00
H77    H     0.75302   0.12566   0.03777   0.00000  Uiso   1.00
H78    H     0.84977   0.16529   0.93393   0.00000  Uiso   1.00
H79    H     0.76904   0.01957   0.13653   0.00000  Uiso   1.00
H80    H     0.64903   0.20227   0.06205   0.00000  Uiso   1.00
H81    H     0.94320   0.19313   0.78859   0.00000  Uiso   1.00
H82    H     0.77296   0.88590   0.21580   0.00000  Uiso   1.00
H83    H     0.51988   0.27116   0.05874   0.00000  Uiso   1.00
O84    O     0.95923   0.16397   0.61635   0.00000  Uiso   1.00
O85    O     0.73587   0.76090   0.17683   0.00000  Uiso   1.00
O86    O     0.40384   0.26635   0.97077   0.00000  Uiso   1.00
N87    N     0.86003   0.10669   0.65031   0.00000  Uiso   1.00
N88    N     0.70087   0.81944   0.04972   0.00000  Uiso   1.00
N89    N     0.46425   0.17961   0.90290   0.00000  Uiso   1.00
N90    N     0.90921   0.16370   0.75765   0.00000  Uiso   1.00
N91    N     0.75005   0.87646   0.15705   0.00000  Uiso   1.00
N92    N     0.51343   0.23663   0.01023   0.00000  Uiso   1.00
C93    C     0.82927   0.46974   0.35816   0.00000  Uiso   1.00
C94    C     0.76509   0.43473   0.32711   0.00000  Uiso   1.00
C95    C     0.73851   0.43707   0.24121   0.00000  Uiso   1.00
C96    C     0.67934   0.40165   0.22627   0.00000  Uiso   1.00
C97    C     0.58444   0.35287   0.16763   0.00000  Uiso   1.00
C98    C     0.80894   0.51390   0.43718   0.00000  Uiso   1.00
C99    C     0.81925   0.58280   0.44383   0.00000  Uiso   1.00
C100   C     0.79700   0.61403   0.52157   0.00000  Uiso   1.00
C101   C     0.77022   0.68815   0.63385   0.00000  Uiso   1.00
C102   C     0.87415   0.41464   0.39670   0.00000  Uiso   1.00
C103   C     0.93929   0.40008   0.36935   0.00000  Uiso   1.00
C104   C     0.97194   0.34774   0.41302   0.00000  Uiso   1.00
C105   C     0.04641   0.26773   0.46245   0.00000  Uiso   1.00
C106   C     0.77144   0.40269   0.48439   0.00000  Uiso   1.00
C107   C     0.73368   0.39832   0.39567   0.00000  Uiso   1.00
C108   C     0.67453   0.36289   0.38086   0.00000  Uiso   1.00
C109   C     0.64787   0.36517   0.29496   0.00000  Uiso   1.00
C110   C     0.77753   0.47749   0.50574   0.00000  Uiso   1.00
C111   C     0.75526   0.50862   0.58349   0.00000  Uiso   1.00
C112   C     0.76553   0.57755   0.59026   0.00000  Uiso   1.00
C113   C     0.84274   0.37822   0.46527   0.00000  Uiso   1.00
C114   C     0.87530   0.32590   0.50900   0.00000  Uiso   1.00
C115   C     0.94047   0.31126   0.48171   0.00000  Uiso   1.00
H116   H     0.85373   0.49809   0.30479   0.00000  Uiso   1.00
H117   H     0.76284   0.46526   0.18817   0.00000  Uiso   1.00
H118   H     0.84357   0.61097   0.39077   0.00000  Uiso   1.00
H119   H     0.96358   0.42827   0.31629   0.00000  Uiso   1.00
H120   H     0.64820   0.41282   0.08912   0.00000  Uiso   1.00
H121   H     0.81844   0.72005   0.51632   0.00000  Uiso   1.00
H122   H     0.07152   0.33479   0.35927   0.00000  Uiso   1.00
H123   H     0.74698   0.37434   0.53777   0.00000  Uiso   1.00
H124   H     0.65023   0.33471   0.43393   0.00000  Uiso   1.00
H125   H     0.73096   0.48043   0.63653   0.00000  Uiso   1.00
H126   H     0.85097   0.29773   0.56205   0.00000  Uiso   1.00
H127   H     0.55680   0.30687   0.28859   0.00000  Uiso   1.00
H128   H     0.72704   0.61410   0.71580   0.00000  Uiso   1.00
H129   H     0.98012   0.22884   0.55874   0.00000  Uiso   1.00
O130   O     0.54077   0.33603   0.11635   0.00000  Uiso   1.00
O131   O     0.76413   0.73910   0.67683   0.00000  Uiso   1.00
O132   O     0.09616   0.23365   0.47077   0.00000  Uiso   1.00
N133   N     0.63997   0.39331   0.15031   0.00000  Uiso   1.00
N134   N     0.79913   0.68056   0.54972   0.00000  Uiso   1.00
N135   N     0.03575   0.32039   0.40290   0.00000  Uiso   1.00
N136   N     0.59079   0.33630   0.25765   0.00000  Uiso   1.00
N137   N     0.74995   0.62354   0.65705   0.00000  Uiso   1.00
N138   N     0.98657   0.26337   0.51023   0.00000  Uiso   1.00
C139   C     0.32927   0.96974   0.85816   0.00000  Uiso   1.00
C140   C     0.26509   0.93473   0.82711   0.00000  Uiso   1.00
C141   C     0.23851   0.93707   0.74121   0.00000  Uiso   1.00
C142   C     0.17934   0.90165   0.72627   0.00000  Uiso   1.00
C143   C     0.08444   0.85287   0.66763   0.00000  Uiso   1.00
C144   C     0.30894   0.01390   0.93718   0.00000  Uiso   1.00
C145   C     0.31925   0.08280   0.94383   0.00000  Uiso   1.00
C146   C     0.29700   0.11403   0.02157   0.00000  Uiso   1.00
C147   C     0.27022   0.18815   0.13385   0.00000  Uiso   1.00
C148   C     0.37415   0.91464   0.89670   0.00000  Uiso   1.00
C149   C     0.43929   0.90008   0.86935   0.00000  Uiso   1.00
C150   C     0.47194   0.84774   0.91302   0.00000  Uiso   1.00
C151   C     0.54641   0.76773   0.96245   0.00000  Uiso   1.00
C152   C     0.27144   0.90269   0.98439   0.00000  Uiso   1.00
C153   C     0.23368   0.89832   0.89567   0.00000  Uiso   1.00
C154   C     0.17453   0.86289   0.88086   0.00000  Uiso   1.00
C155   C     0.14787   0.86517   0.79496   0.00000  Uiso   1.00
C156   C     0.27753   0.97749   0.00574   0.00000  Uiso   1.00
C157   C     0.25526   0.00862   0.08349   0.00000  Uiso   1.00
C158   C     0.26553   0.07755   0.09026   0.00000  Uiso   1.00
C159   C     0.34274   0.87822   0.96527   0.00000  Uiso   1.00
C160   C     0.37530   0.82590   0.00900   0.00000  Uiso   1.00
C161   C     0.44047   0.81126   0.98171   0.00000  Uiso   1.00
H162   H     0.35373   0.99809   0.80479   0.00000  Uiso   1.00
H163   H     0.26284   0.96526   0.68817   0.00000  Uiso   1.00
H164   H     0.34357   0.11097   0.89077   0.00000  Uiso   1.00
H165   H     0.46358   0.92827   0.81629   0.00000  Uiso   1.00
H166   H     0.14820   0.91282   0.58912   0.00000  Uiso   1.00
H167   H     0.31844   0.22005   0.01632   0.00000  Uiso   1.00
H168   H     0.57152   0.83479   0.85927   0.00000  Uiso   1.00
H169   H     0.24698   0.87434   0.03777   0.00000  Uiso   1.00
H170   H     0.15023   0.83471   0.93393   0.00000  Uiso   1.00
H171   H     0.23096   0.98043   0.13653   0.00000  Uiso   1.00
H172   H     0.35097   0.79773   0.06205   0.00000  Uiso   1.00
H173   H     0.05680   0.80687   0.78859   0.00000  Uiso   1.00
H174   H     0.22704   0.11410   0.21580   0.00000  Uiso   1.00
H175   H     0.48012   0.72884   0.05874   0.00000  Uiso   1.00
O176   O     0.04077   0.83603   0.61635   0.00000  Uiso   1.00
O177   O     0.26413   0.23910   0.17683   0.00000  Uiso   1.00
O178   O     0.59616   0.73365   0.97077   0.00000  Uiso   1.00
N179   N     0.13997   0.89331   0.65031   0.00000  Uiso   1.00
N180   N     0.29913   0.18056   0.04972   0.00000  Uiso   1.00
N181   N     0.53575   0.82039   0.90290   0.00000  Uiso   1.00
N182   N     0.09079   0.83630   0.75765   0.00000  Uiso   1.00
N183   N     0.24995   0.12354   0.15705   0.00000  Uiso   1.00
N184   N     0.48657   0.76337   0.01023   0.00000  Uiso   1.00
C185   C     0.46974   0.17073   0.35816   0.00000  Uiso   1.00
C186   C     0.43473   0.23491   0.32711   0.00000  Uiso   1.00
C187   C     0.43707   0.26149   0.24121   0.00000  Uiso   1.00
C188   C     0.40165   0.32066   0.22627   0.00000  Uiso   1.00
C189   C     0.35287   0.41556   0.16763   0.00000  Uiso   1.00
C190   C     0.51390   0.19106   0.43718   0.00000  Uiso   1.00
C191   C     0.58280   0.18075   0.44383   0.00000  Uiso   1.00
C192   C     0.61403   0.20300   0.52157   0.00000  Uiso   1.00
C193   C     0.68815   0.22978   0.63385   0.00000  Uiso   1.00
C194   C     0.41464   0.12585   0.39670   0.00000  Uiso   1.00
C195   C     0.40008   0.06071   0.36935   0.00000  Uiso   1.00
C196   C     0.34774   0.02806   0.41302   0.00000  Uiso   1.00
C197   C     0.26773   0.95359   0.46245   0.00000  Uiso   1.00
C198   C     0.40269   0.22856   0.48439   0.00000  Uiso   1.00
C199   C     0.39832   0.26632   0.39567   0.00000  Uiso   1.00
C200   C     0.36289   0.32547   0.38086   0.00000  Uiso   1.00
C201   C     0.36517   0.35213   0.29496   0.00000  Uiso   1.00
C202   C     0.47749   0.22247   0.50574   0.00000  Uiso   1.00
C203   C     0.50862   0.24474   0.58349   0.00000  Uiso   1.00
C204   C     0.57755   0.23447   0.59026   0.00000  Uiso   1.00
C205   C     0.37822   0.15726   0.46527   0.00000  Uiso   1.00
C206   C     0.32590   0.12470   0.50900   0.00000  Uiso   1.00
C207   C     0.31126   0.05953   0.48171   0.00000  Uiso   1.00
H208   H     0.49809   0.14627   0.30479   0.00000  Uiso   1.00
H209   H     0.46526   0.23716   0.18817   0.00000  Uiso   1.00
H210   H     0.61097   0.15643   0.39077   0.00000  Uiso   1.00
H211   H     0.42827   0.03642   0.31629   0.00000  Uiso   1.00
H212   H     0.41282   0.35180   0.08912   0.00000  Uiso   1.00
H213   H     0.72005   0.18156   0.51632   0.00000  Uiso   1.00
H214   H     0.33479   0.92848   0.35927   0.00000  Uiso   1.00
H215   H     0.37434   0.25302   0.53777   0.00000  Uiso   1.00
H216   H     0.33471   0.34977   0.43393   0.00000  Uiso   1.00
H217   H     0.48043   0.26904   0.63653   0.00000  Uiso   1.00
H218   H     0.29773   0.14903   0.56205   0.00000  Uiso   1.00
H219   H     0.30687   0.44320   0.28859   0.00000  Uiso   1.00
H220   H     0.61410   0.27296   0.71580   0.00000  Uiso   1.00
H221   H     0.22884   0.01988   0.55874   0.00000  Uiso   1.00
O222   O     0.33603   0.45923   0.11635   0.00000  Uiso   1.00
O223   O     0.73910   0.23587   0.67683   0.00000  Uiso   1.00
O224   O     0.23365   0.90384   0.47077   0.00000  Uiso   1.00
N225   N     0.39331   0.36003   0.15031   0.00000  Uiso   1.00
N226   N     0.68056   0.20087   0.54972   0.00000  Uiso   1.00
N227   N     0.32039   0.96425   0.40290   0.00000  Uiso   1.00
N228   N     0.33630   0.40921   0.25765   0.00000  Uiso   1.00
N229   N     0.62354   0.25005   0.65705   0.00000  Uiso   1.00
N230   N     0.26337   0.01343   0.51023   0.00000  Uiso   1.00
C231   C     0.96974   0.67073   0.85816   0.00000  Uiso   1.00
C232   C     0.93473   0.73491   0.82711   0.00000  Uiso   1.00
C233   C     0.93707   0.76149   0.74121   0.00000  Uiso   1.00
C234   C     0.90165   0.82066   0.72627   0.00000  Uiso   1.00
C235   C     0.85287   0.91556   0.66763   0.00000  Uiso   1.00
C236   C     0.01390   0.69106   0.93718   0.00000  Uiso   1.00
C237   C     0.08280   0.68075   0.94383   0.00000  Uiso   1.00
C238   C     0.11403   0.70300   0.02157   0.00000  Uiso   1.00
C239   C     0.18815   0.72978   0.13385   0.00000  Uiso   1.00
C240   C     0.91464   0.62585   0.89670   0.00000  Uiso   1.00
C241   C     0.90008   0.56071   0.86935   0.00000  Uiso   1.00
C242   C     0.84774   0.52806   0.91302   0.00000  Uiso   1.00
C243   C     0.76773   0.45359   0.96245   0.00000  Uiso   1.00
C244   C     0.90269   0.72856   0.98439   0.00000  Uiso   1.00
C245   C     0.89832   0.76632   0.89567   0.00000  Uiso   1.00
C246   C     0.86289   0.82547   0.88086   0.00000  Uiso   1.00
C247   C     0.86517   0.85213   0.79496   0.00000  Uiso   1.00
C248   C     0.97749   0.72247   0.00574   0.00000  Uiso   1.00
C249   C     0.00862   0.74474   0.08349   0.00000  Uiso   1.00
C250   C     0.07755   0.73447   0.09026   0.00000  Uiso   1.00
C251   C     0.87822   0.65726   0.96527   0.00000  Uiso   1.00
C252   C     0.82590   0.62470   0.00900   0.00000  Uiso   1.00
C253   C     0.81126   0.55953   0.98171   0.00000  Uiso   1.00
H254   H     0.99809   0.64627   0.80479   0.00000  Uiso   1.00
H255   H     0.96526   0.73716   0.68817   0.00000  Uiso   1.00
H256   H     0.11097   0.65643   0.89077   0.00000  Uiso   1.00
H257   H     0.92827   0.53642   0.81629   0.00000  Uiso   1.00
H258   H     0.91282   0.85180   0.58912   0.00000  Uiso   1.00
H259   H     0.22005   0.68156   0.01632   0.00000  Uiso   1.00
H260   H     0.83479   0.42848   0.85927   0.00000  Uiso   1.00
H261   H     0.87434   0.75302   0.03777   0.00000  Uiso   1.00
H262   H     0.83471   0.84977   0.93393   0.00000  Uiso   1.00
H263   H     0.98043   0.76904   0.13653   0.00000  Uiso   1.00
H264   H     0.79773   0.64903   0.06205   0.00000  Uiso   1.00
H265   H     0.80687   0.94320   0.78859   0.00000  Uiso   1.00
H266   H     0.11410   0.77296   0.21580   0.00000  Uiso   1.00
H267   H     0.72884   0.51988   0.05874   0.00000  Uiso   1.00
O268   O     0.83603   0.95923   0.61635   0.00000  Uiso   1.00
O269   O     0.23910   0.73587   0.17683   0.00000  Uiso   1.00
O270   O     0.73365   0.40384   0.97077   0.00000  Uiso   1.00
N271   N     0.89331   0.86003   0.65031   0.00000  Uiso   1.00
N272   N     0.18056   0.70087   0.04972   0.00000  Uiso   1.00
N273   N     0.82039   0.46425   0.90290   0.00000  Uiso   1.00
N274   N     0.83630   0.90921   0.75765   0.00000  Uiso   1.00
N275   N     0.12354   0.75005   0.15705   0.00000  Uiso   1.00
N276   N     0.76337   0.51343   0.01023   0.00000  Uiso   1.00
C277   C     0.53026   0.82927   0.35816   0.00000  Uiso   1.00
C278   C     0.56527   0.76509   0.32711   0.00000  Uiso   1.00
C279   C     0.56293   0.73851   0.24121   0.00000  Uiso   1.00
C280   C     0.59835   0.67934   0.22627   0.00000  Uiso   1.00
C281   C     0.64713   0.58444   0.16763   0.00000  Uiso   1.00
C282   C     0.48610   0.80894   0.43718   0.00000  Uiso   1.00
C283   C     0.41720   0.81925   0.44383   0.00000  Uiso   1.00
C284   C     0.38597   0.79700   0.52157   0.00000  Uiso   1.00
C285   C     0.31185   0.77022   0.63385   0.00000  Uiso   1.00
C286   C     0.58536   0.87415   0.39670   0.00000  Uiso   1.00
C287   C     0.59992   0.93929   0.36935   0.00000  Uiso   1.00
C288   C     0.65226   0.97194   0.41302   0.00000  Uiso   1.00
C289   C     0.73227   0.04641   0.46245   0.00000  Uiso   1.00
C290   C     0.59731   0.77144   0.48439   0.00000  Uiso   1.00
C291   C     0.60168   0.73368   0.39567   0.00000  Uiso   1.00
C292   C     0.63711   0.67453   0.38086   0.00000  Uiso   1.00
C293   C     0.63483   0.64787   0.29496   0.00000  Uiso   1.00
C294   C     0.52251   0.77753   0.50574   0.00000  Uiso   1.00
C295   C     0.49138   0.75526   0.58349   0.00000  Uiso   1.00
C296   C     0.42245   0.76553   0.59026   0.00000  Uiso   1.00
C297   C     0.62178   0.84274   0.46527   0.00000  Uiso   1.00
C298   C     0.67410   0.87530   0.50900   0.00000  Uiso   1.00
C299   C     0.68874   0.94047   0.48171   0.00000  Uiso   1.00
H300   H     0.50191   0.85373   0.30479   0.00000  Uiso   1.00
H301   H     0.53474   0.76284   0.18817   0.00000  Uiso   1.00
H302   H     0.38903   0.84357   0.39077   0.00000  Uiso   1.00
H303   H     0.57173   0.96358   0.31629   0.00000  Uiso   1.00
H304   H     0.58718   0.64820   0.08912   0.00000  Uiso   1.00
H305   H     0.27995   0.81844   0.51632   0.00000  Uiso   1.00
H306   H     0.66521   0.07152   0.35927   0.00000  Uiso   1.00
H307   H     0.62566   0.74698   0.53777   0.00000  Uiso   1.00
H308   H     0.66529   0.65023   0.43393   0.00000  Uiso   1.00
H309   H     0.51957   0.73096   0.63653   0.00000  Uiso   1.00
H310   H     0.70227   0.85097   0.56205   0.00000  Uiso   1.00
H311   H     0.69313   0.55680   0.28859   0.00000  Uiso   1.00
H312   H     0.38590   0.72704   0.71580   0.00000  Uiso   1.00
H313   H     0.77116   0.98012   0.55874   0.00000  Uiso   1.00
O314   O     0.66397   0.54077   0.11635   0.00000  Uiso   1.00
O315   O     0.26090   0.76413   0.67683   0.00000  Uiso   1.00
O316   O     0.76635   0.09616   0.47077   0.00000  Uiso   1.00
N317   N     0.60669   0.63997   0.15031   0.00000  Uiso   1.00
N318   N     0.31944   0.79913   0.54972   0.00000  Uiso   1.00
N319   N     0.67961   0.03575   0.40290   0.00000  Uiso   1.00
N320   N     0.66370   0.59079   0.25765   0.00000  Uiso   1.00
N321   N     0.37646   0.74995   0.65705   0.00000  Uiso   1.00
N322   N     0.73663   0.98657   0.51023   0.00000  Uiso   1.00
C323   C     0.03026   0.32927   0.85816   0.00000  Uiso   1.00
C324   C     0.06527   0.26509   0.82711   0.00000  Uiso   1.00
C325   C     0.06293   0.23851   0.74121   0.00000  Uiso   1.00
C326   C     0.09835   0.17934   0.72627   0.00000  Uiso   1.00
C327   C     0.14713   0.08444   0.66763   0.00000  Uiso   1.00
C328   C     0.98610   0.30894   0.93718   0.00000  Uiso   1.00
C329   C     0.91720   0.31925   0.94383   0.00000  Uiso   1.00
C330   C     0.88597   0.29700   0.02157   0.00000  Uiso   1.00
C331   C     0.81185   0.27022   0.13385   0.00000  Uiso   1.00
C332   C     0.08536   0.37415   0.89670   0.00000  Uiso   1.00
C333   C     0.09992   0.43929   0.86935   0.00000  Uiso   1.00
C334   C     0.15226   0.47194   0.91302   0.00000  Uiso   1.00
C335   C     0.23227   0.54641   0.96245   0.00000  Uiso   1.00
C336   C     0.09731   0.27144   0.98439   0.00000  Uiso   1.00
C337   C     0.10168   0.23368   0.89567   0.00000  Uiso   1.00
C338   C     0.13711   0.17453   0.88086   0.00000  Uiso   1.00
C339   C     0.13483   0.14787   0.79496   0.00000  Uiso   1.00
C340   C     0.02251   0.27753   0.00574   0.00000  Uiso   1.00
C341   C     0.99138   0.25526   0.08349   0.00000  Uiso   1.00
C342   C     0.92245   0.26553   0.09026   0.00000  Uiso   1.00
C343   C     0.12178   0.34274   0.96527   0.00000  Uiso   1.00
C344   C     0.17410   0.37530   0.00900   0.00000  Uiso   1.00
C345   C     0.18874   0.44047   0.98171   0.00000  Uiso   1.00
H346   H     0.00191   0.35373   0.80479   0.00000  Uiso   1.00
H347   H     0.03474   0.26284   0.68817   0.00000  Uiso   1.00
H348   H     0.88903   0.34357   0.89077   0.00000  Uiso   1.00
H349   H     0.07173   0.46358   0.81629   0.00000  Uiso   1.00
H350   H     0.08718   0.14820   0.58912   0.00000  Uiso   1.00
H351   H     0.77995   0.31844   0.01632   0.00000  Uiso   1.00
H352   H     0.16521   0.57152   0.85927   0.00000  Uiso   1.00
H353   H     0.12566   0.24698   0.03777   0.00000  Uiso   1.00
H354   H     0.16529   0.15023   0.93393   0.00000  Uiso   1.00
H355   H     0.01957   0.23096   0.13653   0.00000  Uiso   1.00
H356   H     0.20227   0.35097   0.06205   0.00000  Uiso   1.00
H357   H     0.19313   0.05680   0.78859   0.00000  Uiso   1.00
H358   H     0.88590   0.22704   0.21580   0.00000  Uiso   1.00
H359   H     0.27116   0.48012   0.05874   0.00000  Uiso   1.00
O360   O     0.16397   0.04077   0.61635   0.00000  Uiso   1.00
O361   O     0.76090   0.26413   0.17683   0.00000  Uiso   1.00
O362   O     0.26635   0.59616   0.97077   0.00000  Uiso   1.00
N363   N     0.10669   0.13997   0.65031   0.00000  Uiso   1.00
N364   N     0.81944   0.29913   0.04972   0.00000  Uiso   1.00
N365   N     0.17961   0.53575   0.90290   0.00000  Uiso   1.00
N366   N     0.16370   0.09079   0.75765   0.00000  Uiso   1.00
N367   N     0.87646   0.24995   0.15705   0.00000  Uiso   1.00
N368   N     0.23663   0.48657   0.01023   0.00000  Uiso   1.00
