data_job_05796
_audit_creation_date              2018-12-19
_audit_creation_method            'Materials Studio'
_symmetry_space_group_name_H-M    'P1'
_symmetry_Int_Tables_number       1
_symmetry_cell_setting            triclinic
loop_
_symmetry_equiv_pos_as_xyz
  x,y,z
_cell_length_a                    19.6389
_cell_length_b                    19.6389
_cell_length_c                    12.4233
_cell_angle_alpha                 90.0000
_cell_angle_beta                  90.0000
_cell_angle_gamma                 90.0000
loop_
_atom_site_label
_atom_site_type_symbol
_atom_site_fract_x
_atom_site_fract_y
_atom_site_fract_z
_atom_site_U_iso_or_equiv
_atom_site_adp_type
_atom_site_occupancy
C1     C     0.77211   0.90307   0.64476   0.00000  Uiso   1.00
C2     C     0.73054   0.83767   0.65263   0.00000  Uiso   1.00
C3     C     0.75448   0.77247   0.63210   0.00000  Uiso   1.00
C4     C     0.70845   0.71933   0.64379   0.00000  Uiso   1.00
C5     C     0.65418   0.61600   0.65123   0.00000  Uiso   1.00
C6     C     0.73394   0.94901   0.56631   0.00000  Uiso   1.00
C7     C     0.76075   0.97742   0.47321   0.00000  Uiso   1.00
C8     C     0.71758   0.01802   0.41226   0.00000  Uiso   1.00
C9     C     0.66860   0.08758   0.28573   0.00000  Uiso   1.00
C10    C     0.76663   0.93731   0.75457   0.00000  Uiso   1.00
C11    C     0.82092   0.95592   0.81977   0.00000  Uiso   1.00
C12    C     0.80527   0.98668   0.91731   0.00000  Uiso   1.00
C13    C     0.80704   0.03809   0.08309   0.00000  Uiso   1.00
C14    C     0.64778   0.92464   0.70204   0.00000  Uiso   1.00
C15    C     0.66301   0.84939   0.68374   0.00000  Uiso   1.00
C16    C     0.61693   0.79633   0.69548   0.00000  Uiso   1.00
C17    C     0.64080   0.73106   0.67497   0.00000  Uiso   1.00
C18    C     0.66641   0.96073   0.59742   0.00000  Uiso   1.00
C19    C     0.62319   0.00129   0.53660   0.00000  Uiso   1.00
C20    C     0.64992   0.02976   0.44343   0.00000  Uiso   1.00
C21    C     0.69910   0.94903   0.78569   0.00000  Uiso   1.00
C22    C     0.68336   0.97978   0.88315   0.00000  Uiso   1.00
C23    C     0.73762   0.99842   0.94848   0.00000  Uiso   1.00
H24    H     0.82468   0.89395   0.62053   0.00000  Uiso   1.00
H25    H     0.80675   0.76342   0.60801   0.00000  Uiso   1.00
H26    H     0.81301   0.96835   0.44916   0.00000  Uiso   1.00
H27    H     0.87317   0.94684   0.79566   0.00000  Uiso   1.00
H28    H     0.75708   0.62387   0.60781   0.00000  Uiso   1.00
H29    H     0.77029   0.05600   0.27290   0.00000  Uiso   1.00
H30    H     0.89715   0.01064   0.00355   0.00000  Uiso   1.00
H31    H     0.59520   0.93377   0.72627   0.00000  Uiso   1.00
H32    H     0.56468   0.80542   0.71956   0.00000  Uiso   1.00
H33    H     0.57094   0.01035   0.56070   0.00000  Uiso   1.00
H34    H     0.63110   0.98884   0.90720   0.00000  Uiso   1.00
H35    H     0.56060   0.65796   0.69834   0.00000  Uiso   1.00
H36    H     0.57382   0.09009   0.36343   0.00000  Uiso   1.00
H37    H     0.70068   0.04473   0.09408   0.00000  Uiso   1.00
O38    O     0.64289   0.55577   0.64672   0.00000  Uiso   1.00
O39    O     0.66024   0.12271   0.20734   0.00000  Uiso   1.00
O40    O     0.82667   0.06320   0.16594   0.00000  Uiso   1.00
N41    N     0.71503   0.64951   0.63006   0.00000  Uiso   1.00
N42    N     0.72738   0.05351   0.31692   0.00000  Uiso   1.00
N43    N     0.84598   0.01112   0.00001   0.00000  Uiso   1.00
N44    N     0.60931   0.66785   0.67878   0.00000  Uiso   1.00
N45    N     0.62166   0.07185   0.36564   0.00000  Uiso   1.00
N46    N     0.74026   0.02946   0.04873   0.00000  Uiso   1.00
C47    C     0.22789   0.09693   0.64476   0.00000  Uiso   1.00
C48    C     0.26946   0.16233   0.65263   0.00000  Uiso   1.00
C49    C     0.24552   0.22753   0.63210   0.00000  Uiso   1.00
C50    C     0.29155   0.28067   0.64379   0.00000  Uiso   1.00
C51    C     0.34582   0.38400   0.65123   0.00000  Uiso   1.00
C52    C     0.26606   0.05099   0.56631   0.00000  Uiso   1.00
C53    C     0.23925   0.02258   0.47321   0.00000  Uiso   1.00
C54    C     0.28242   0.98198   0.41226   0.00000  Uiso   1.00
C55    C     0.33140   0.91242   0.28573   0.00000  Uiso   1.00
C56    C     0.23337   0.06269   0.75457   0.00000  Uiso   1.00
C57    C     0.17908   0.04408   0.81977   0.00000  Uiso   1.00
C58    C     0.19473   0.01332   0.91731   0.00000  Uiso   1.00
C59    C     0.19296   0.96191   0.08309   0.00000  Uiso   1.00
C60    C     0.35222   0.07536   0.70204   0.00000  Uiso   1.00
C61    C     0.33699   0.15061   0.68374   0.00000  Uiso   1.00
C62    C     0.38307   0.20367   0.69548   0.00000  Uiso   1.00
C63    C     0.35920   0.26894   0.67497   0.00000  Uiso   1.00
C64    C     0.33359   0.03927   0.59742   0.00000  Uiso   1.00
C65    C     0.37681   0.99871   0.53660   0.00000  Uiso   1.00
C66    C     0.35008   0.97024   0.44343   0.00000  Uiso   1.00
C67    C     0.30090   0.05097   0.78569   0.00000  Uiso   1.00
C68    C     0.31664   0.02022   0.88315   0.00000  Uiso   1.00
C69    C     0.26238   0.00158   0.94848   0.00000  Uiso   1.00
H70    H     0.17532   0.10605   0.62053   0.00000  Uiso   1.00
H71    H     0.19325   0.23658   0.60801   0.00000  Uiso   1.00
H72    H     0.18699   0.03165   0.44916   0.00000  Uiso   1.00
H73    H     0.12683   0.05316   0.79566   0.00000  Uiso   1.00
H74    H     0.24292   0.37613   0.60781   0.00000  Uiso   1.00
H75    H     0.22971   0.94400   0.27290   0.00000  Uiso   1.00
H76    H     0.10285   0.98936   0.00355   0.00000  Uiso   1.00
H77    H     0.40480   0.06623   0.72627   0.00000  Uiso   1.00
H78    H     0.43532   0.19458   0.71956   0.00000  Uiso   1.00
H79    H     0.42906   0.98965   0.56070   0.00000  Uiso   1.00
H80    H     0.36890   0.01116   0.90720   0.00000  Uiso   1.00
H81    H     0.43940   0.34204   0.69834   0.00000  Uiso   1.00
H82    H     0.42618   0.90991   0.36343   0.00000  Uiso   1.00
H83    H     0.29932   0.95527   0.09408   0.00000  Uiso   1.00
O84    O     0.35711   0.44423   0.64672   0.00000  Uiso   1.00
O85    O     0.33976   0.87729   0.20734   0.00000  Uiso   1.00
O86    O     0.17333   0.93680   0.16594   0.00000  Uiso   1.00
N87    N     0.28497   0.35049   0.63006   0.00000  Uiso   1.00
N88    N     0.27262   0.94649   0.31692   0.00000  Uiso   1.00
N89    N     0.15402   0.98888   0.00001   0.00000  Uiso   1.00
N90    N     0.39069   0.33215   0.67878   0.00000  Uiso   1.00
N91    N     0.37834   0.92815   0.36564   0.00000  Uiso   1.00
N92    N     0.25974   0.97054   0.04873   0.00000  Uiso   1.00
C93    C     0.09693   0.77211   0.14476   0.00000  Uiso   1.00
C94    C     0.16233   0.73054   0.15263   0.00000  Uiso   1.00
C95    C     0.22753   0.75448   0.13210   0.00000  Uiso   1.00
C96    C     0.28067   0.70845   0.14379   0.00000  Uiso   1.00
C97    C     0.38400   0.65418   0.15123   0.00000  Uiso   1.00
C98    C     0.05099   0.73394   0.06631   0.00000  Uiso   1.00
C99    C     0.02258   0.76075   0.97321   0.00000  Uiso   1.00
C100   C     0.98198   0.71758   0.91226   0.00000  Uiso   1.00
C101   C     0.91242   0.66860   0.78573   0.00000  Uiso   1.00
C102   C     0.06269   0.76663   0.25457   0.00000  Uiso   1.00
C103   C     0.04408   0.82092   0.31977   0.00000  Uiso   1.00
C104   C     0.01332   0.80527   0.41731   0.00000  Uiso   1.00
C105   C     0.96191   0.80704   0.58309   0.00000  Uiso   1.00
C106   C     0.07536   0.64778   0.20204   0.00000  Uiso   1.00
C107   C     0.15061   0.66301   0.18374   0.00000  Uiso   1.00
C108   C     0.20367   0.61693   0.19548   0.00000  Uiso   1.00
C109   C     0.26894   0.64080   0.17497   0.00000  Uiso   1.00
C110   C     0.03927   0.66641   0.09742   0.00000  Uiso   1.00
C111   C     0.99871   0.62319   0.03660   0.00000  Uiso   1.00
C112   C     0.97024   0.64992   0.94343   0.00000  Uiso   1.00
C113   C     0.05097   0.69910   0.28569   0.00000  Uiso   1.00
C114   C     0.02022   0.68336   0.38315   0.00000  Uiso   1.00
C115   C     0.00158   0.73762   0.44848   0.00000  Uiso   1.00
H116   H     0.10605   0.82468   0.12053   0.00000  Uiso   1.00
H117   H     0.23658   0.80675   0.10801   0.00000  Uiso   1.00
H118   H     0.03165   0.81301   0.94916   0.00000  Uiso   1.00
H119   H     0.05316   0.87317   0.29566   0.00000  Uiso   1.00
H120   H     0.37613   0.75708   0.10781   0.00000  Uiso   1.00
H121   H     0.94400   0.77029   0.77290   0.00000  Uiso   1.00
H122   H     0.98936   0.89715   0.50355   0.00000  Uiso   1.00
H123   H     0.06623   0.59520   0.22627   0.00000  Uiso   1.00
H124   H     0.19458   0.56468   0.21956   0.00000  Uiso   1.00
H125   H     0.98965   0.57094   0.06070   0.00000  Uiso   1.00
H126   H     0.01116   0.63110   0.40720   0.00000  Uiso   1.00
H127   H     0.34204   0.56060   0.19834   0.00000  Uiso   1.00
H128   H     0.90991   0.57382   0.86343   0.00000  Uiso   1.00
H129   H     0.95527   0.70068   0.59408   0.00000  Uiso   1.00
O130   O     0.44423   0.64289   0.14672   0.00000  Uiso   1.00
O131   O     0.87729   0.66024   0.70734   0.00000  Uiso   1.00
O132   O     0.93680   0.82667   0.66594   0.00000  Uiso   1.00
N133   N     0.35049   0.71503   0.13006   0.00000  Uiso   1.00
N134   N     0.94649   0.72738   0.81692   0.00000  Uiso   1.00
N135   N     0.98888   0.84598   0.50001   0.00000  Uiso   1.00
N136   N     0.33215   0.60931   0.17878   0.00000  Uiso   1.00
N137   N     0.92815   0.62166   0.86564   0.00000  Uiso   1.00
N138   N     0.97054   0.74026   0.54873   0.00000  Uiso   1.00
C139   C     0.90307   0.22789   0.14476   0.00000  Uiso   1.00
C140   C     0.83767   0.26946   0.15263   0.00000  Uiso   1.00
C141   C     0.77247   0.24552   0.13210   0.00000  Uiso   1.00
C142   C     0.71933   0.29155   0.14379   0.00000  Uiso   1.00
C143   C     0.61600   0.34582   0.15123   0.00000  Uiso   1.00
C144   C     0.94901   0.26606   0.06631   0.00000  Uiso   1.00
C145   C     0.97742   0.23925   0.97321   0.00000  Uiso   1.00
C146   C     0.01802   0.28242   0.91226   0.00000  Uiso   1.00
C147   C     0.08758   0.33140   0.78573   0.00000  Uiso   1.00
C148   C     0.93731   0.23337   0.25457   0.00000  Uiso   1.00
C149   C     0.95592   0.17908   0.31977   0.00000  Uiso   1.00
C150   C     0.98668   0.19473   0.41731   0.00000  Uiso   1.00
C151   C     0.03809   0.19296   0.58309   0.00000  Uiso   1.00
C152   C     0.92464   0.35222   0.20204   0.00000  Uiso   1.00
C153   C     0.84939   0.33699   0.18374   0.00000  Uiso   1.00
C154   C     0.79633   0.38307   0.19548   0.00000  Uiso   1.00
C155   C     0.73106   0.35920   0.17497   0.00000  Uiso   1.00
C156   C     0.96073   0.33359   0.09742   0.00000  Uiso   1.00
C157   C     0.00129   0.37681   0.03660   0.00000  Uiso   1.00
C158   C     0.02976   0.35008   0.94343   0.00000  Uiso   1.00
C159   C     0.94903   0.30090   0.28569   0.00000  Uiso   1.00
C160   C     0.97978   0.31664   0.38315   0.00000  Uiso   1.00
C161   C     0.99842   0.26238   0.44848   0.00000  Uiso   1.00
H162   H     0.89395   0.17532   0.12053   0.00000  Uiso   1.00
H163   H     0.76342   0.19325   0.10801   0.00000  Uiso   1.00
H164   H     0.96835   0.18699   0.94916   0.00000  Uiso   1.00
H165   H     0.94684   0.12683   0.29566   0.00000  Uiso   1.00
H166   H     0.62387   0.24292   0.10781   0.00000  Uiso   1.00
H167   H     0.05600   0.22971   0.77290   0.00000  Uiso   1.00
H168   H     0.01064   0.10285   0.50355   0.00000  Uiso   1.00
H169   H     0.93377   0.40480   0.22627   0.00000  Uiso   1.00
H170   H     0.80542   0.43532   0.21956   0.00000  Uiso   1.00
H171   H     0.01035   0.42906   0.06070   0.00000  Uiso   1.00
H172   H     0.98884   0.36890   0.40720   0.00000  Uiso   1.00
H173   H     0.65796   0.43940   0.19834   0.00000  Uiso   1.00
H174   H     0.09009   0.42618   0.86343   0.00000  Uiso   1.00
H175   H     0.04473   0.29932   0.59408   0.00000  Uiso   1.00
O176   O     0.55577   0.35711   0.14672   0.00000  Uiso   1.00
O177   O     0.12271   0.33976   0.70734   0.00000  Uiso   1.00
O178   O     0.06320   0.17333   0.66594   0.00000  Uiso   1.00
N179   N     0.64951   0.28497   0.13006   0.00000  Uiso   1.00
N180   N     0.05351   0.27262   0.81692   0.00000  Uiso   1.00
N181   N     0.01112   0.15402   0.50001   0.00000  Uiso   1.00
N182   N     0.66785   0.39069   0.17878   0.00000  Uiso   1.00
N183   N     0.07185   0.37834   0.86564   0.00000  Uiso   1.00
N184   N     0.02946   0.25974   0.54873   0.00000  Uiso   1.00
C185   C     0.27211   0.59693   0.64476   0.00000  Uiso   1.00
C186   C     0.23054   0.66233   0.65263   0.00000  Uiso   1.00
C187   C     0.25448   0.72753   0.63210   0.00000  Uiso   1.00
C188   C     0.20845   0.78067   0.64379   0.00000  Uiso   1.00
C189   C     0.15418   0.88400   0.65123   0.00000  Uiso   1.00
C190   C     0.23394   0.55099   0.56631   0.00000  Uiso   1.00
C191   C     0.26075   0.52258   0.47321   0.00000  Uiso   1.00
C192   C     0.21758   0.48198   0.41226   0.00000  Uiso   1.00
C193   C     0.16860   0.41242   0.28573   0.00000  Uiso   1.00
C194   C     0.26663   0.56269   0.75457   0.00000  Uiso   1.00
C195   C     0.32092   0.54408   0.81977   0.00000  Uiso   1.00
C196   C     0.30527   0.51332   0.91731   0.00000  Uiso   1.00
C197   C     0.30704   0.46191   0.08309   0.00000  Uiso   1.00
C198   C     0.14778   0.57536   0.70204   0.00000  Uiso   1.00
C199   C     0.16301   0.65061   0.68374   0.00000  Uiso   1.00
C200   C     0.11693   0.70367   0.69548   0.00000  Uiso   1.00
C201   C     0.14080   0.76894   0.67497   0.00000  Uiso   1.00
C202   C     0.16641   0.53927   0.59742   0.00000  Uiso   1.00
C203   C     0.12319   0.49871   0.53660   0.00000  Uiso   1.00
C204   C     0.14992   0.47024   0.44343   0.00000  Uiso   1.00
C205   C     0.19910   0.55097   0.78569   0.00000  Uiso   1.00
C206   C     0.18336   0.52022   0.88315   0.00000  Uiso   1.00
C207   C     0.23762   0.50158   0.94848   0.00000  Uiso   1.00
H208   H     0.32468   0.60605   0.62053   0.00000  Uiso   1.00
H209   H     0.30675   0.73658   0.60801   0.00000  Uiso   1.00
H210   H     0.31301   0.53165   0.44916   0.00000  Uiso   1.00
H211   H     0.37317   0.55316   0.79566   0.00000  Uiso   1.00
H212   H     0.25708   0.87613   0.60781   0.00000  Uiso   1.00
H213   H     0.27029   0.44400   0.27290   0.00000  Uiso   1.00
H214   H     0.39715   0.48936   0.00355   0.00000  Uiso   1.00
H215   H     0.09520   0.56623   0.72627   0.00000  Uiso   1.00
H216   H     0.06468   0.69458   0.71956   0.00000  Uiso   1.00
H217   H     0.07094   0.48965   0.56070   0.00000  Uiso   1.00
H218   H     0.13110   0.51116   0.90720   0.00000  Uiso   1.00
H219   H     0.06060   0.84204   0.69834   0.00000  Uiso   1.00
H220   H     0.07382   0.40991   0.36343   0.00000  Uiso   1.00
H221   H     0.20068   0.45527   0.09408   0.00000  Uiso   1.00
O222   O     0.14289   0.94423   0.64672   0.00000  Uiso   1.00
O223   O     0.16024   0.37729   0.20734   0.00000  Uiso   1.00
O224   O     0.32667   0.43680   0.16594   0.00000  Uiso   1.00
N225   N     0.21503   0.85049   0.63006   0.00000  Uiso   1.00
N226   N     0.22738   0.44649   0.31692   0.00000  Uiso   1.00
N227   N     0.34598   0.48888   0.00001   0.00000  Uiso   1.00
N228   N     0.10931   0.83215   0.67878   0.00000  Uiso   1.00
N229   N     0.12166   0.42815   0.36564   0.00000  Uiso   1.00
N230   N     0.24026   0.47054   0.04873   0.00000  Uiso   1.00
C231   C     0.72789   0.40307   0.64476   0.00000  Uiso   1.00
C232   C     0.76946   0.33767   0.65263   0.00000  Uiso   1.00
C233   C     0.74552   0.27247   0.63210   0.00000  Uiso   1.00
C234   C     0.79155   0.21933   0.64379   0.00000  Uiso   1.00
C235   C     0.84582   0.11600   0.65123   0.00000  Uiso   1.00
C236   C     0.76606   0.44901   0.56631   0.00000  Uiso   1.00
C237   C     0.73925   0.47742   0.47321   0.00000  Uiso   1.00
C238   C     0.78242   0.51802   0.41226   0.00000  Uiso   1.00
C239   C     0.83140   0.58758   0.28573   0.00000  Uiso   1.00
C240   C     0.73337   0.43731   0.75457   0.00000  Uiso   1.00
C241   C     0.67908   0.45592   0.81977   0.00000  Uiso   1.00
C242   C     0.69473   0.48668   0.91731   0.00000  Uiso   1.00
C243   C     0.69296   0.53809   0.08309   0.00000  Uiso   1.00
C244   C     0.85222   0.42464   0.70204   0.00000  Uiso   1.00
C245   C     0.83699   0.34939   0.68374   0.00000  Uiso   1.00
C246   C     0.88307   0.29633   0.69548   0.00000  Uiso   1.00
C247   C     0.85920   0.23106   0.67497   0.00000  Uiso   1.00
C248   C     0.83359   0.46073   0.59742   0.00000  Uiso   1.00
C249   C     0.87681   0.50129   0.53660   0.00000  Uiso   1.00
C250   C     0.85008   0.52976   0.44343   0.00000  Uiso   1.00
C251   C     0.80090   0.44903   0.78569   0.00000  Uiso   1.00
C252   C     0.81664   0.47978   0.88315   0.00000  Uiso   1.00
C253   C     0.76238   0.49842   0.94848   0.00000  Uiso   1.00
H254   H     0.67532   0.39395   0.62053   0.00000  Uiso   1.00
H255   H     0.69325   0.26342   0.60801   0.00000  Uiso   1.00
H256   H     0.68699   0.46835   0.44916   0.00000  Uiso   1.00
H257   H     0.62683   0.44684   0.79566   0.00000  Uiso   1.00
H258   H     0.74292   0.12387   0.60781   0.00000  Uiso   1.00
H259   H     0.72971   0.55600   0.27290   0.00000  Uiso   1.00
H260   H     0.60285   0.51064   0.00355   0.00000  Uiso   1.00
H261   H     0.90480   0.43377   0.72627   0.00000  Uiso   1.00
H262   H     0.93532   0.30542   0.71956   0.00000  Uiso   1.00
H263   H     0.92906   0.51035   0.56070   0.00000  Uiso   1.00
H264   H     0.86890   0.48884   0.90720   0.00000  Uiso   1.00
H265   H     0.93940   0.15796   0.69834   0.00000  Uiso   1.00
H266   H     0.92618   0.59009   0.36343   0.00000  Uiso   1.00
H267   H     0.79932   0.54473   0.09408   0.00000  Uiso   1.00
O268   O     0.85711   0.05577   0.64672   0.00000  Uiso   1.00
O269   O     0.83976   0.62271   0.20734   0.00000  Uiso   1.00
O270   O     0.67333   0.56320   0.16594   0.00000  Uiso   1.00
N271   N     0.78497   0.14951   0.63006   0.00000  Uiso   1.00
N272   N     0.77262   0.55351   0.31692   0.00000  Uiso   1.00
N273   N     0.65402   0.51112   0.00001   0.00000  Uiso   1.00
N274   N     0.89069   0.16785   0.67878   0.00000  Uiso   1.00
N275   N     0.87834   0.57185   0.36564   0.00000  Uiso   1.00
N276   N     0.75974   0.52946   0.04873   0.00000  Uiso   1.00
C277   C     0.59693   0.72789   0.14476   0.00000  Uiso   1.00
C278   C     0.66233   0.76946   0.15263   0.00000  Uiso   1.00
C279   C     0.72753   0.74552   0.13210   0.00000  Uiso   1.00
C280   C     0.78067   0.79155   0.14379   0.00000  Uiso   1.00
C281   C     0.88400   0.84582   0.15123   0.00000  Uiso   1.00
C282   C     0.55099   0.76606   0.06631   0.00000  Uiso   1.00
C283   C     0.52258   0.73925   0.97321   0.00000  Uiso   1.00
C284   C     0.48198   0.78242   0.91226   0.00000  Uiso   1.00
C285   C     0.41242   0.83140   0.78573   0.00000  Uiso   1.00
C286   C     0.56269   0.73337   0.25457   0.00000  Uiso   1.00
C287   C     0.54408   0.67908   0.31977   0.00000  Uiso   1.00
C288   C     0.51332   0.69473   0.41731   0.00000  Uiso   1.00
C289   C     0.46191   0.69296   0.58309   0.00000  Uiso   1.00
C290   C     0.57536   0.85222   0.20204   0.00000  Uiso   1.00
C291   C     0.65061   0.83699   0.18374   0.00000  Uiso   1.00
C292   C     0.70367   0.88307   0.19548   0.00000  Uiso   1.00
C293   C     0.76894   0.85920   0.17497   0.00000  Uiso   1.00
C294   C     0.53927   0.83359   0.09742   0.00000  Uiso   1.00
C295   C     0.49871   0.87681   0.03660   0.00000  Uiso   1.00
C296   C     0.47024   0.85008   0.94343   0.00000  Uiso   1.00
C297   C     0.55097   0.80090   0.28569   0.00000  Uiso   1.00
C298   C     0.52022   0.81664   0.38315   0.00000  Uiso   1.00
C299   C     0.50158   0.76238   0.44848   0.00000  Uiso   1.00
H300   H     0.60605   0.67532   0.12053   0.00000  Uiso   1.00
H301   H     0.73658   0.69325   0.10801   0.00000  Uiso   1.00
H302   H     0.53165   0.68699   0.94916   0.00000  Uiso   1.00
H303   H     0.55316   0.62683   0.29566   0.00000  Uiso   1.00
H304   H     0.87613   0.74292   0.10781   0.00000  Uiso   1.00
H305   H     0.44400   0.72971   0.77290   0.00000  Uiso   1.00
H306   H     0.48936   0.60285   0.50355   0.00000  Uiso   1.00
H307   H     0.56623   0.90480   0.22627   0.00000  Uiso   1.00
H308   H     0.69458   0.93532   0.21956   0.00000  Uiso   1.00
H309   H     0.48965   0.92906   0.06070   0.00000  Uiso   1.00
H310   H     0.51116   0.86890   0.40720   0.00000  Uiso   1.00
H311   H     0.84204   0.93940   0.19834   0.00000  Uiso   1.00
H312   H     0.40991   0.92618   0.86343   0.00000  Uiso   1.00
H313   H     0.45527   0.79932   0.59408   0.00000  Uiso   1.00
O314   O     0.94423   0.85711   0.14672   0.00000  Uiso   1.00
O315   O     0.37729   0.83976   0.70734   0.00000  Uiso   1.00
O316   O     0.43680   0.67333   0.66594   0.00000  Uiso   1.00
N317   N     0.85049   0.78497   0.13006   0.00000  Uiso   1.00
N318   N     0.44649   0.77262   0.81692   0.00000  Uiso   1.00
N319   N     0.48888   0.65402   0.50001   0.00000  Uiso   1.00
N320   N     0.83215   0.89069   0.17878   0.00000  Uiso   1.00
N321   N     0.42815   0.87834   0.86564   0.00000  Uiso   1.00
N322   N     0.47054   0.75974   0.54873   0.00000  Uiso   1.00
C323   C     0.40307   0.27211   0.14476   0.00000  Uiso   1.00
C324   C     0.33767   0.23054   0.15263   0.00000  Uiso   1.00
C325   C     0.27247   0.25448   0.13210   0.00000  Uiso   1.00
C326   C     0.21933   0.20845   0.14379   0.00000  Uiso   1.00
C327   C     0.11600   0.15418   0.15123   0.00000  Uiso   1.00
C328   C     0.44901   0.23394   0.06631   0.00000  Uiso   1.00
C329   C     0.47742   0.26075   0.97321   0.00000  Uiso   1.00
C330   C     0.51802   0.21758   0.91226   0.00000  Uiso   1.00
C331   C     0.58758   0.16860   0.78573   0.00000  Uiso   1.00
C332   C     0.43731   0.26663   0.25457   0.00000  Uiso   1.00
C333   C     0.45592   0.32092   0.31977   0.00000  Uiso   1.00
C334   C     0.48668   0.30527   0.41731   0.00000  Uiso   1.00
C335   C     0.53809   0.30704   0.58309   0.00000  Uiso   1.00
C336   C     0.42464   0.14778   0.20204   0.00000  Uiso   1.00
C337   C     0.34939   0.16301   0.18374   0.00000  Uiso   1.00
C338   C     0.29633   0.11693   0.19548   0.00000  Uiso   1.00
C339   C     0.23106   0.14080   0.17497   0.00000  Uiso   1.00
C340   C     0.46073   0.16641   0.09742   0.00000  Uiso   1.00
C341   C     0.50129   0.12319   0.03660   0.00000  Uiso   1.00
C342   C     0.52976   0.14992   0.94343   0.00000  Uiso   1.00
C343   C     0.44903   0.19910   0.28569   0.00000  Uiso   1.00
C344   C     0.47978   0.18336   0.38315   0.00000  Uiso   1.00
C345   C     0.49842   0.23762   0.44848   0.00000  Uiso   1.00
H346   H     0.39395   0.32468   0.12053   0.00000  Uiso   1.00
H347   H     0.26342   0.30675   0.10801   0.00000  Uiso   1.00
H348   H     0.46835   0.31301   0.94916   0.00000  Uiso   1.00
H349   H     0.44684   0.37317   0.29566   0.00000  Uiso   1.00
H350   H     0.12387   0.25708   0.10781   0.00000  Uiso   1.00
H351   H     0.55600   0.27029   0.77290   0.00000  Uiso   1.00
H352   H     0.51064   0.39715   0.50355   0.00000  Uiso   1.00
H353   H     0.43377   0.09520   0.22627   0.00000  Uiso   1.00
H354   H     0.30542   0.06468   0.21956   0.00000  Uiso   1.00
H355   H     0.51035   0.07094   0.06070   0.00000  Uiso   1.00
H356   H     0.48884   0.13110   0.40720   0.00000  Uiso   1.00
H357   H     0.15796   0.06060   0.19834   0.00000  Uiso   1.00
H358   H     0.59009   0.07382   0.86343   0.00000  Uiso   1.00
H359   H     0.54473   0.20068   0.59408   0.00000  Uiso   1.00
O360   O     0.05577   0.14289   0.14672   0.00000  Uiso   1.00
O361   O     0.62271   0.16024   0.70734   0.00000  Uiso   1.00
O362   O     0.56320   0.32667   0.66594   0.00000  Uiso   1.00
N363   N     0.14951   0.21503   0.13006   0.00000  Uiso   1.00
N364   N     0.55351   0.22738   0.81692   0.00000  Uiso   1.00
N365   N     0.51112   0.34598   0.50001   0.00000  Uiso   1.00
N366   N     0.16785   0.10931   0.17878   0.00000  Uiso   1.00
N367   N     0.57185   0.12166   0.86564   0.00000  Uiso   1.00
N368   N     0.52946   0.24026   0.54873   0.00000  Uiso   1.00
