data_job_00387
_audit_creation_date              2018-12-19
_audit_creation_method            'Materials Studio'
_symmetry_space_group_name_H-M    'P1'
_symmetry_Int_Tables_number       1
_symmetry_cell_setting            triclinic
loop_
_symmetry_equiv_pos_as_xyz
  x,y,z
_cell_length_a                    19.2934
_cell_length_b                    12.4288
_cell_length_c                    17.4833
_cell_angle_alpha                 90.0000
_cell_angle_beta                  147.8987
_cell_angle_gamma                 90.0000
loop_
_atom_site_label
_atom_site_type_symbol
_atom_site_fract_x
_atom_site_fract_y
_atom_site_fract_z
_atom_site_U_iso_or_equiv
_atom_site_adp_type
_atom_site_occupancy
C1     C     0.21035   0.71956   0.88863   0.00000  Uiso   1.00
C2     C     0.35397   0.73519   0.04266   0.00000  Uiso   1.00
C3     C     0.40933   0.72135   0.16617   0.00000  Uiso   1.00
C4     C     0.54250   0.73954   0.29696   0.00000  Uiso   1.00
C5     C     0.75411   0.75905   0.53508   0.00000  Uiso   1.00
C6     C     0.20682   0.63703   0.82082   0.00000  Uiso   1.00
C7     C     0.13844   0.54067   0.75780   0.00000  Uiso   1.00
C8     C     0.14774   0.47625   0.70184   0.00000  Uiso   1.00
C9     C     0.13081   0.34340   0.59547   0.00000  Uiso   1.00
C10    C     0.16488   0.82547   0.81108   0.00000  Uiso   1.00
C11    C     0.06122   0.88753   0.73983   0.00000  Uiso   1.00
C12    C     0.03518   0.98174   0.67564   0.00000  Uiso   1.00
C13    C     0.95314   0.14147   0.55413   0.00000  Uiso   1.00
C14    C     0.34842   0.77649   0.90128   0.00000  Uiso   1.00
C15    C     0.42896   0.76611   0.04952   0.00000  Uiso   1.00
C16    C     0.56209   0.78434   0.18016   0.00000  Uiso   1.00
C17    C     0.61763   0.77053   0.30385   0.00000  Uiso   1.00
C18    C     0.28181   0.66795   0.82769   0.00000  Uiso   1.00
C19    C     0.29120   0.60366   0.77180   0.00000  Uiso   1.00
C20    C     0.22286   0.50722   0.70872   0.00000  Uiso   1.00
C21    C     0.23988   0.85639   0.81795   0.00000  Uiso   1.00
C22    C     0.21399   0.95052   0.75384   0.00000  Uiso   1.00
C23    C     0.11031   0.01272   0.68252   0.00000  Uiso   1.00
H24    H     0.15196   0.69549   0.88328   0.00000  Uiso   1.00
H25    H     0.35126   0.69741   0.16081   0.00000  Uiso   1.00
H26    H     0.08041   0.51677   0.75249   0.00000  Uiso   1.00
H27    H     0.00320   0.86358   0.73454   0.00000  Uiso   1.00
H28    H     0.60530   0.71314   0.47153   0.00000  Uiso   1.00
H29    H     0.03416   0.33227   0.61054   0.00000  Uiso   1.00
H30    H     0.87135   0.06358   0.57267   0.00000  Uiso   1.00
H31    H     0.40681   0.80057   0.90662   0.00000  Uiso   1.00
H32    H     0.62010   0.80826   0.18545   0.00000  Uiso   1.00
H33    H     0.34924   0.62762   0.77713   0.00000  Uiso   1.00
H34    H     0.27204   0.97442   0.75917   0.00000  Uiso   1.00
H35    H     0.82350   0.80311   0.49153   0.00000  Uiso   1.00
H36    H     0.25235   0.42224   0.63053   0.00000  Uiso   1.00
H37    H     0.08955   0.15354   0.59266   0.00000  Uiso   1.00
O38    O     0.85011   0.76126   0.66453   0.00000  Uiso   1.00
O39    O     0.10077   0.26158   0.53491   0.00000  Uiso   1.00
O40    O     0.88718   0.22104   0.48524   0.00000  Uiso   1.00
N41    N     0.62738   0.73328   0.43797   0.00000  Uiso   1.00
N42    N     0.09341   0.37718   0.63301   0.00000  Uiso   1.00
N43    N     0.94117   0.06088   0.59758   0.00000  Uiso   1.00
N44    N     0.74479   0.78169   0.44873   0.00000  Uiso   1.00
N45    N     0.21082   0.42559   0.64377   0.00000  Uiso   1.00
N46    N     0.05859   0.10929   0.60834   0.00000  Uiso   1.00
C47    C     0.78965   0.21956   0.61137   0.00000  Uiso   1.00
C48    C     0.64603   0.23519   0.45734   0.00000  Uiso   1.00
C49    C     0.59067   0.22135   0.33383   0.00000  Uiso   1.00
C50    C     0.45750   0.23954   0.20304   0.00000  Uiso   1.00
C51    C     0.24589   0.25905   0.96492   0.00000  Uiso   1.00
C52    C     0.79318   0.13703   0.67918   0.00000  Uiso   1.00
C53    C     0.86156   0.04067   0.74220   0.00000  Uiso   1.00
C54    C     0.85226   0.97625   0.79816   0.00000  Uiso   1.00
C55    C     0.86919   0.84340   0.90453   0.00000  Uiso   1.00
C56    C     0.83512   0.32547   0.68892   0.00000  Uiso   1.00
C57    C     0.93878   0.38753   0.76017   0.00000  Uiso   1.00
C58    C     0.96482   0.48174   0.82436   0.00000  Uiso   1.00
C59    C     0.04686   0.64147   0.94587   0.00000  Uiso   1.00
C60    C     0.65158   0.27649   0.59872   0.00000  Uiso   1.00
C61    C     0.57104   0.26611   0.45048   0.00000  Uiso   1.00
C62    C     0.43791   0.28434   0.31984   0.00000  Uiso   1.00
C63    C     0.38237   0.27053   0.19615   0.00000  Uiso   1.00
C64    C     0.71819   0.16795   0.67231   0.00000  Uiso   1.00
C65    C     0.70880   0.10366   0.72820   0.00000  Uiso   1.00
C66    C     0.77714   0.00722   0.79128   0.00000  Uiso   1.00
C67    C     0.76012   0.35639   0.68205   0.00000  Uiso   1.00
C68    C     0.78601   0.45052   0.74616   0.00000  Uiso   1.00
C69    C     0.88969   0.51272   0.81748   0.00000  Uiso   1.00
H70    H     0.84804   0.19549   0.61672   0.00000  Uiso   1.00
H71    H     0.64874   0.19741   0.33919   0.00000  Uiso   1.00
H72    H     0.91959   0.01677   0.74751   0.00000  Uiso   1.00
H73    H     0.99680   0.36358   0.76546   0.00000  Uiso   1.00
H74    H     0.39470   0.21314   0.02847   0.00000  Uiso   1.00
H75    H     0.96584   0.83227   0.88946   0.00000  Uiso   1.00
H76    H     0.12865   0.56358   0.92733   0.00000  Uiso   1.00
H77    H     0.59319   0.30057   0.59338   0.00000  Uiso   1.00
H78    H     0.37990   0.30826   0.31455   0.00000  Uiso   1.00
H79    H     0.65076   0.12762   0.72287   0.00000  Uiso   1.00
H80    H     0.72796   0.47442   0.74083   0.00000  Uiso   1.00
H81    H     0.17650   0.30311   0.00847   0.00000  Uiso   1.00
H82    H     0.74765   0.92224   0.86947   0.00000  Uiso   1.00
H83    H     0.91045   0.65354   0.90734   0.00000  Uiso   1.00
O84    O     0.14989   0.26126   0.83547   0.00000  Uiso   1.00
O85    O     0.89923   0.76158   0.96509   0.00000  Uiso   1.00
O86    O     0.11282   0.72104   0.01476   0.00000  Uiso   1.00
N87    N     0.37262   0.23328   0.06203   0.00000  Uiso   1.00
N88    N     0.90659   0.87718   0.86699   0.00000  Uiso   1.00
N89    N     0.05883   0.56088   0.90242   0.00000  Uiso   1.00
N90    N     0.25521   0.28169   0.05127   0.00000  Uiso   1.00
N91    N     0.78918   0.92559   0.85623   0.00000  Uiso   1.00
N92    N     0.94141   0.60929   0.89166   0.00000  Uiso   1.00
C93    C     0.78965   0.28044   0.11137   0.00000  Uiso   1.00
C94    C     0.64603   0.26481   0.95734   0.00000  Uiso   1.00
C95    C     0.59067   0.27865   0.83383   0.00000  Uiso   1.00
C96    C     0.45750   0.26046   0.70304   0.00000  Uiso   1.00
C97    C     0.24589   0.24095   0.46492   0.00000  Uiso   1.00
C98    C     0.79318   0.36297   0.17918   0.00000  Uiso   1.00
C99    C     0.86156   0.45933   0.24220   0.00000  Uiso   1.00
C100   C     0.85226   0.52375   0.29816   0.00000  Uiso   1.00
C101   C     0.86919   0.65660   0.40453   0.00000  Uiso   1.00
C102   C     0.83512   0.17453   0.18892   0.00000  Uiso   1.00
C103   C     0.93878   0.11247   0.26017   0.00000  Uiso   1.00
C104   C     0.96482   0.01826   0.32436   0.00000  Uiso   1.00
C105   C     0.04686   0.85853   0.44587   0.00000  Uiso   1.00
C106   C     0.65158   0.22351   0.09872   0.00000  Uiso   1.00
C107   C     0.57104   0.23389   0.95048   0.00000  Uiso   1.00
C108   C     0.43791   0.21566   0.81984   0.00000  Uiso   1.00
C109   C     0.38237   0.22947   0.69615   0.00000  Uiso   1.00
C110   C     0.71819   0.33205   0.17231   0.00000  Uiso   1.00
C111   C     0.70880   0.39634   0.22820   0.00000  Uiso   1.00
C112   C     0.77714   0.49278   0.29128   0.00000  Uiso   1.00
C113   C     0.76012   0.14361   0.18205   0.00000  Uiso   1.00
C114   C     0.78601   0.04948   0.24616   0.00000  Uiso   1.00
C115   C     0.88969   0.98728   0.31748   0.00000  Uiso   1.00
H116   H     0.84804   0.30451   0.11672   0.00000  Uiso   1.00
H117   H     0.64874   0.30259   0.83919   0.00000  Uiso   1.00
H118   H     0.91959   0.48323   0.24751   0.00000  Uiso   1.00
H119   H     0.99680   0.13642   0.26546   0.00000  Uiso   1.00
H120   H     0.39470   0.28686   0.52847   0.00000  Uiso   1.00
H121   H     0.96584   0.66773   0.38946   0.00000  Uiso   1.00
H122   H     0.12865   0.93642   0.42733   0.00000  Uiso   1.00
H123   H     0.59319   0.19943   0.09338   0.00000  Uiso   1.00
H124   H     0.37990   0.19174   0.81455   0.00000  Uiso   1.00
H125   H     0.65076   0.37238   0.22287   0.00000  Uiso   1.00
H126   H     0.72796   0.02558   0.24083   0.00000  Uiso   1.00
H127   H     0.17650   0.19689   0.50847   0.00000  Uiso   1.00
H128   H     0.74765   0.57776   0.36947   0.00000  Uiso   1.00
H129   H     0.91045   0.84646   0.40734   0.00000  Uiso   1.00
O130   O     0.14989   0.23874   0.33547   0.00000  Uiso   1.00
O131   O     0.89923   0.73842   0.46509   0.00000  Uiso   1.00
O132   O     0.11282   0.77896   0.51476   0.00000  Uiso   1.00
N133   N     0.37262   0.26672   0.56203   0.00000  Uiso   1.00
N134   N     0.90659   0.62282   0.36699   0.00000  Uiso   1.00
N135   N     0.05883   0.93912   0.40242   0.00000  Uiso   1.00
N136   N     0.25521   0.21831   0.55127   0.00000  Uiso   1.00
N137   N     0.78918   0.57441   0.35623   0.00000  Uiso   1.00
N138   N     0.94141   0.89071   0.39166   0.00000  Uiso   1.00
C139   C     0.21035   0.78044   0.38863   0.00000  Uiso   1.00
C140   C     0.35397   0.76481   0.54266   0.00000  Uiso   1.00
C141   C     0.40933   0.77865   0.66617   0.00000  Uiso   1.00
C142   C     0.54250   0.76046   0.79696   0.00000  Uiso   1.00
C143   C     0.75411   0.74095   0.03508   0.00000  Uiso   1.00
C144   C     0.20682   0.86297   0.32082   0.00000  Uiso   1.00
C145   C     0.13844   0.95933   0.25780   0.00000  Uiso   1.00
C146   C     0.14774   0.02375   0.20184   0.00000  Uiso   1.00
C147   C     0.13081   0.15660   0.09547   0.00000  Uiso   1.00
C148   C     0.16488   0.67453   0.31108   0.00000  Uiso   1.00
C149   C     0.06122   0.61247   0.23983   0.00000  Uiso   1.00
C150   C     0.03518   0.51826   0.17564   0.00000  Uiso   1.00
C151   C     0.95314   0.35853   0.05413   0.00000  Uiso   1.00
C152   C     0.34842   0.72351   0.40128   0.00000  Uiso   1.00
C153   C     0.42896   0.73389   0.54952   0.00000  Uiso   1.00
C154   C     0.56209   0.71566   0.68016   0.00000  Uiso   1.00
C155   C     0.61763   0.72947   0.80385   0.00000  Uiso   1.00
C156   C     0.28181   0.83205   0.32769   0.00000  Uiso   1.00
C157   C     0.29120   0.89634   0.27180   0.00000  Uiso   1.00
C158   C     0.22286   0.99278   0.20872   0.00000  Uiso   1.00
C159   C     0.23988   0.64361   0.31795   0.00000  Uiso   1.00
C160   C     0.21399   0.54948   0.25384   0.00000  Uiso   1.00
C161   C     0.11031   0.48728   0.18252   0.00000  Uiso   1.00
H162   H     0.15196   0.80451   0.38328   0.00000  Uiso   1.00
H163   H     0.35126   0.80259   0.66081   0.00000  Uiso   1.00
H164   H     0.08041   0.98323   0.25249   0.00000  Uiso   1.00
H165   H     0.00320   0.63642   0.23454   0.00000  Uiso   1.00
H166   H     0.60530   0.78686   0.97153   0.00000  Uiso   1.00
H167   H     0.03416   0.16773   0.11054   0.00000  Uiso   1.00
H168   H     0.87135   0.43642   0.07267   0.00000  Uiso   1.00
H169   H     0.40681   0.69943   0.40662   0.00000  Uiso   1.00
H170   H     0.62010   0.69174   0.68545   0.00000  Uiso   1.00
H171   H     0.34924   0.87238   0.27713   0.00000  Uiso   1.00
H172   H     0.27204   0.52558   0.25917   0.00000  Uiso   1.00
H173   H     0.82350   0.69689   0.99153   0.00000  Uiso   1.00
H174   H     0.25235   0.07776   0.13053   0.00000  Uiso   1.00
H175   H     0.08955   0.34646   0.09266   0.00000  Uiso   1.00
O176   O     0.85011   0.73874   0.16453   0.00000  Uiso   1.00
O177   O     0.10077   0.23842   0.03491   0.00000  Uiso   1.00
O178   O     0.88718   0.27896   0.98524   0.00000  Uiso   1.00
N179   N     0.62738   0.76672   0.93797   0.00000  Uiso   1.00
N180   N     0.09341   0.12282   0.13301   0.00000  Uiso   1.00
N181   N     0.94117   0.43912   0.09758   0.00000  Uiso   1.00
N182   N     0.74479   0.71831   0.94873   0.00000  Uiso   1.00
N183   N     0.21082   0.07441   0.14377   0.00000  Uiso   1.00
N184   N     0.05859   0.39071   0.10834   0.00000  Uiso   1.00
