data_job_07066
_audit_creation_date              2018-12-19
_audit_creation_method            'Materials Studio'
_symmetry_space_group_name_H-M    'P1'
_symmetry_Int_Tables_number       1
_symmetry_cell_setting            triclinic
loop_
_symmetry_equiv_pos_as_xyz
  x,y,z
_cell_length_a                    19.3776
_cell_length_b                    21.0457
_cell_length_c                    23.0725
_cell_angle_alpha                 77.7821
_cell_angle_beta                  81.9214
_cell_angle_gamma                 71.2488
loop_
_atom_site_label
_atom_site_type_symbol
_atom_site_fract_x
_atom_site_fract_y
_atom_site_fract_z
_atom_site_U_iso_or_equiv
_atom_site_adp_type
_atom_site_occupancy
C1     C     0.12802   0.92925   0.27263   0.00000  Uiso   1.00
C2     C     0.04809   0.94997   0.29677   0.00000  Uiso   1.00
C3     C     0.01003   0.90582   0.32758   0.00000  Uiso   1.00
C4     C     0.93727   0.93481   0.34592   0.00000  Uiso   1.00
C5     C     0.81823   0.95624   0.38522   0.00000  Uiso   1.00
C6     C     0.12859   0.95822   0.20619   0.00000  Uiso   1.00
C7     C     0.15822   0.92102   0.16084   0.00000  Uiso   1.00
C8     C     0.15324   0.95696   0.10294   0.00000  Uiso   1.00
C9     C     0.15924   0.99122   0.00162   0.00000  Uiso   1.00
C10    C     0.16520   0.96861   0.29970   0.00000  Uiso   1.00
C11    C     0.22564   0.94015   0.33296   0.00000  Uiso   1.00
C12    C     0.25149   0.98484   0.35377   0.00000  Uiso   1.00
C13    C     0.31434   0.03523   0.39762   0.00000  Uiso   1.00
C14    C     0.06649   0.05921   0.25043   0.00000  Uiso   1.00
C15    C     0.01467   0.02056   0.28471   0.00000  Uiso   1.00
C16    C     0.94195   0.04962   0.30302   0.00000  Uiso   1.00
C17    C     0.90379   0.00553   0.33385   0.00000  Uiso   1.00
C18    C     0.09517   0.02882   0.19413   0.00000  Uiso   1.00
C19    C     0.09015   0.06482   0.13629   0.00000  Uiso   1.00
C20    C     0.11976   0.02769   0.09086   0.00000  Uiso   1.00
C21    C     0.13178   0.03921   0.28764   0.00000  Uiso   1.00
C22    C     0.15756   0.08395   0.30840   0.00000  Uiso   1.00
C23    C     0.21801   0.05556   0.34169   0.00000  Uiso   1.00
H24    H     0.15404   0.87429   0.28201   0.00000  Uiso   1.00
H25    H     0.03591   0.85119   0.33689   0.00000  Uiso   1.00
H26    H     0.18409   0.86640   0.17019   0.00000  Uiso   1.00
H27    H     0.25148   0.88552   0.34228   0.00000  Uiso   1.00
H28    H     0.89019   0.85672   0.39241   0.00000  Uiso   1.00
H29    H     0.20266   0.88878   0.04090   0.00000  Uiso   1.00
H30    H     0.34479   0.92911   0.40378   0.00000  Uiso   1.00
H31    H     0.04047   0.11418   0.24104   0.00000  Uiso   1.00
H32    H     0.91610   0.10425   0.29368   0.00000  Uiso   1.00
H33    H     0.06429   0.11945   0.12697   0.00000  Uiso   1.00
H34    H     0.13168   0.13858   0.29906   0.00000  Uiso   1.00
H35    H     0.79295   0.06211   0.35733   0.00000  Uiso   1.00
H36    H     0.10543   0.09417   0.00582   0.00000  Uiso   1.00
H37    H     0.24755   0.13450   0.36871   0.00000  Uiso   1.00
O38    O     0.76180   0.94856   0.41022   0.00000  Uiso   1.00
O39    O     0.17177   0.99061   0.94906   0.00000  Uiso   1.00
O40    O     0.35822   0.04352   0.42515   0.00000  Uiso   1.00
N41    N     0.88438   0.90643   0.37694   0.00000  Uiso   1.00
N42    N     0.17651   0.93639   0.04830   0.00000  Uiso   1.00
N43    N     0.30939   0.97410   0.38755   0.00000  Uiso   1.00
N44    N     0.83206   0.01695   0.35807   0.00000  Uiso   1.00
N45    N     0.12419   0.04691   0.02943   0.00000  Uiso   1.00
N46    N     0.25707   0.08462   0.36868   0.00000  Uiso   1.00
C47    C     0.09898   0.23490   0.92436   0.00000  Uiso   1.00
C48    C     0.15330   0.19520   0.97077   0.00000  Uiso   1.00
C49    C     0.21811   0.14440   0.96133   0.00000  Uiso   1.00
C50    C     0.26024   0.11423   0.00949   0.00000  Uiso   1.00
C51    C     0.34791   0.04953   0.07311   0.00000  Uiso   1.00
C52    C     0.02571   0.22467   0.95041   0.00000  Uiso   1.00
C53    C     0.98324   0.19865   0.92384   0.00000  Uiso   1.00
C54    C     0.91796   0.19330   0.95486   0.00000  Uiso   1.00
C55    C     0.80752   0.17438   0.98685   0.00000  Uiso   1.00
C56    C     0.09023   0.31002   0.92201   0.00000  Uiso   1.00
C57    C     0.10199   0.35579   0.87157   0.00000  Uiso   1.00
C58    C     0.09102   0.42230   0.87868   0.00000  Uiso   1.00
C59    C     0.08075   0.53592   0.86658   0.00000  Uiso   1.00
C60    C     0.05857   0.27166   0.02667   0.00000  Uiso   1.00
C61    C     0.13135   0.21516   0.02634   0.00000  Uiso   1.00
C62    C     0.17340   0.18507   0.07453   0.00000  Uiso   1.00
C63    C     0.23826   0.13424   0.06516   0.00000  Uiso   1.00
C64    C     0.00376   0.24463   0.00598   0.00000  Uiso   1.00
C65    C     0.93853   0.23932   0.03704   0.00000  Uiso   1.00
C66    C     0.89597   0.21330   0.01053   0.00000  Uiso   1.00
C67    C     0.06828   0.32999   0.97759   0.00000  Uiso   1.00
C68    C     0.05728   0.39645   0.98477   0.00000  Uiso   1.00
C69    C     0.06903   0.44230   0.93435   0.00000  Uiso   1.00
H70    H     0.11606   0.21936   0.88110   0.00000  Uiso   1.00
H71    H     0.23507   0.12896   0.91832   0.00000  Uiso   1.00
H72    H     0.00023   0.18321   0.88084   0.00000  Uiso   1.00
H73    H     0.11897   0.34032   0.82858   0.00000  Uiso   1.00
H74    H     0.35732   0.03753   0.98411   0.00000  Uiso   1.00
H75    H     0.86214   0.15194   0.90506   0.00000  Uiso   1.00
H76    H     0.11252   0.48323   0.79486   0.00000  Uiso   1.00
H77    H     0.04148   0.28720   0.06994   0.00000  Uiso   1.00
H78    H     0.15640   0.20053   0.11753   0.00000  Uiso   1.00
H79    H     0.92156   0.25477   0.08004   0.00000  Uiso   1.00
H80    H     0.04030   0.41188   0.02778   0.00000  Uiso   1.00
H81    H     0.29346   0.09561   0.14579   0.00000  Uiso   1.00
H82    H     0.79829   0.21002   0.06674   0.00000  Uiso   1.00
H83    H     0.04867   0.54131   0.95654   0.00000  Uiso   1.00
O84    O     0.40232   0.00831   0.09286   0.00000  Uiso   1.00
O85    O     0.75267   0.15843   0.98914   0.00000  Uiso   1.00
O86    O     0.08117   0.59307   0.84456   0.00000  Uiso   1.00
N87    N     0.32653   0.06310   0.01563   0.00000  Uiso   1.00
N88    N     0.86357   0.17006   0.94172   0.00000  Uiso   1.00
N89    N     0.09764   0.47979   0.83869   0.00000  Uiso   1.00
N90    N     0.29217   0.09436   0.10263   0.00000  Uiso   1.00
N91    N     0.82921   0.20131   0.02872   0.00000  Uiso   1.00
N92    N     0.06328   0.51105   0.92569   0.00000  Uiso   1.00
C93    C     0.71822   0.21674   0.24057   0.00000  Uiso   1.00
C94    C     0.71115   0.28868   0.20636   0.00000  Uiso   1.00
C95    C     0.64721   0.33610   0.18580   0.00000  Uiso   1.00
C96    C     0.65213   0.39911   0.15545   0.00000  Uiso   1.00
C97    C     0.63104   0.50853   0.10374   0.00000  Uiso   1.00
C98    C     0.77663   0.16886   0.20501   0.00000  Uiso   1.00
C99    C     0.76774   0.11552   0.18332   0.00000  Uiso   1.00
C100   C     0.82779   0.07766   0.15184   0.00000  Uiso   1.00
C101   C     0.90838   0.00101   0.09807   0.00000  Uiso   1.00
C102   C     0.75080   0.21158   0.29845   0.00000  Uiso   1.00
C103   C     0.72020   0.19415   0.35534   0.00000  Uiso   1.00
C104   C     0.75851   0.19225   0.40253   0.00000  Uiso   1.00
C105   C     0.79898   0.18194   0.49384   0.00000  Uiso   1.00
C106   C     0.84067   0.24433   0.22323   0.00000  Uiso   1.00
C107   C     0.77766   0.30366   0.19694   0.00000  Uiso   1.00
C108   C     0.78268   0.36662   0.16662   0.00000  Uiso   1.00
C109   C     0.71876   0.41413   0.14602   0.00000  Uiso   1.00
C110   C     0.84314   0.18384   0.19559   0.00000  Uiso   1.00
C111   C     0.90322   0.14605   0.16414   0.00000  Uiso   1.00
C112   C     0.89442   0.09267   0.14241   0.00000  Uiso   1.00
C113   C     0.81731   0.22657   0.28903   0.00000  Uiso   1.00
C114   C     0.85567   0.22468   0.33615   0.00000  Uiso   1.00
C115   C     0.82514   0.20726   0.39309   0.00000  Uiso   1.00
H116   H     0.66645   0.20507   0.24790   0.00000  Uiso   1.00
H117   H     0.59575   0.32448   0.19310   0.00000  Uiso   1.00
H118   H     0.71627   0.10393   0.19063   0.00000  Uiso   1.00
H119   H     0.66873   0.18256   0.36261   0.00000  Uiso   1.00
H120   H     0.54671   0.46347   0.12816   0.00000  Uiso   1.00
H121   H     0.80084   0.99842   0.12297   0.00000  Uiso   1.00
H122   H     0.70060   0.16422   0.48563   0.00000  Uiso   1.00
H123   H     0.89245   0.25599   0.21589   0.00000  Uiso   1.00
H124   H     0.83416   0.37820   0.15933   0.00000  Uiso   1.00
H125   H     0.95468   0.15766   0.15686   0.00000  Uiso   1.00
H126   H     0.90714   0.23628   0.32884   0.00000  Uiso   1.00
H127   H     0.74021   0.50707   0.10075   0.00000  Uiso   1.00
H128   H     0.99434   0.04202   0.09556   0.00000  Uiso   1.00
H129   H     0.89410   0.20782   0.45822   0.00000  Uiso   1.00
O130   O     0.60104   0.56474   0.07781   0.00000  Uiso   1.00
O131   O     0.93445   0.95460   0.07101   0.00000  Uiso   1.00
O132   O     0.80293   0.17213   0.54681   0.00000  Uiso   1.00
N133   N     0.60025   0.45696   0.12949   0.00000  Uiso   1.00
N134   N     0.83784   0.02218   0.12462   0.00000  Uiso   1.00
N135   N     0.74413   0.17717   0.46368   0.00000  Uiso   1.00
N136   N     0.70437   0.48043   0.11474   0.00000  Uiso   1.00
N137   N     0.94196   0.04564   0.10987   0.00000  Uiso   1.00
N138   N     0.84825   0.20063   0.44893   0.00000  Uiso   1.00
C139   C     0.49306   0.75143   0.53181   0.00000  Uiso   1.00
C140   C     0.47079   0.78427   0.58722   0.00000  Uiso   1.00
C141   C     0.41024   0.83998   0.59472   0.00000  Uiso   1.00
C142   C     0.39932   0.86236   0.64870   0.00000  Uiso   1.00
C143   C     0.35742   0.91823   0.72792   0.00000  Uiso   1.00
C144   C     0.49780   0.67650   0.55273   0.00000  Uiso   1.00
C145   C     0.45996   0.64160   0.53122   0.00000  Uiso   1.00
C146   C     0.47178   0.57325   0.55616   0.00000  Uiso   1.00
C147   C     0.47185   0.46179   0.58181   0.00000  Uiso   1.00
C148   C     0.57110   0.75284   0.51204   0.00000  Uiso   1.00
C149   C     0.59491   0.78212   0.45632   0.00000  Uiso   1.00
C150   C     0.66846   0.77804   0.44700   0.00000  Uiso   1.00
C151   C     0.78235   0.78512   0.40948   0.00000  Uiso   1.00
C152   C     0.58136   0.69209   0.61433   0.00000  Uiso   1.00
C153   C     0.51875   0.75204   0.63204   0.00000  Uiso   1.00
C154   C     0.50793   0.77433   0.68602   0.00000  Uiso   1.00
C155   C     0.44737   0.83007   0.69360   0.00000  Uiso   1.00
C156   C     0.54575   0.64427   0.59755   0.00000  Uiso   1.00
C157   C     0.55764   0.57595   0.62252   0.00000  Uiso   1.00
C158   C     0.51983   0.54096   0.60106   0.00000  Uiso   1.00
C159   C     0.61906   0.72062   0.55686   0.00000  Uiso   1.00
C160   C     0.69260   0.71648   0.54763   0.00000  Uiso   1.00
C161   C     0.71651   0.74575   0.49190   0.00000  Uiso   1.00
H162   H     0.45573   0.77651   0.49691   0.00000  Uiso   1.00
H163   H     0.37313   0.86491   0.56002   0.00000  Uiso   1.00
H164   H     0.42285   0.66655   0.49653   0.00000  Uiso   1.00
H165   H     0.55778   0.80706   0.42164   0.00000  Uiso   1.00
H166   H     0.30270   0.94868   0.64976   0.00000  Uiso   1.00
H167   H     0.40755   0.53043   0.51587   0.00000  Uiso   1.00
H168   H     0.69208   0.82671   0.35796   0.00000  Uiso   1.00
H169   H     0.61870   0.66699   0.64923   0.00000  Uiso   1.00
H170   H     0.54505   0.74938   0.72070   0.00000  Uiso   1.00
H171   H     0.59476   0.55102   0.65721   0.00000  Uiso   1.00
H172   H     0.72969   0.69153   0.58232   0.00000  Uiso   1.00
H173   H     0.44223   0.85491   0.78018   0.00000  Uiso   1.00
H174   H     0.54708   0.43666   0.64628   0.00000  Uiso   1.00
H175   H     0.83161   0.73295   0.48837   0.00000  Uiso   1.00
O176   O     0.32106   0.95795   0.75924   0.00000  Uiso   1.00
O177   O     0.45863   0.40922   0.58357   0.00000  Uiso   1.00
O178   O     0.83192   0.79795   0.37640   0.00000  Uiso   1.00
N179   N     0.34565   0.91531   0.67064   0.00000  Uiso   1.00
N180   N     0.44367   0.52428   0.54547   0.00000  Uiso   1.00
N181   N     0.70969   0.80126   0.39783   0.00000  Uiso   1.00
N182   N     0.42073   0.86486   0.74082   0.00000  Uiso   1.00
N183   N     0.51875   0.47382   0.61565   0.00000  Uiso   1.00
N184   N     0.78477   0.75081   0.46800   0.00000  Uiso   1.00
C185   C     0.52621   0.31498   0.80040   0.00000  Uiso   1.00
C186   C     0.58633   0.33381   0.75679   0.00000  Uiso   1.00
C187   C     0.63160   0.29413   0.71725   0.00000  Uiso   1.00
C188   C     0.68319   0.32039   0.68106   0.00000  Uiso   1.00
C189   C     0.77560   0.33996   0.61281   0.00000  Uiso   1.00
C190   C     0.45614   0.37300   0.78673   0.00000  Uiso   1.00
C191   C     0.39195   0.36627   0.77238   0.00000  Uiso   1.00
C192   C     0.33395   0.42552   0.76141   0.00000  Uiso   1.00
C193   C     0.22422   0.50593   0.73970   0.00000  Uiso   1.00
C194   C     0.54378   0.31847   0.86183   0.00000  Uiso   1.00
C195   C     0.55326   0.26588   0.91062   0.00000  Uiso   1.00
C196   C     0.56902   0.27922   0.96287   0.00000  Uiso   1.00
C197   C     0.59537   0.27495   0.05775   0.00000  Uiso   1.00
C198   C     0.53734   0.43220   0.80645   0.00000  Uiso   1.00
C199   C     0.59238   0.39748   0.76007   0.00000  Uiso   1.00
C200   C     0.64392   0.42381   0.72393   0.00000  Uiso   1.00
C201   C     0.68926   0.38417   0.68435   0.00000  Uiso   1.00
C202   C     0.46219   0.43667   0.79002   0.00000  Uiso   1.00
C203   C     0.40427   0.49595   0.77907   0.00000  Uiso   1.00
C204   C     0.34001   0.48930   0.76470   0.00000  Uiso   1.00
C205   C     0.54983   0.38213   0.86511   0.00000  Uiso   1.00
C206   C     0.56558   0.39556   0.91730   0.00000  Uiso   1.00
C207   C     0.57508   0.34300   0.96616   0.00000  Uiso   1.00
H208   H     0.52150   0.26542   0.79785   0.00000  Uiso   1.00
H209   H     0.62690   0.24486   0.71472   0.00000  Uiso   1.00
H210   H     0.38729   0.31699   0.76985   0.00000  Uiso   1.00
H211   H     0.54857   0.21662   0.90806   0.00000  Uiso   1.00
H212   H     0.74640   0.25016   0.62398   0.00000  Uiso   1.00
H213   H     0.24116   0.40224   0.74026   0.00000  Uiso   1.00
H214   H     0.58126   0.19058   0.03170   0.00000  Uiso   1.00
H215   H     0.54205   0.48177   0.80900   0.00000  Uiso   1.00
H216   H     0.64858   0.47308   0.72648   0.00000  Uiso   1.00
H217   H     0.40897   0.54521   0.78161   0.00000  Uiso   1.00
H218   H     0.57025   0.44484   0.91982   0.00000  Uiso   1.00
H219   H     0.76400   0.43539   0.63353   0.00000  Uiso   1.00
H220   H     0.25875   0.58747   0.74981   0.00000  Uiso   1.00
H221   H     0.59886   0.37582   0.04125   0.00000  Uiso   1.00
O222   O     0.82489   0.33317   0.57425   0.00000  Uiso   1.00
O223   O     0.16203   0.53269   0.72681   0.00000  Uiso   1.00
O224   O     0.60824   0.25500   0.10918   0.00000  Uiso   1.00
N225   N     0.73593   0.29494   0.63756   0.00000  Uiso   1.00
N226   N     0.26356   0.43713   0.74626   0.00000  Uiso   1.00
N227   N     0.58151   0.23925   0.01874   0.00000  Uiso   1.00
N228   N     0.74540   0.39461   0.64270   0.00000  Uiso   1.00
N229   N     0.27303   0.53680   0.75140   0.00000  Uiso   1.00
N230   N     0.59098   0.33892   0.02388   0.00000  Uiso   1.00
C231   C     0.21865   0.74927   0.84923   0.00000  Uiso   1.00
C232   C     0.23334   0.67806   0.88687   0.00000  Uiso   1.00
C233   C     0.18196   0.65286   0.92443   0.00000  Uiso   1.00
C234   C     0.20626   0.58641   0.95499   0.00000  Uiso   1.00
C235   C     0.21794   0.48188   0.01444   0.00000  Uiso   1.00
C236   C     0.24322   0.73893   0.78524   0.00000  Uiso   1.00
C237   C     0.20015   0.76492   0.73736   0.00000  Uiso   1.00
C238   C     0.23278   0.74971   0.68238   0.00000  Uiso   1.00
C239   C     0.25981   0.73971   0.58405   0.00000  Uiso   1.00
C240   C     0.27160   0.78065   0.86701   0.00000  Uiso   1.00
C241   C     0.25239   0.84172   0.88786   0.00000  Uiso   1.00
C242   C     0.30892   0.86165   0.90170   0.00000  Uiso   1.00
C243   C     0.38001   0.91643   0.93032   0.00000  Uiso   1.00
C244   C     0.35319   0.67606   0.83673   0.00000  Uiso   1.00
C245   C     0.30641   0.63829   0.88007   0.00000  Uiso   1.00
C246   C     0.33080   0.57186   0.91059   0.00000  Uiso   1.00
C247   C     0.27946   0.54657   0.94819   0.00000  Uiso   1.00
C248   C     0.31629   0.69916   0.77845   0.00000  Uiso   1.00
C249   C     0.34899   0.68391   0.72353   0.00000  Uiso   1.00
C250   C     0.30598   0.70987   0.67558   0.00000  Uiso   1.00
C251   C     0.34467   0.74088   0.86022   0.00000  Uiso   1.00
C252   C     0.40124   0.76072   0.87403   0.00000  Uiso   1.00
C253   C     0.38212   0.82181   0.89490   0.00000  Uiso   1.00
H254   H     0.16176   0.78023   0.85452   0.00000  Uiso   1.00
H255   H     0.12541   0.68365   0.92967   0.00000  Uiso   1.00
H256   H     0.14360   0.79569   0.74263   0.00000  Uiso   1.00
H257   H     0.19584   0.87248   0.89311   0.00000  Uiso   1.00
H258   H     0.11732   0.55903   0.00997   0.00000  Uiso   1.00
H259   H     0.15569   0.79530   0.61560   0.00000  Uiso   1.00
H260   H     0.26584   0.95722   0.93290   0.00000  Uiso   1.00
H261   H     0.41008   0.64510   0.83144   0.00000  Uiso   1.00
H262   H     0.38735   0.54110   0.90533   0.00000  Uiso   1.00
H263   H     0.40554   0.65314   0.71829   0.00000  Uiso   1.00
H264   H     0.45778   0.72993   0.86876   0.00000  Uiso   1.00
H265   H     0.32992   0.44333   0.99022   0.00000  Uiso   1.00
H266   H     0.36829   0.67960   0.59583   0.00000  Uiso   1.00
H267   H     0.47844   0.84152   0.91314   0.00000  Uiso   1.00
O268   O     0.20419   0.43520   0.04910   0.00000  Uiso   1.00
O269   O     0.25453   0.74518   0.53169   0.00000  Uiso   1.00
O270   O     0.39904   0.95762   0.94799   0.00000  Uiso   1.00
N271   N     0.17048   0.54608   0.99519   0.00000  Uiso   1.00
N272   N     0.20635   0.76696   0.62647   0.00000  Uiso   1.00
N273   N     0.30933   0.91836   0.92311   0.00000  Uiso   1.00
N274   N     0.28488   0.48382   0.98456   0.00000  Uiso   1.00
N275   N     0.32075   0.70471   0.61584   0.00000  Uiso   1.00
N276   N     0.42373   0.85610   0.91248   0.00000  Uiso   1.00
C277   C     0.58968   0.10646   0.79882   0.00000  Uiso   1.00
C278   C     0.63279   0.06934   0.74890   0.00000  Uiso   1.00
C279   C     0.67106   0.09670   0.69983   0.00000  Uiso   1.00
C280   C     0.70698   0.05447   0.65914   0.00000  Uiso   1.00
C281   C     0.77430   0.00704   0.58041   0.00000  Uiso   1.00
C282   C     0.62120   0.06301   0.85633   0.00000  Uiso   1.00
C283   C     0.64972   0.08505   0.89759   0.00000  Uiso   1.00
C284   C     0.67588   0.03749   0.94735   0.00000  Uiso   1.00
C285   C     0.72516   0.98024   0.03543   0.00000  Uiso   1.00
C286   C     0.51215   0.10228   0.80151   0.00000  Uiso   1.00
C287   C     0.44896   0.15735   0.79668   0.00000  Uiso   1.00
C288   C     0.38330   0.14285   0.80029   0.00000  Uiso   1.00
C289   C     0.26325   0.14659   0.80324   0.00000  Uiso   1.00
C290   C     0.58544   0.98280   0.81382   0.00000  Uiso   1.00
C291   C     0.63049   0.00217   0.75705   0.00000  Uiso   1.00
C292   C     0.66636   0.95989   0.71643   0.00000  Uiso   1.00
C293   C     0.70467   0.98718   0.66730   0.00000  Uiso   1.00
C294   C     0.61890   0.99584   0.86448   0.00000  Uiso   1.00
C295   C     0.64502   0.94824   0.91419   0.00000  Uiso   1.00
C296   C     0.67357   0.97020   0.95551   0.00000  Uiso   1.00
C297   C     0.50984   0.03512   0.80965   0.00000  Uiso   1.00
C298   C     0.44427   0.02053   0.81328   0.00000  Uiso   1.00
C299   C     0.38099   0.07556   0.80845   0.00000  Uiso   1.00
H300   H     0.59148   0.15875   0.79248   0.00000  Uiso   1.00
H301   H     0.67283   0.14868   0.69354   0.00000  Uiso   1.00
H302   H     0.65149   0.13703   0.89128   0.00000  Uiso   1.00
H303   H     0.45076   0.20932   0.79038   0.00000  Uiso   1.00
H304   H     0.76204   0.10789   0.58745   0.00000  Uiso   1.00
H305   H     0.71700   0.08333   0.00440   0.00000  Uiso   1.00
H306   H     0.29374   0.23576   0.79164   0.00000  Uiso   1.00
H307   H     0.58364   0.93051   0.82017   0.00000  Uiso   1.00
H308   H     0.66457   0.90791   0.72274   0.00000  Uiso   1.00
H309   H     0.64323   0.89627   0.92048   0.00000  Uiso   1.00
H310   H     0.44250   0.96855   0.81958   0.00000  Uiso   1.00
H311   H     0.75533   0.91247   0.61116   0.00000  Uiso   1.00
H312   H     0.71030   0.88792   0.02811   0.00000  Uiso   1.00
H313   H     0.28703   0.04035   0.81534   0.00000  Uiso   1.00
O314   O     0.81208   0.99943   0.53473   0.00000  Uiso   1.00
O315   O     0.75299   0.96722   0.08175   0.00000  Uiso   1.00
O316   O     0.19767   0.16720   0.80261   0.00000  Uiso   1.00
N317   N     0.74934   0.06500   0.60640   0.00000  Uiso   1.00
N318   N     0.70725   0.04204   0.99621   0.00000  Uiso   1.00
N319   N     0.31153   0.18455   0.79731   0.00000  Uiso   1.00
N320   N     0.74573   0.95985   0.61915   0.00000  Uiso   1.00
N321   N     0.70364   0.93689   0.00897   0.00000  Uiso   1.00
N322   N     0.30792   0.07940   0.81007   0.00000  Uiso   1.00
C323   C     0.78761   0.79567   0.20576   0.00000  Uiso   1.00
C324   C     0.71379   0.84948   0.19545   0.00000  Uiso   1.00
C325   C     0.68369   0.90496   0.22424   0.00000  Uiso   1.00
C326   C     0.61556   0.94836   0.20853   0.00000  Uiso   1.00
C327   C     0.50653   0.03372   0.19905   0.00000  Uiso   1.00
C328   C     0.83072   0.79551   0.14514   0.00000  Uiso   1.00
C329   C     0.89893   0.80560   0.13163   0.00000  Uiso   1.00
C330   C     0.92923   0.80355   0.07358   0.00000  Uiso   1.00
C331   C     0.00176   0.80507   0.98600   0.00000  Uiso   1.00
C332   C     0.77208   0.72722   0.22248   0.00000  Uiso   1.00
C333   C     0.79101   0.67988   0.27399   0.00000  Uiso   1.00
C334   C     0.77196   0.62033   0.28104   0.00000  Uiso   1.00
C335   C     0.75344   0.51582   0.31354   0.00000  Uiso   1.00
C336   C     0.72013   0.77408   0.12668   0.00000  Uiso   1.00
C337   C     0.67714   0.83776   0.15250   0.00000  Uiso   1.00
C338   C     0.60903   0.88108   0.13675   0.00000  Uiso   1.00
C339   C     0.57884   0.93661   0.16551   0.00000  Uiso   1.00
C340   C     0.79407   0.78379   0.10219   0.00000  Uiso   1.00
C341   C     0.82427   0.78172   0.04415   0.00000  Uiso   1.00
C342   C     0.89251   0.79181   0.03055   0.00000  Uiso   1.00
C343   C     0.73543   0.71550   0.17953   0.00000  Uiso   1.00
C344   C     0.71635   0.65600   0.18651   0.00000  Uiso   1.00
C345   C     0.73524   0.60858   0.23802   0.00000  Uiso   1.00
H346   H     0.81615   0.80479   0.23919   0.00000  Uiso   1.00
H347   H     0.71208   0.91402   0.25747   0.00000  Uiso   1.00
H348   H     0.92729   0.81466   0.16488   0.00000  Uiso   1.00
H349   H     0.81938   0.68897   0.30721   0.00000  Uiso   1.00
H350   H     0.58055   0.02996   0.25877   0.00000  Uiso   1.00
H351   H     0.03433   0.82044   0.06355   0.00000  Uiso   1.00
H352   H     0.80679   0.55538   0.36370   0.00000  Uiso   1.00
H353   H     0.69160   0.76496   0.09324   0.00000  Uiso   1.00
H354   H     0.58068   0.87200   0.10351   0.00000  Uiso   1.00
H355   H     0.79590   0.77264   0.01092   0.00000  Uiso   1.00
H356   H     0.68799   0.64695   0.15326   0.00000  Uiso   1.00
H357   H     0.47390   0.99585   0.13382   0.00000  Uiso   1.00
H358   H     0.92770   0.78633   0.93860   0.00000  Uiso   1.00
H359   H     0.70015   0.52128   0.23874   0.00000  Uiso   1.00
O360   O     0.45652   0.08405   0.20567   0.00000  Uiso   1.00
O361   O     0.05188   0.80916   0.94955   0.00000  Uiso   1.00
O362   O     0.75335   0.46142   0.34333   0.00000  Uiso   1.00
N363   N     0.57066   0.00723   0.22797   0.00000  Uiso   1.00
N364   N     0.99492   0.81136   0.04544   0.00000  Uiso   1.00
N365   N     0.78221   0.56355   0.32604   0.00000  Uiso   1.00
N366   N     0.51328   0.98888   0.16073   0.00000  Uiso   1.00
N367   N     0.93754   0.79301   0.97820   0.00000  Uiso   1.00
N368   N     0.72482   0.54519   0.25881   0.00000  Uiso   1.00
C369   C     0.94048   0.75552   0.81866   0.00000  Uiso   1.00
C370   C     0.89455   0.72264   0.86751   0.00000  Uiso   1.00
C371   C     0.92153   0.66806   0.91234   0.00000  Uiso   1.00
C372   C     0.87056   0.64543   0.95277   0.00000  Uiso   1.00
C373   C     0.81069   0.58970   0.02930   0.00000  Uiso   1.00
C374   C     0.91648   0.83092   0.82309   0.00000  Uiso   1.00
C375   C     0.96191   0.86737   0.83058   0.00000  Uiso   1.00
C376   C     0.92940   0.93590   0.83361   0.00000  Uiso   1.00
C377   C     0.90359   0.04827   0.84114   0.00000  Uiso   1.00
C378   C     0.91551   0.75199   0.75994   0.00000  Uiso   1.00
C379   C     0.96011   0.72211   0.71431   0.00000  Uiso   1.00
C380   C     0.92679   0.72420   0.66416   0.00000  Uiso   1.00
C381   C     0.89946   0.71404   0.57362   0.00000  Uiso   1.00
C382   C     0.80199   0.81240   0.81073   0.00000  Uiso   1.00
C383   C     0.81933   0.75354   0.86320   0.00000  Uiso   1.00
C384   C     0.76831   0.73099   0.90357   0.00000  Uiso   1.00
C385   C     0.79521   0.67638   0.94846   0.00000  Uiso   1.00
C386   C     0.84127   0.86181   0.81879   0.00000  Uiso   1.00
C387   C     0.80869   0.93030   0.82180   0.00000  Uiso   1.00
C388   C     0.85405   0.96685   0.82929   0.00000  Uiso   1.00
C389   C     0.84029   0.78289   0.75563   0.00000  Uiso   1.00
C390   C     0.80689   0.78503   0.70554   0.00000  Uiso   1.00
C391   C     0.85143   0.75515   0.65984   0.00000  Uiso   1.00
H392   H     0.99904   0.73148   0.82201   0.00000  Uiso   1.00
H393   H     0.97974   0.64417   0.91567   0.00000  Uiso   1.00
H394   H     0.02011   0.84345   0.83390   0.00000  Uiso   1.00
H395   H     0.01832   0.69821   0.71765   0.00000  Uiso   1.00
H396   H     0.92517   0.56101   0.01761   0.00000  Uiso   1.00
H397   H     0.01030   0.98122   0.84519   0.00000  Uiso   1.00
H398   H     0.00652   0.67494   0.60006   0.00000  Uiso   1.00
H399   H     0.74343   0.83645   0.80737   0.00000  Uiso   1.00
H400   H     0.71010   0.75490   0.90023   0.00000  Uiso   1.00
H401   H     0.75048   0.95419   0.81847   0.00000  Uiso   1.00
H402   H     0.74868   0.80894   0.70222   0.00000  Uiso   1.00
H403   H     0.70633   0.65089   0.00509   0.00000  Uiso   1.00
H404   H     0.79146   0.07110   0.83266   0.00000  Uiso   1.00
H405   H     0.78767   0.76482   0.58753   0.00000  Uiso   1.00
O406   O     0.79844   0.55043   0.07271   0.00000  Uiso   1.00
O407   O     0.91013   0.10172   0.84649   0.00000  Uiso   1.00
O408   O     0.90516   0.69989   0.52488   0.00000  Uiso   1.00
N409   N     0.87824   0.59335   0.00192   0.00000  Uiso   1.00
N410   N     0.95783   0.98621   0.84072   0.00000  Uiso   1.00
N411   N     0.95429   0.69988   0.61154   0.00000  Uiso   1.00
N412   N     0.76048   0.64171   0.99517   0.00000  Uiso   1.00
N413   N     0.84007   0.03458   0.83398   0.00000  Uiso   1.00
N414   N     0.83653   0.74825   0.60479   0.00000  Uiso   1.00
C415   C     0.13534   0.24870   0.66484   0.00000  Uiso   1.00
C416   C     0.19837   0.20567   0.62881   0.00000  Uiso   1.00
C417   C     0.26379   0.16239   0.65032   0.00000  Uiso   1.00
C418   C     0.31453   0.12750   0.61027   0.00000  Uiso   1.00
C419   C     0.41458   0.05946   0.56336   0.00000  Uiso   1.00
C420   C     0.12147   0.32214   0.63220   0.00000  Uiso   1.00
C421   C     0.12222   0.37680   0.65656   0.00000  Uiso   1.00
C422   C     0.10821   0.43995   0.61936   0.00000  Uiso   1.00
C423   C     0.08882   0.55276   0.57772   0.00000  Uiso   1.00
C424   C     0.06822   0.22858   0.65855   0.00000  Uiso   1.00
C425   C     0.02418   0.20458   0.70509   0.00000  Uiso   1.00
C426   C     0.96533   0.18898   0.69008   0.00000  Uiso   1.00
C427   C     0.86327   0.15650   0.68936   0.00000  Uiso   1.00
C428   C     0.10913   0.26369   0.55545   0.00000  Uiso   1.00
C429   C     0.18414   0.21381   0.56939   0.00000  Uiso   1.00
C430   C     0.23479   0.17897   0.52930   0.00000  Uiso   1.00
C431   C     0.30027   0.13565   0.55075   0.00000  Uiso   1.00
C432   C     0.10724   0.33028   0.57278   0.00000  Uiso   1.00
C433   C     0.09322   0.39337   0.53554   0.00000  Uiso   1.00
C434   C     0.09395   0.44811   0.55984   0.00000  Uiso   1.00
C435   C     0.05399   0.23671   0.59914   0.00000  Uiso   1.00
C436   C     0.99519   0.22115   0.58406   0.00000  Uiso   1.00
C437   C     0.95107   0.19713   0.63056   0.00000  Uiso   1.00
H438   H     0.14642   0.24237   0.71110   0.00000  Uiso   1.00
H439   H     0.27478   0.15611   0.69631   0.00000  Uiso   1.00
H440   H     0.13323   0.37048   0.70255   0.00000  Uiso   1.00
H441   H     0.03521   0.19829   0.75106   0.00000  Uiso   1.00
H442   H     0.41083   0.06409   0.65370   0.00000  Uiso   1.00
H443   H     0.11233   0.51610   0.66686   0.00000  Uiso   1.00
H444   H     0.90564   0.15300   0.76916   0.00000  Uiso   1.00
H445   H     0.09805   0.27003   0.50919   0.00000  Uiso   1.00
H446   H     0.22376   0.18528   0.48332   0.00000  Uiso   1.00
H447   H     0.08221   0.39965   0.48956   0.00000  Uiso   1.00
H448   H     0.98419   0.22746   0.53807   0.00000  Uiso   1.00
H449   H     0.36942   0.08776   0.48083   0.00000  Uiso   1.00
H450   H     0.07092   0.53978   0.49400   0.00000  Uiso   1.00
H451   H     0.86423   0.17667   0.59629   0.00000  Uiso   1.00
O452   O     0.47371   0.01969   0.55389   0.00000  Uiso   1.00
O453   O     0.08207   0.61272   0.57116   0.00000  Uiso   1.00
O454   O     0.81091   0.13633   0.70537   0.00000  Uiso   1.00
N455   N     0.38383   0.08128   0.61657   0.00000  Uiso   1.00
N456   N     0.10476   0.50389   0.62887   0.00000  Uiso   1.00
N457   N     0.91151   0.16443   0.72451   0.00000  Uiso   1.00
N458   N     0.36155   0.09402   0.52355   0.00000  Uiso   1.00
N459   N     0.08247   0.51662   0.53586   0.00000  Uiso   1.00
N460   N     0.88923   0.17717   0.63150   0.00000  Uiso   1.00
C461   C     0.00673   0.60801   0.34603   0.00000  Uiso   1.00
C462   C     0.95903   0.57086   0.38894   0.00000  Uiso   1.00
C463   C     0.89317   0.60158   0.41859   0.00000  Uiso   1.00
C464   C     0.85784   0.55869   0.45592   0.00000  Uiso   1.00
C465   C     0.77930   0.51182   0.52144   0.00000  Uiso   1.00
C466   C     0.08182   0.58214   0.37055   0.00000  Uiso   1.00
C467   C     0.11922   0.62235   0.38473   0.00000  Uiso   1.00
C468   C     0.18727   0.58896   0.40658   0.00000  Uiso   1.00
C469   C     0.29939   0.55961   0.44351   0.00000  Uiso   1.00
C470   C     0.01660   0.58139   0.28792   0.00000  Uiso   1.00
C471   C     0.99917   0.62097   0.23262   0.00000  Uiso   1.00
C472   C     0.01233   0.58694   0.18489   0.00000  Uiso   1.00
C473   C     0.02318   0.55643   0.09352   0.00000  Uiso   1.00
C474   C     0.06110   0.47722   0.35960   0.00000  Uiso   1.00
C475   C     0.98856   0.49982   0.39631   0.00000  Uiso   1.00
C476   C     0.95332   0.45688   0.43360   0.00000  Uiso   1.00
C477   C     0.88742   0.48752   0.46330   0.00000  Uiso   1.00
C478   C     0.11135   0.51111   0.37792   0.00000  Uiso   1.00
C479   C     0.17937   0.47765   0.39974   0.00000  Uiso   1.00
C480   C     0.21685   0.51780   0.41396   0.00000  Uiso   1.00
C481   C     0.04613   0.51036   0.29529   0.00000  Uiso   1.00
C482   C     0.05932   0.47627   0.24763   0.00000  Uiso   1.00
C483   C     0.04191   0.51578   0.19227   0.00000  Uiso   1.00
H484   H     0.98374   0.66331   0.34030   0.00000  Uiso   1.00
H485   H     0.87034   0.65655   0.41288   0.00000  Uiso   1.00
H486   H     0.09635   0.67732   0.37902   0.00000  Uiso   1.00
H487   H     0.97632   0.67594   0.22694   0.00000  Uiso   1.00
H488   H     0.75764   0.61773   0.49662   0.00000  Uiso   1.00
H489   H     0.23422   0.66153   0.42520   0.00000  Uiso   1.00
H490   H     0.98112   0.65861   0.10450   0.00000  Uiso   1.00
H491   H     0.08409   0.42192   0.36534   0.00000  Uiso   1.00
H492   H     0.97619   0.40191   0.43929   0.00000  Uiso   1.00
H493   H     0.20220   0.42268   0.40543   0.00000  Uiso   1.00
H494   H     0.08217   0.42129   0.25335   0.00000  Uiso   1.00
H495   H     0.84356   0.41105   0.51806   0.00000  Uiso   1.00
H496   H     0.32013   0.45485   0.44664   0.00000  Uiso   1.00
H497   H     0.06703   0.45193   0.12594   0.00000  Uiso   1.00
O498   O     0.72782   0.50559   0.55555   0.00000  Uiso   1.00
O499   O     0.35307   0.56305   0.46185   0.00000  Uiso   1.00
O500   O     0.02100   0.55922   0.04109   0.00000  Uiso   1.00
N501   N     0.79266   0.57183   0.49151   0.00000  Uiso   1.00
N502   N     0.23823   0.61278   0.42475   0.00000  Uiso   1.00
N503   N     0.00162   0.61005   0.12491   0.00000  Uiso   1.00
N504   N     0.83889   0.46062   0.50304   0.00000  Uiso   1.00
N505   N     0.28446   0.50157   0.43628   0.00000  Uiso   1.00
N506   N     0.04784   0.49884   0.13645   0.00000  Uiso   1.00
C507   C     0.55043   0.23282   0.46508   0.00000  Uiso   1.00
C508   C     0.54525   0.29372   0.41465   0.00000  Uiso   1.00
C509   C     0.59726   0.32793   0.39722   0.00000  Uiso   1.00
C510   C     0.58231   0.38239   0.35009   0.00000  Uiso   1.00
C511   C     0.58408   0.47401   0.27616   0.00000  Uiso   1.00
C512   C     0.48209   0.25323   0.50703   0.00000  Uiso   1.00
C513   C     0.48099   0.25340   0.56727   0.00000  Uiso   1.00
C514   C     0.41288   0.27377   0.59791   0.00000  Uiso   1.00
C515   C     0.31659   0.30249   0.66741   0.00000  Uiso   1.00
C516   C     0.54240   0.17610   0.43744   0.00000  Uiso   1.00
C517   C     0.59202   0.11139   0.43919   0.00000  Uiso   1.00
C518   C     0.57468   0.06682   0.41125   0.00000  Uiso   1.00
C519   C     0.57203   0.97577   0.37271   0.00000  Uiso   1.00
C520   C     0.43142   0.26870   0.41237   0.00000  Uiso   1.00
C521   C     0.48060   0.31321   0.38602   0.00000  Uiso   1.00
C522   C     0.46558   0.36763   0.33891   0.00000  Uiso   1.00
C523   C     0.51755   0.40192   0.32141   0.00000  Uiso   1.00
C524   C     0.41744   0.27272   0.47840   0.00000  Uiso   1.00
C525   C     0.34932   0.29310   0.50896   0.00000  Uiso   1.00
C526   C     0.34812   0.29330   0.56923   0.00000  Uiso   1.00
C527   C     0.47776   0.19559   0.40881   0.00000  Uiso   1.00
C528   C     0.46034   0.15110   0.38087   0.00000  Uiso   1.00
C529   C     0.50991   0.08635   0.38257   0.00000  Uiso   1.00
H530   H     0.60076   0.21764   0.48737   0.00000  Uiso   1.00
H531   H     0.64727   0.31283   0.41939   0.00000  Uiso   1.00
H532   H     0.53103   0.23831   0.58941   0.00000  Uiso   1.00
H533   H     0.64204   0.09633   0.46134   0.00000  Uiso   1.00
H534   H     0.67032   0.42698   0.33141   0.00000  Uiso   1.00
H535   H     0.42522   0.26981   0.68992   0.00000  Uiso   1.00
H536   H     0.65929   0.97043   0.41987   0.00000  Uiso   1.00
H537   H     0.38108   0.28387   0.39009   0.00000  Uiso   1.00
H538   H     0.41554   0.38270   0.31676   0.00000  Uiso   1.00
H539   H     0.29930   0.30817   0.48679   0.00000  Uiso   1.00
H540   H     0.41031   0.16620   0.35873   0.00000  Uiso   1.00
H541   H     0.48224   0.48369   0.24812   0.00000  Uiso   1.00
H542   H     0.23713   0.32652   0.60663   0.00000  Uiso   1.00
H543   H     0.47121   0.02714   0.33658   0.00000  Uiso   1.00
O544   O     0.60290   0.51917   0.24330   0.00000  Uiso   1.00
O545   O     0.28133   0.31295   0.71365   0.00000  Uiso   1.00
O546   O     0.58844   0.92017   0.35935   0.00000  Uiso   1.00
N547   N     0.62133   0.42676   0.32186   0.00000  Uiso   1.00
N548   N     0.39217   0.27982   0.65705   0.00000  Uiso   1.00
N549   N     0.61101   0.99992   0.40458   0.00000  Uiso   1.00
N550   N     0.52013   0.45727   0.27704   0.00000  Uiso   1.00
N551   N     0.29097   0.31034   0.61223   0.00000  Uiso   1.00
N552   N     0.50980   0.03043   0.35976   0.00000  Uiso   1.00
