data_job_02460
_audit_creation_date              2018-12-19
_audit_creation_method            'Materials Studio'
_symmetry_space_group_name_H-M    'P1'
_symmetry_Int_Tables_number       1
_symmetry_cell_setting            triclinic
loop_
_symmetry_equiv_pos_as_xyz
  x,y,z
_cell_length_a                    23.8149
_cell_length_b                    23.8149
_cell_length_c                    40.1474
_cell_angle_alpha                 90.0000
_cell_angle_beta                  90.0000
_cell_angle_gamma                 120.0000
loop_
_atom_site_label
_atom_site_type_symbol
_atom_site_fract_x
_atom_site_fract_y
_atom_site_fract_z
_atom_site_U_iso_or_equiv
_atom_site_adp_type
_atom_site_occupancy
C1     C     0.16040   0.81334   0.31571   0.00000  Uiso   1.00
C2     C     0.13137   0.75022   0.33543   0.00000  Uiso   1.00
C3     C     0.11960   0.69075   0.32327   0.00000  Uiso   1.00
C4     C     0.09278   0.63881   0.34526   0.00000  Uiso   1.00
C5     C     0.04989   0.53968   0.37087   0.00000  Uiso   1.00
C6     C     0.11158   0.83686   0.31811   0.00000  Uiso   1.00
C7     C     0.08318   0.85024   0.29138   0.00000  Uiso   1.00
C8     C     0.03972   0.87124   0.29879   0.00000  Uiso   1.00
C9     C     0.96614   0.90667   0.29750   0.00000  Uiso   1.00
C10    C     0.21994   0.86220   0.33517   0.00000  Uiso   1.00
C11    C     0.28264   0.89690   0.32279   0.00000  Uiso   1.00
C12    C     0.33040   0.93925   0.34456   0.00000  Uiso   1.00
C13    C     0.42506   0.01401   0.36977   0.00000  Uiso   1.00
C14    C     0.13371   0.82685   0.37639   0.00000  Uiso   1.00
C15    C     0.11687   0.75756   0.36839   0.00000  Uiso   1.00
C16    C     0.09007   0.70570   0.39041   0.00000  Uiso   1.00
C17    C     0.07826   0.64616   0.37828   0.00000  Uiso   1.00
C18    C     0.09709   0.84420   0.35107   0.00000  Uiso   1.00
C19    C     0.05366   0.86519   0.35852   0.00000  Uiso   1.00
C20    C     0.02519   0.87860   0.33181   0.00000  Uiso   1.00
C21    C     0.20544   0.86954   0.36813   0.00000  Uiso   1.00
C22    C     0.25311   0.91185   0.38993   0.00000  Uiso   1.00
C23    C     0.31588   0.94660   0.37758   0.00000  Uiso   1.00
H24    H     0.17168   0.80763   0.29005   0.00000  Uiso   1.00
H25    H     0.13082   0.68509   0.29776   0.00000  Uiso   1.00
H26    H     0.09442   0.84457   0.26587   0.00000  Uiso   1.00
H27    H     0.29384   0.89121   0.29728   0.00000  Uiso   1.00
H28    H     0.07910   0.55246   0.32084   0.00000  Uiso   1.00
H29    H     0.00236   0.88874   0.25361   0.00000  Uiso   1.00
H30    H     0.42289   0.98711   0.31984   0.00000  Uiso   1.00
H31    H     0.12242   0.83257   0.40206   0.00000  Uiso   1.00
H32    H     0.07886   0.71139   0.41592   0.00000  Uiso   1.00
H33    H     0.04245   0.87087   0.38403   0.00000  Uiso   1.00
H34    H     0.24188   0.91751   0.41544   0.00000  Uiso   1.00
H35    H     0.03692   0.57381   0.41674   0.00000  Uiso   1.00
H36    H     0.96019   0.91009   0.34951   0.00000  Uiso   1.00
H37    H     0.38072   0.00846   0.41574   0.00000  Uiso   1.00
O38    O     0.03022   0.48297   0.37589   0.00000  Uiso   1.00
O39    O     0.92956   0.92417   0.28768   0.00000  Uiso   1.00
O40    O     0.48128   0.05322   0.37457   0.00000  Uiso   1.00
N41    N     0.07516   0.57412   0.34151   0.00000  Uiso   1.00
N42    N     0.00341   0.88851   0.27865   0.00000  Uiso   1.00
N43    N     0.39657   0.98049   0.34057   0.00000  Uiso   1.00
N44    N     0.05247   0.58560   0.39312   0.00000  Uiso   1.00
N45    N     0.98072   0.90000   0.33026   0.00000  Uiso   1.00
N46    N     0.37388   0.99198   0.39217   0.00000  Uiso   1.00
C47    C     0.18666   0.34705   0.98238   0.00000  Uiso   1.00
C48    C     0.24978   0.38115   0.00210   0.00000  Uiso   1.00
C49    C     0.30925   0.42885   0.98994   0.00000  Uiso   1.00
C50    C     0.36119   0.45397   0.01193   0.00000  Uiso   1.00
C51    C     0.46032   0.51021   0.03754   0.00000  Uiso   1.00
C52    C     0.16314   0.27472   0.98477   0.00000  Uiso   1.00
C53    C     0.14976   0.23294   0.95804   0.00000  Uiso   1.00
C54    C     0.12876   0.16847   0.96545   0.00000  Uiso   1.00
C55    C     0.09333   0.05947   0.96416   0.00000  Uiso   1.00
C56    C     0.13780   0.35774   0.00184   0.00000  Uiso   1.00
C57    C     0.10310   0.38574   0.98946   0.00000  Uiso   1.00
C58    C     0.06075   0.39115   0.01123   0.00000  Uiso   1.00
C59    C     0.98599   0.41105   0.03643   0.00000  Uiso   1.00
C60    C     0.17315   0.30685   0.04306   0.00000  Uiso   1.00
C61    C     0.24244   0.35931   0.03506   0.00000  Uiso   1.00
C62    C     0.29430   0.38437   0.05708   0.00000  Uiso   1.00
C63    C     0.35384   0.43210   0.04495   0.00000  Uiso   1.00
C64    C     0.15580   0.25289   0.01773   0.00000  Uiso   1.00
C65    C     0.13481   0.18847   0.02518   0.00000  Uiso   1.00
C66    C     0.12140   0.14660   0.99847   0.00000  Uiso   1.00
C67    C     0.13046   0.33590   0.03480   0.00000  Uiso   1.00
C68    C     0.08815   0.34127   0.05660   0.00000  Uiso   1.00
C69    C     0.05340   0.36928   0.04425   0.00000  Uiso   1.00
H70    H     0.19237   0.36405   0.95671   0.00000  Uiso   1.00
H71    H     0.31491   0.44573   0.96443   0.00000  Uiso   1.00
H72    H     0.15543   0.24985   0.93254   0.00000  Uiso   1.00
H73    H     0.10879   0.40263   0.96395   0.00000  Uiso   1.00
H74    H     0.44754   0.52664   0.98751   0.00000  Uiso   1.00
H75    H     0.11126   0.11362   0.92027   0.00000  Uiso   1.00
H76    H     0.01289   0.43578   0.98650   0.00000  Uiso   1.00
H77    H     0.16743   0.28985   0.06872   0.00000  Uiso   1.00
H78    H     0.28861   0.36747   0.08258   0.00000  Uiso   1.00
H79    H     0.12913   0.17159   0.05070   0.00000  Uiso   1.00
H80    H     0.08249   0.32437   0.08210   0.00000  Uiso   1.00
H81    H     0.42619   0.46312   0.08341   0.00000  Uiso   1.00
H82    H     0.08991   0.05009   0.01617   0.00000  Uiso   1.00
H83    H     0.99154   0.37226   0.08240   0.00000  Uiso   1.00
O84    O     0.51703   0.54726   0.04256   0.00000  Uiso   1.00
O85    O     0.07583   0.00539   0.95434   0.00000  Uiso   1.00
O86    O     0.94678   0.42806   0.04123   0.00000  Uiso   1.00
N87    N     0.42588   0.50105   0.00818   0.00000  Uiso   1.00
N88    N     0.11149   0.11490   0.94532   0.00000  Uiso   1.00
N89    N     0.01951   0.41608   0.00723   0.00000  Uiso   1.00
N90    N     0.41440   0.46687   0.05978   0.00000  Uiso   1.00
N91    N     0.10000   0.08072   0.99692   0.00000  Uiso   1.00
N92    N     0.00802   0.38190   0.05884   0.00000  Uiso   1.00
C93    C     0.65295   0.83960   0.64904   0.00000  Uiso   1.00
C94    C     0.61885   0.86863   0.66877   0.00000  Uiso   1.00
C95    C     0.57115   0.88040   0.65660   0.00000  Uiso   1.00
C96    C     0.54603   0.90722   0.67860   0.00000  Uiso   1.00
C97    C     0.48979   0.95011   0.70420   0.00000  Uiso   1.00
C98    C     0.72528   0.88842   0.65144   0.00000  Uiso   1.00
C99    C     0.76706   0.91682   0.62471   0.00000  Uiso   1.00
C100   C     0.83153   0.96028   0.63212   0.00000  Uiso   1.00
C101   C     0.94053   0.03386   0.63083   0.00000  Uiso   1.00
C102   C     0.64226   0.78006   0.66851   0.00000  Uiso   1.00
C103   C     0.61426   0.71736   0.65612   0.00000  Uiso   1.00
C104   C     0.60885   0.66960   0.67790   0.00000  Uiso   1.00
C105   C     0.58895   0.57494   0.70310   0.00000  Uiso   1.00
C106   C     0.69315   0.86629   0.70973   0.00000  Uiso   1.00
C107   C     0.64069   0.88313   0.70173   0.00000  Uiso   1.00
C108   C     0.61563   0.90993   0.72375   0.00000  Uiso   1.00
C109   C     0.56790   0.92174   0.71162   0.00000  Uiso   1.00
C110   C     0.74711   0.90291   0.68440   0.00000  Uiso   1.00
C111   C     0.81153   0.94634   0.69185   0.00000  Uiso   1.00
C112   C     0.85340   0.97481   0.66514   0.00000  Uiso   1.00
C113   C     0.66410   0.79456   0.70147   0.00000  Uiso   1.00
C114   C     0.65873   0.74689   0.72326   0.00000  Uiso   1.00
C115   C     0.63072   0.68412   0.71092   0.00000  Uiso   1.00
H116   H     0.63595   0.82832   0.62338   0.00000  Uiso   1.00
H117   H     0.55427   0.86918   0.63109   0.00000  Uiso   1.00
H118   H     0.75015   0.90558   0.59921   0.00000  Uiso   1.00
H119   H     0.59737   0.70616   0.63061   0.00000  Uiso   1.00
H120   H     0.47336   0.92090   0.65418   0.00000  Uiso   1.00
H121   H     0.88638   0.99764   0.58694   0.00000  Uiso   1.00
H122   H     0.56422   0.57711   0.65317   0.00000  Uiso   1.00
H123   H     0.71015   0.87758   0.73539   0.00000  Uiso   1.00
H124   H     0.63253   0.92114   0.74925   0.00000  Uiso   1.00
H125   H     0.82841   0.95755   0.71736   0.00000  Uiso   1.00
H126   H     0.67563   0.75812   0.74877   0.00000  Uiso   1.00
H127   H     0.53688   0.96308   0.75008   0.00000  Uiso   1.00
H128   H     0.94991   0.03981   0.68284   0.00000  Uiso   1.00
H129   H     0.62774   0.61928   0.74907   0.00000  Uiso   1.00
O130   O     0.45274   0.96978   0.70922   0.00000  Uiso   1.00
O131   O     0.99461   0.07044   0.62101   0.00000  Uiso   1.00
O132   O     0.57194   0.51872   0.70790   0.00000  Uiso   1.00
N133   N     0.49895   0.92484   0.67485   0.00000  Uiso   1.00
N134   N     0.88510   0.99659   0.61199   0.00000  Uiso   1.00
N135   N     0.58392   0.60343   0.67390   0.00000  Uiso   1.00
N136   N     0.53313   0.94753   0.72645   0.00000  Uiso   1.00
N137   N     0.91928   0.01928   0.66359   0.00000  Uiso   1.00
N138   N     0.61810   0.62612   0.72550   0.00000  Uiso   1.00
C139   C     0.83960   0.18666   0.81571   0.00000  Uiso   1.00
C140   C     0.86863   0.24978   0.83543   0.00000  Uiso   1.00
C141   C     0.88040   0.30925   0.82327   0.00000  Uiso   1.00
C142   C     0.90722   0.36119   0.84526   0.00000  Uiso   1.00
C143   C     0.95011   0.46032   0.87087   0.00000  Uiso   1.00
C144   C     0.88842   0.16314   0.81811   0.00000  Uiso   1.00
C145   C     0.91682   0.14976   0.79138   0.00000  Uiso   1.00
C146   C     0.96028   0.12876   0.79879   0.00000  Uiso   1.00
C147   C     0.03386   0.09333   0.79750   0.00000  Uiso   1.00
C148   C     0.78006   0.13780   0.83517   0.00000  Uiso   1.00
C149   C     0.71736   0.10310   0.82279   0.00000  Uiso   1.00
C150   C     0.66960   0.06075   0.84456   0.00000  Uiso   1.00
C151   C     0.57494   0.98599   0.86977   0.00000  Uiso   1.00
C152   C     0.86629   0.17315   0.87639   0.00000  Uiso   1.00
C153   C     0.88313   0.24244   0.86839   0.00000  Uiso   1.00
C154   C     0.90993   0.29430   0.89041   0.00000  Uiso   1.00
C155   C     0.92174   0.35384   0.87828   0.00000  Uiso   1.00
C156   C     0.90291   0.15580   0.85107   0.00000  Uiso   1.00
C157   C     0.94634   0.13481   0.85852   0.00000  Uiso   1.00
C158   C     0.97481   0.12140   0.83181   0.00000  Uiso   1.00
C159   C     0.79456   0.13046   0.86813   0.00000  Uiso   1.00
C160   C     0.74689   0.08815   0.88993   0.00000  Uiso   1.00
C161   C     0.68412   0.05340   0.87758   0.00000  Uiso   1.00
H162   H     0.82832   0.19237   0.79005   0.00000  Uiso   1.00
H163   H     0.86918   0.31491   0.79776   0.00000  Uiso   1.00
H164   H     0.90558   0.15543   0.76587   0.00000  Uiso   1.00
H165   H     0.70616   0.10879   0.79728   0.00000  Uiso   1.00
H166   H     0.92090   0.44754   0.82084   0.00000  Uiso   1.00
H167   H     0.99764   0.11126   0.75361   0.00000  Uiso   1.00
H168   H     0.57711   0.01289   0.81984   0.00000  Uiso   1.00
H169   H     0.87758   0.16743   0.90206   0.00000  Uiso   1.00
H170   H     0.92114   0.28861   0.91592   0.00000  Uiso   1.00
H171   H     0.95755   0.12913   0.88403   0.00000  Uiso   1.00
H172   H     0.75812   0.08249   0.91544   0.00000  Uiso   1.00
H173   H     0.96308   0.42619   0.91674   0.00000  Uiso   1.00
H174   H     0.03981   0.08991   0.84951   0.00000  Uiso   1.00
H175   H     0.61928   0.99154   0.91574   0.00000  Uiso   1.00
O176   O     0.96978   0.51703   0.87589   0.00000  Uiso   1.00
O177   O     0.07044   0.07583   0.78768   0.00000  Uiso   1.00
O178   O     0.51872   0.94678   0.87457   0.00000  Uiso   1.00
N179   N     0.92484   0.42588   0.84151   0.00000  Uiso   1.00
N180   N     0.99659   0.11149   0.77865   0.00000  Uiso   1.00
N181   N     0.60343   0.01951   0.84057   0.00000  Uiso   1.00
N182   N     0.94753   0.41440   0.89312   0.00000  Uiso   1.00
N183   N     0.01928   0.10000   0.83026   0.00000  Uiso   1.00
N184   N     0.62612   0.00802   0.89217   0.00000  Uiso   1.00
C185   C     0.81334   0.65295   0.48238   0.00000  Uiso   1.00
C186   C     0.75022   0.61885   0.50210   0.00000  Uiso   1.00
C187   C     0.69075   0.57115   0.48994   0.00000  Uiso   1.00
C188   C     0.63881   0.54603   0.51193   0.00000  Uiso   1.00
C189   C     0.53968   0.48979   0.53754   0.00000  Uiso   1.00
C190   C     0.83686   0.72528   0.48477   0.00000  Uiso   1.00
C191   C     0.85024   0.76706   0.45804   0.00000  Uiso   1.00
C192   C     0.87124   0.83153   0.46545   0.00000  Uiso   1.00
C193   C     0.90667   0.94053   0.46416   0.00000  Uiso   1.00
C194   C     0.86220   0.64226   0.50184   0.00000  Uiso   1.00
C195   C     0.89690   0.61426   0.48946   0.00000  Uiso   1.00
C196   C     0.93925   0.60885   0.51123   0.00000  Uiso   1.00
C197   C     0.01401   0.58895   0.53643   0.00000  Uiso   1.00
C198   C     0.82685   0.69315   0.54306   0.00000  Uiso   1.00
C199   C     0.75756   0.64069   0.53506   0.00000  Uiso   1.00
C200   C     0.70570   0.61563   0.55708   0.00000  Uiso   1.00
C201   C     0.64616   0.56790   0.54495   0.00000  Uiso   1.00
C202   C     0.84420   0.74711   0.51773   0.00000  Uiso   1.00
C203   C     0.86519   0.81153   0.52518   0.00000  Uiso   1.00
C204   C     0.87860   0.85340   0.49847   0.00000  Uiso   1.00
C205   C     0.86954   0.66410   0.53480   0.00000  Uiso   1.00
C206   C     0.91185   0.65873   0.55660   0.00000  Uiso   1.00
C207   C     0.94660   0.63072   0.54425   0.00000  Uiso   1.00
H208   H     0.80763   0.63595   0.45671   0.00000  Uiso   1.00
H209   H     0.68509   0.55427   0.46443   0.00000  Uiso   1.00
H210   H     0.84457   0.75015   0.43254   0.00000  Uiso   1.00
H211   H     0.89121   0.59737   0.46395   0.00000  Uiso   1.00
H212   H     0.55246   0.47336   0.48751   0.00000  Uiso   1.00
H213   H     0.88874   0.88638   0.42027   0.00000  Uiso   1.00
H214   H     0.98711   0.56422   0.48650   0.00000  Uiso   1.00
H215   H     0.83257   0.71015   0.56872   0.00000  Uiso   1.00
H216   H     0.71139   0.63253   0.58258   0.00000  Uiso   1.00
H217   H     0.87087   0.82841   0.55070   0.00000  Uiso   1.00
H218   H     0.91751   0.67563   0.58210   0.00000  Uiso   1.00
H219   H     0.57381   0.53688   0.58341   0.00000  Uiso   1.00
H220   H     0.91009   0.94991   0.51617   0.00000  Uiso   1.00
H221   H     0.00846   0.62774   0.58240   0.00000  Uiso   1.00
O222   O     0.48297   0.45274   0.54256   0.00000  Uiso   1.00
O223   O     0.92417   0.99461   0.45434   0.00000  Uiso   1.00
O224   O     0.05322   0.57194   0.54123   0.00000  Uiso   1.00
N225   N     0.57412   0.49895   0.50818   0.00000  Uiso   1.00
N226   N     0.88851   0.88510   0.44532   0.00000  Uiso   1.00
N227   N     0.98049   0.58392   0.50723   0.00000  Uiso   1.00
N228   N     0.58560   0.53313   0.55978   0.00000  Uiso   1.00
N229   N     0.90000   0.91928   0.49692   0.00000  Uiso   1.00
N230   N     0.99198   0.61810   0.55884   0.00000  Uiso   1.00
C231   C     0.34705   0.16040   0.14904   0.00000  Uiso   1.00
C232   C     0.38115   0.13137   0.16877   0.00000  Uiso   1.00
C233   C     0.42885   0.11960   0.15660   0.00000  Uiso   1.00
C234   C     0.45397   0.09278   0.17860   0.00000  Uiso   1.00
C235   C     0.51021   0.04989   0.20420   0.00000  Uiso   1.00
C236   C     0.27472   0.11158   0.15144   0.00000  Uiso   1.00
C237   C     0.23294   0.08318   0.12471   0.00000  Uiso   1.00
C238   C     0.16847   0.03972   0.13212   0.00000  Uiso   1.00
C239   C     0.05947   0.96614   0.13083   0.00000  Uiso   1.00
C240   C     0.35774   0.21994   0.16851   0.00000  Uiso   1.00
C241   C     0.38574   0.28264   0.15612   0.00000  Uiso   1.00
C242   C     0.39115   0.33040   0.17790   0.00000  Uiso   1.00
C243   C     0.41105   0.42506   0.20310   0.00000  Uiso   1.00
C244   C     0.30685   0.13371   0.20973   0.00000  Uiso   1.00
C245   C     0.35931   0.11687   0.20173   0.00000  Uiso   1.00
C246   C     0.38437   0.09007   0.22375   0.00000  Uiso   1.00
C247   C     0.43210   0.07826   0.21162   0.00000  Uiso   1.00
C248   C     0.25289   0.09709   0.18440   0.00000  Uiso   1.00
C249   C     0.18847   0.05366   0.19185   0.00000  Uiso   1.00
C250   C     0.14660   0.02519   0.16514   0.00000  Uiso   1.00
C251   C     0.33590   0.20544   0.20147   0.00000  Uiso   1.00
C252   C     0.34127   0.25311   0.22326   0.00000  Uiso   1.00
C253   C     0.36928   0.31588   0.21092   0.00000  Uiso   1.00
H254   H     0.36405   0.17168   0.12338   0.00000  Uiso   1.00
H255   H     0.44573   0.13082   0.13109   0.00000  Uiso   1.00
H256   H     0.24985   0.09442   0.09921   0.00000  Uiso   1.00
H257   H     0.40263   0.29384   0.13061   0.00000  Uiso   1.00
H258   H     0.52664   0.07910   0.15418   0.00000  Uiso   1.00
H259   H     0.11362   0.00236   0.08694   0.00000  Uiso   1.00
H260   H     0.43578   0.42289   0.15317   0.00000  Uiso   1.00
H261   H     0.28985   0.12242   0.23539   0.00000  Uiso   1.00
H262   H     0.36747   0.07886   0.24925   0.00000  Uiso   1.00
H263   H     0.17159   0.04245   0.21736   0.00000  Uiso   1.00
H264   H     0.32437   0.24188   0.24877   0.00000  Uiso   1.00
H265   H     0.46312   0.03692   0.25008   0.00000  Uiso   1.00
H266   H     0.05009   0.96019   0.18284   0.00000  Uiso   1.00
H267   H     0.37226   0.38072   0.24907   0.00000  Uiso   1.00
O268   O     0.54726   0.03022   0.20922   0.00000  Uiso   1.00
O269   O     0.00539   0.92956   0.12101   0.00000  Uiso   1.00
O270   O     0.42806   0.48128   0.20790   0.00000  Uiso   1.00
N271   N     0.50105   0.07516   0.17485   0.00000  Uiso   1.00
N272   N     0.11490   0.00341   0.11199   0.00000  Uiso   1.00
N273   N     0.41608   0.39657   0.17390   0.00000  Uiso   1.00
N274   N     0.46687   0.05247   0.22645   0.00000  Uiso   1.00
N275   N     0.08072   0.98072   0.16359   0.00000  Uiso   1.00
N276   N     0.38190   0.37388   0.22550   0.00000  Uiso   1.00
C277   C     0.81334   0.16040   0.35096   0.00000  Uiso   1.00
C278   C     0.75022   0.13137   0.33123   0.00000  Uiso   1.00
C279   C     0.69075   0.11960   0.34340   0.00000  Uiso   1.00
C280   C     0.63881   0.09278   0.32140   0.00000  Uiso   1.00
C281   C     0.53968   0.04989   0.29580   0.00000  Uiso   1.00
C282   C     0.83686   0.11158   0.34856   0.00000  Uiso   1.00
C283   C     0.85024   0.08318   0.37529   0.00000  Uiso   1.00
C284   C     0.87124   0.03972   0.36788   0.00000  Uiso   1.00
C285   C     0.90667   0.96614   0.36917   0.00000  Uiso   1.00
C286   C     0.86220   0.21994   0.33149   0.00000  Uiso   1.00
C287   C     0.89690   0.28264   0.34388   0.00000  Uiso   1.00
C288   C     0.93925   0.33040   0.32210   0.00000  Uiso   1.00
C289   C     0.01401   0.42506   0.29690   0.00000  Uiso   1.00
C290   C     0.82685   0.13371   0.29027   0.00000  Uiso   1.00
C291   C     0.75756   0.11687   0.29827   0.00000  Uiso   1.00
C292   C     0.70570   0.09007   0.27625   0.00000  Uiso   1.00
C293   C     0.64616   0.07826   0.28838   0.00000  Uiso   1.00
C294   C     0.84420   0.09709   0.31560   0.00000  Uiso   1.00
C295   C     0.86519   0.05366   0.30815   0.00000  Uiso   1.00
C296   C     0.87860   0.02519   0.33486   0.00000  Uiso   1.00
C297   C     0.86954   0.20544   0.29853   0.00000  Uiso   1.00
C298   C     0.91185   0.25311   0.27674   0.00000  Uiso   1.00
C299   C     0.94660   0.31588   0.28908   0.00000  Uiso   1.00
H300   H     0.80763   0.17168   0.37662   0.00000  Uiso   1.00
H301   H     0.68509   0.13082   0.36891   0.00000  Uiso   1.00
H302   H     0.84457   0.09442   0.40079   0.00000  Uiso   1.00
H303   H     0.89121   0.29384   0.36939   0.00000  Uiso   1.00
H304   H     0.55246   0.07910   0.34582   0.00000  Uiso   1.00
H305   H     0.88874   0.00236   0.41306   0.00000  Uiso   1.00
H306   H     0.98711   0.42289   0.34683   0.00000  Uiso   1.00
H307   H     0.83257   0.12242   0.26461   0.00000  Uiso   1.00
H308   H     0.71139   0.07886   0.25075   0.00000  Uiso   1.00
H309   H     0.87087   0.04245   0.28264   0.00000  Uiso   1.00
H310   H     0.91751   0.24188   0.25123   0.00000  Uiso   1.00
H311   H     0.57381   0.03692   0.24992   0.00000  Uiso   1.00
H312   H     0.91009   0.96019   0.31716   0.00000  Uiso   1.00
H313   H     0.00846   0.38072   0.25093   0.00000  Uiso   1.00
O314   O     0.48297   0.03022   0.29078   0.00000  Uiso   1.00
O315   O     0.92417   0.92956   0.37899   0.00000  Uiso   1.00
O316   O     0.05322   0.48128   0.29210   0.00000  Uiso   1.00
N317   N     0.57412   0.07516   0.32515   0.00000  Uiso   1.00
N318   N     0.88851   0.00341   0.38801   0.00000  Uiso   1.00
N319   N     0.98049   0.39657   0.32610   0.00000  Uiso   1.00
N320   N     0.58560   0.05247   0.27355   0.00000  Uiso   1.00
N321   N     0.90000   0.98072   0.33641   0.00000  Uiso   1.00
N322   N     0.99198   0.37388   0.27450   0.00000  Uiso   1.00
C323   C     0.34705   0.18666   0.68429   0.00000  Uiso   1.00
C324   C     0.38115   0.24978   0.66457   0.00000  Uiso   1.00
C325   C     0.42885   0.30925   0.67673   0.00000  Uiso   1.00
C326   C     0.45397   0.36119   0.65474   0.00000  Uiso   1.00
C327   C     0.51021   0.46032   0.62913   0.00000  Uiso   1.00
C328   C     0.27472   0.16314   0.68189   0.00000  Uiso   1.00
C329   C     0.23294   0.14976   0.70862   0.00000  Uiso   1.00
C330   C     0.16847   0.12876   0.70121   0.00000  Uiso   1.00
C331   C     0.05947   0.09333   0.70250   0.00000  Uiso   1.00
C332   C     0.35774   0.13780   0.66483   0.00000  Uiso   1.00
C333   C     0.38574   0.10310   0.67721   0.00000  Uiso   1.00
C334   C     0.39115   0.06075   0.65544   0.00000  Uiso   1.00
C335   C     0.41105   0.98599   0.63023   0.00000  Uiso   1.00
C336   C     0.30685   0.17315   0.62361   0.00000  Uiso   1.00
C337   C     0.35931   0.24244   0.63161   0.00000  Uiso   1.00
C338   C     0.38437   0.29430   0.60959   0.00000  Uiso   1.00
C339   C     0.43210   0.35384   0.62172   0.00000  Uiso   1.00
C340   C     0.25289   0.15580   0.64893   0.00000  Uiso   1.00
C341   C     0.18847   0.13481   0.64148   0.00000  Uiso   1.00
C342   C     0.14660   0.12140   0.66819   0.00000  Uiso   1.00
C343   C     0.33590   0.13046   0.63187   0.00000  Uiso   1.00
C344   C     0.34127   0.08815   0.61007   0.00000  Uiso   1.00
C345   C     0.36928   0.05340   0.62242   0.00000  Uiso   1.00
H346   H     0.36405   0.19237   0.70995   0.00000  Uiso   1.00
H347   H     0.44573   0.31491   0.70224   0.00000  Uiso   1.00
H348   H     0.24985   0.15543   0.73413   0.00000  Uiso   1.00
H349   H     0.40263   0.10879   0.70272   0.00000  Uiso   1.00
H350   H     0.52664   0.44754   0.67916   0.00000  Uiso   1.00
H351   H     0.11362   0.11126   0.74639   0.00000  Uiso   1.00
H352   H     0.43578   0.01289   0.68016   0.00000  Uiso   1.00
H353   H     0.28985   0.16743   0.59794   0.00000  Uiso   1.00
H354   H     0.36747   0.28861   0.58408   0.00000  Uiso   1.00
H355   H     0.17159   0.12913   0.61597   0.00000  Uiso   1.00
H356   H     0.32437   0.08249   0.58456   0.00000  Uiso   1.00
H357   H     0.46312   0.42619   0.58326   0.00000  Uiso   1.00
H358   H     0.05009   0.08991   0.65049   0.00000  Uiso   1.00
H359   H     0.37226   0.99154   0.58426   0.00000  Uiso   1.00
O360   O     0.54726   0.51703   0.62411   0.00000  Uiso   1.00
O361   O     0.00539   0.07583   0.71232   0.00000  Uiso   1.00
O362   O     0.42806   0.94678   0.62543   0.00000  Uiso   1.00
N363   N     0.50105   0.42588   0.65849   0.00000  Uiso   1.00
N364   N     0.11490   0.11149   0.72135   0.00000  Uiso   1.00
N365   N     0.41608   0.01951   0.65943   0.00000  Uiso   1.00
N366   N     0.46687   0.41440   0.60688   0.00000  Uiso   1.00
N367   N     0.08072   0.10000   0.66974   0.00000  Uiso   1.00
N368   N     0.38190   0.00802   0.60783   0.00000  Uiso   1.00
C369   C     0.83960   0.65295   0.01762   0.00000  Uiso   1.00
C370   C     0.86863   0.61885   0.99790   0.00000  Uiso   1.00
C371   C     0.88040   0.57115   0.01006   0.00000  Uiso   1.00
C372   C     0.90722   0.54603   0.98807   0.00000  Uiso   1.00
C373   C     0.95011   0.48979   0.96246   0.00000  Uiso   1.00
C374   C     0.88842   0.72528   0.01523   0.00000  Uiso   1.00
C375   C     0.91682   0.76706   0.04196   0.00000  Uiso   1.00
C376   C     0.96028   0.83153   0.03455   0.00000  Uiso   1.00
C377   C     0.03386   0.94053   0.03584   0.00000  Uiso   1.00
C378   C     0.78006   0.64226   0.99816   0.00000  Uiso   1.00
C379   C     0.71736   0.61426   0.01054   0.00000  Uiso   1.00
C380   C     0.66960   0.60885   0.98877   0.00000  Uiso   1.00
C381   C     0.57494   0.58895   0.96357   0.00000  Uiso   1.00
C382   C     0.86629   0.69315   0.95694   0.00000  Uiso   1.00
C383   C     0.88313   0.64069   0.96494   0.00000  Uiso   1.00
C384   C     0.90993   0.61563   0.94292   0.00000  Uiso   1.00
C385   C     0.92174   0.56790   0.95505   0.00000  Uiso   1.00
C386   C     0.90291   0.74711   0.98227   0.00000  Uiso   1.00
C387   C     0.94634   0.81153   0.97482   0.00000  Uiso   1.00
C388   C     0.97481   0.85340   0.00153   0.00000  Uiso   1.00
C389   C     0.79456   0.66410   0.96520   0.00000  Uiso   1.00
C390   C     0.74689   0.65873   0.94340   0.00000  Uiso   1.00
C391   C     0.68412   0.63072   0.95575   0.00000  Uiso   1.00
H392   H     0.82832   0.63595   0.04329   0.00000  Uiso   1.00
H393   H     0.86918   0.55427   0.03557   0.00000  Uiso   1.00
H394   H     0.90558   0.75015   0.06746   0.00000  Uiso   1.00
H395   H     0.70616   0.59737   0.03605   0.00000  Uiso   1.00
H396   H     0.92090   0.47336   0.01249   0.00000  Uiso   1.00
H397   H     0.99764   0.88638   0.07973   0.00000  Uiso   1.00
H398   H     0.57711   0.56422   0.01350   0.00000  Uiso   1.00
H399   H     0.87758   0.71015   0.93128   0.00000  Uiso   1.00
H400   H     0.92114   0.63253   0.91742   0.00000  Uiso   1.00
H401   H     0.95755   0.82841   0.94930   0.00000  Uiso   1.00
H402   H     0.75812   0.67563   0.91790   0.00000  Uiso   1.00
H403   H     0.96308   0.53688   0.91659   0.00000  Uiso   1.00
H404   H     0.03981   0.94991   0.98383   0.00000  Uiso   1.00
H405   H     0.61928   0.62774   0.91760   0.00000  Uiso   1.00
O406   O     0.96978   0.45274   0.95744   0.00000  Uiso   1.00
O407   O     0.07044   0.99461   0.04566   0.00000  Uiso   1.00
O408   O     0.51872   0.57194   0.95877   0.00000  Uiso   1.00
N409   N     0.92484   0.49895   0.99182   0.00000  Uiso   1.00
N410   N     0.99659   0.88510   0.05468   0.00000  Uiso   1.00
N411   N     0.60343   0.58392   0.99277   0.00000  Uiso   1.00
N412   N     0.94753   0.53313   0.94022   0.00000  Uiso   1.00
N413   N     0.01928   0.91928   0.00308   0.00000  Uiso   1.00
N414   N     0.62612   0.61810   0.94116   0.00000  Uiso   1.00
C415   C     0.18666   0.83960   0.85096   0.00000  Uiso   1.00
C416   C     0.24978   0.86863   0.83123   0.00000  Uiso   1.00
C417   C     0.30925   0.88040   0.84340   0.00000  Uiso   1.00
C418   C     0.36119   0.90722   0.82140   0.00000  Uiso   1.00
C419   C     0.46032   0.95011   0.79580   0.00000  Uiso   1.00
C420   C     0.16314   0.88842   0.84856   0.00000  Uiso   1.00
C421   C     0.14976   0.91682   0.87529   0.00000  Uiso   1.00
C422   C     0.12876   0.96028   0.86788   0.00000  Uiso   1.00
C423   C     0.09333   0.03386   0.86917   0.00000  Uiso   1.00
C424   C     0.13780   0.78006   0.83149   0.00000  Uiso   1.00
C425   C     0.10310   0.71736   0.84388   0.00000  Uiso   1.00
C426   C     0.06075   0.66960   0.82210   0.00000  Uiso   1.00
C427   C     0.98599   0.57494   0.79690   0.00000  Uiso   1.00
C428   C     0.17315   0.86629   0.79027   0.00000  Uiso   1.00
C429   C     0.24244   0.88313   0.79827   0.00000  Uiso   1.00
C430   C     0.29430   0.90993   0.77625   0.00000  Uiso   1.00
C431   C     0.35384   0.92174   0.78838   0.00000  Uiso   1.00
C432   C     0.15580   0.90291   0.81560   0.00000  Uiso   1.00
C433   C     0.13481   0.94634   0.80815   0.00000  Uiso   1.00
C434   C     0.12140   0.97481   0.83486   0.00000  Uiso   1.00
C435   C     0.13046   0.79456   0.79853   0.00000  Uiso   1.00
C436   C     0.08815   0.74689   0.77674   0.00000  Uiso   1.00
C437   C     0.05340   0.68412   0.78908   0.00000  Uiso   1.00
H438   H     0.19237   0.82832   0.87662   0.00000  Uiso   1.00
H439   H     0.31491   0.86918   0.86891   0.00000  Uiso   1.00
H440   H     0.15543   0.90558   0.90079   0.00000  Uiso   1.00
H441   H     0.10879   0.70616   0.86939   0.00000  Uiso   1.00
H442   H     0.44754   0.92090   0.84582   0.00000  Uiso   1.00
H443   H     0.11126   0.99764   0.91306   0.00000  Uiso   1.00
H444   H     0.01289   0.57711   0.84683   0.00000  Uiso   1.00
H445   H     0.16743   0.87758   0.76461   0.00000  Uiso   1.00
H446   H     0.28861   0.92114   0.75075   0.00000  Uiso   1.00
H447   H     0.12913   0.95755   0.78264   0.00000  Uiso   1.00
H448   H     0.08249   0.75812   0.75123   0.00000  Uiso   1.00
H449   H     0.42619   0.96308   0.74992   0.00000  Uiso   1.00
H450   H     0.08991   0.03981   0.81716   0.00000  Uiso   1.00
H451   H     0.99154   0.61928   0.75093   0.00000  Uiso   1.00
O452   O     0.51703   0.96978   0.79078   0.00000  Uiso   1.00
O453   O     0.07583   0.07044   0.87899   0.00000  Uiso   1.00
O454   O     0.94678   0.51872   0.79210   0.00000  Uiso   1.00
N455   N     0.42588   0.92484   0.82515   0.00000  Uiso   1.00
N456   N     0.11149   0.99659   0.88801   0.00000  Uiso   1.00
N457   N     0.01951   0.60343   0.82610   0.00000  Uiso   1.00
N458   N     0.41440   0.94753   0.77355   0.00000  Uiso   1.00
N459   N     0.10000   0.01928   0.83641   0.00000  Uiso   1.00
N460   N     0.00802   0.62612   0.77450   0.00000  Uiso   1.00
C461   C     0.65295   0.81334   0.18429   0.00000  Uiso   1.00
C462   C     0.61885   0.75022   0.16457   0.00000  Uiso   1.00
C463   C     0.57115   0.69075   0.17673   0.00000  Uiso   1.00
C464   C     0.54603   0.63881   0.15474   0.00000  Uiso   1.00
C465   C     0.48979   0.53968   0.12913   0.00000  Uiso   1.00
C466   C     0.72528   0.83686   0.18189   0.00000  Uiso   1.00
C467   C     0.76706   0.85024   0.20862   0.00000  Uiso   1.00
C468   C     0.83153   0.87124   0.20121   0.00000  Uiso   1.00
C469   C     0.94053   0.90667   0.20250   0.00000  Uiso   1.00
C470   C     0.64226   0.86220   0.16483   0.00000  Uiso   1.00
C471   C     0.61426   0.89690   0.17721   0.00000  Uiso   1.00
C472   C     0.60885   0.93925   0.15544   0.00000  Uiso   1.00
C473   C     0.58895   0.01401   0.13023   0.00000  Uiso   1.00
C474   C     0.69315   0.82685   0.12361   0.00000  Uiso   1.00
C475   C     0.64069   0.75756   0.13161   0.00000  Uiso   1.00
C476   C     0.61563   0.70570   0.10959   0.00000  Uiso   1.00
C477   C     0.56790   0.64616   0.12172   0.00000  Uiso   1.00
C478   C     0.74711   0.84420   0.14893   0.00000  Uiso   1.00
C479   C     0.81153   0.86519   0.14148   0.00000  Uiso   1.00
C480   C     0.85340   0.87860   0.16819   0.00000  Uiso   1.00
C481   C     0.66410   0.86954   0.13187   0.00000  Uiso   1.00
C482   C     0.65873   0.91185   0.11007   0.00000  Uiso   1.00
C483   C     0.63072   0.94660   0.12242   0.00000  Uiso   1.00
H484   H     0.63595   0.80763   0.20995   0.00000  Uiso   1.00
H485   H     0.55427   0.68509   0.20224   0.00000  Uiso   1.00
H486   H     0.75015   0.84457   0.23413   0.00000  Uiso   1.00
H487   H     0.59737   0.89121   0.20272   0.00000  Uiso   1.00
H488   H     0.47336   0.55246   0.17916   0.00000  Uiso   1.00
H489   H     0.88638   0.88874   0.24639   0.00000  Uiso   1.00
H490   H     0.56422   0.98711   0.18016   0.00000  Uiso   1.00
H491   H     0.71015   0.83257   0.09794   0.00000  Uiso   1.00
H492   H     0.63253   0.71139   0.08408   0.00000  Uiso   1.00
H493   H     0.82841   0.87087   0.11597   0.00000  Uiso   1.00
H494   H     0.67563   0.91751   0.08456   0.00000  Uiso   1.00
H495   H     0.53688   0.57381   0.08326   0.00000  Uiso   1.00
H496   H     0.94991   0.91009   0.15049   0.00000  Uiso   1.00
H497   H     0.62774   0.00846   0.08426   0.00000  Uiso   1.00
O498   O     0.45274   0.48297   0.12411   0.00000  Uiso   1.00
O499   O     0.99461   0.92417   0.21232   0.00000  Uiso   1.00
O500   O     0.57194   0.05322   0.12543   0.00000  Uiso   1.00
N501   N     0.49895   0.57412   0.15849   0.00000  Uiso   1.00
N502   N     0.88510   0.88851   0.22135   0.00000  Uiso   1.00
N503   N     0.58392   0.98049   0.15943   0.00000  Uiso   1.00
N504   N     0.53313   0.58560   0.10688   0.00000  Uiso   1.00
N505   N     0.91928   0.90000   0.16974   0.00000  Uiso   1.00
N506   N     0.61810   0.99198   0.10783   0.00000  Uiso   1.00
C507   C     0.16040   0.34705   0.51762   0.00000  Uiso   1.00
C508   C     0.13137   0.38115   0.49790   0.00000  Uiso   1.00
C509   C     0.11960   0.42885   0.51006   0.00000  Uiso   1.00
C510   C     0.09278   0.45397   0.48807   0.00000  Uiso   1.00
C511   C     0.04989   0.51021   0.46246   0.00000  Uiso   1.00
C512   C     0.11158   0.27472   0.51523   0.00000  Uiso   1.00
C513   C     0.08318   0.23294   0.54196   0.00000  Uiso   1.00
C514   C     0.03972   0.16847   0.53455   0.00000  Uiso   1.00
C515   C     0.96614   0.05947   0.53584   0.00000  Uiso   1.00
C516   C     0.21994   0.35774   0.49816   0.00000  Uiso   1.00
C517   C     0.28264   0.38574   0.51054   0.00000  Uiso   1.00
C518   C     0.33040   0.39115   0.48877   0.00000  Uiso   1.00
C519   C     0.42506   0.41105   0.46357   0.00000  Uiso   1.00
C520   C     0.13371   0.30685   0.45694   0.00000  Uiso   1.00
C521   C     0.11687   0.35931   0.46494   0.00000  Uiso   1.00
C522   C     0.09007   0.38437   0.44292   0.00000  Uiso   1.00
C523   C     0.07826   0.43210   0.45505   0.00000  Uiso   1.00
C524   C     0.09709   0.25289   0.48227   0.00000  Uiso   1.00
C525   C     0.05366   0.18847   0.47482   0.00000  Uiso   1.00
C526   C     0.02519   0.14660   0.50153   0.00000  Uiso   1.00
C527   C     0.20544   0.33590   0.46520   0.00000  Uiso   1.00
C528   C     0.25311   0.34127   0.44340   0.00000  Uiso   1.00
C529   C     0.31588   0.36928   0.45575   0.00000  Uiso   1.00
H530   H     0.17168   0.36405   0.54329   0.00000  Uiso   1.00
H531   H     0.13082   0.44573   0.53557   0.00000  Uiso   1.00
H532   H     0.09442   0.24985   0.56746   0.00000  Uiso   1.00
H533   H     0.29384   0.40263   0.53605   0.00000  Uiso   1.00
H534   H     0.07910   0.52664   0.51249   0.00000  Uiso   1.00
H535   H     0.00236   0.11362   0.57973   0.00000  Uiso   1.00
H536   H     0.42289   0.43578   0.51350   0.00000  Uiso   1.00
H537   H     0.12242   0.28985   0.43128   0.00000  Uiso   1.00
H538   H     0.07886   0.36747   0.41742   0.00000  Uiso   1.00
H539   H     0.04245   0.17159   0.44930   0.00000  Uiso   1.00
H540   H     0.24188   0.32437   0.41790   0.00000  Uiso   1.00
H541   H     0.03692   0.46312   0.41659   0.00000  Uiso   1.00
H542   H     0.96019   0.05009   0.48383   0.00000  Uiso   1.00
H543   H     0.38072   0.37226   0.41760   0.00000  Uiso   1.00
O544   O     0.03022   0.54726   0.45744   0.00000  Uiso   1.00
O545   O     0.92956   0.00539   0.54566   0.00000  Uiso   1.00
O546   O     0.48128   0.42806   0.45877   0.00000  Uiso   1.00
N547   N     0.07516   0.50105   0.49182   0.00000  Uiso   1.00
N548   N     0.00341   0.11490   0.55468   0.00000  Uiso   1.00
N549   N     0.39657   0.41608   0.49277   0.00000  Uiso   1.00
N550   N     0.05247   0.46687   0.44022   0.00000  Uiso   1.00
N551   N     0.98072   0.08072   0.50308   0.00000  Uiso   1.00
N552   N     0.37388   0.38190   0.44116   0.00000  Uiso   1.00
