data_job_06414
_audit_creation_date              2018-12-19
_audit_creation_method            'Materials Studio'
_symmetry_space_group_name_H-M    'P1'
_symmetry_Int_Tables_number       1
_symmetry_cell_setting            triclinic
loop_
_symmetry_equiv_pos_as_xyz
  x,y,z
_cell_length_a                    13.2176
_cell_length_b                    24.0021
_cell_length_c                    24.0211
_cell_angle_alpha                 63.3750
_cell_angle_beta                  79.4338
_cell_angle_gamma                 100.5655
loop_
_atom_site_label
_atom_site_type_symbol
_atom_site_fract_x
_atom_site_fract_y
_atom_site_fract_z
_atom_site_U_iso_or_equiv
_atom_site_adp_type
_atom_site_occupancy
C1     C     0.60190   0.67180   0.52820   0.00000  Uiso   1.00
C2     C     0.56989   0.62350   0.60123   0.00000  Uiso   1.00
C3     C     0.63737   0.59392   0.63458   0.00000  Uiso   1.00
C4     C     0.59272   0.55118   0.70132   0.00000  Uiso   1.00
C5     C     0.55948   0.47808   0.80981   0.00000  Uiso   1.00
C6     C     0.52373   0.64279   0.50182   0.00000  Uiso   1.00
C7     C     0.55240   0.62943   0.45158   0.00000  Uiso   1.00
C8     C     0.46890   0.60294   0.43464   0.00000  Uiso   1.00
C9     C     0.36399   0.55984   0.38877   0.00000  Uiso   1.00
C10    C     0.57550   0.73314   0.52213   0.00000  Uiso   1.00
C11    C     0.64770   0.79575   0.48895   0.00000  Uiso   1.00
C12    C     0.60777   0.84533   0.48909   0.00000  Uiso   1.00
C13    C     0.58324   0.94251   0.47476   0.00000  Uiso   1.00
C14    C     0.40262   0.64851   0.58742   0.00000  Uiso   1.00
C15    C     0.46165   0.61085   0.63339   0.00000  Uiso   1.00
C16    C     0.41689   0.56815   0.70010   0.00000  Uiso   1.00
C17    C     0.48429   0.53851   0.73354   0.00000  Uiso   1.00
C18    C     0.41549   0.63014   0.53399   0.00000  Uiso   1.00
C19    C     0.33192   0.60367   0.51711   0.00000  Uiso   1.00
C20    C     0.36046   0.59027   0.46686   0.00000  Uiso   1.00
C21    C     0.46726   0.72049   0.55430   0.00000  Uiso   1.00
C22    C     0.42721   0.76998   0.55448   0.00000  Uiso   1.00
C23    C     0.49933   0.83266   0.52132   0.00000  Uiso   1.00
H24    H     0.68616   0.68165   0.50315   0.00000  Uiso   1.00
H25    H     0.72113   0.60371   0.60966   0.00000  Uiso   1.00
H26    H     0.63617   0.63924   0.42670   0.00000  Uiso   1.00
H27    H     0.73145   0.80552   0.46407   0.00000  Uiso   1.00
H28    H     0.71215   0.51171   0.74193   0.00000  Uiso   1.00
H29    H     0.53302   0.58664   0.35612   0.00000  Uiso   1.00
H30    H     0.73393   0.93729   0.43492   0.00000  Uiso   1.00
H31    H     0.31834   0.63866   0.61247   0.00000  Uiso   1.00
H32    H     0.33312   0.55837   0.72498   0.00000  Uiso   1.00
H33    H     0.24817   0.59389   0.54201   0.00000  Uiso   1.00
H34    H     0.34345   0.76017   0.57938   0.00000  Uiso   1.00
H35    H     0.39722   0.47491   0.83553   0.00000  Uiso   1.00
H36    H     0.21810   0.54983   0.44971   0.00000  Uiso   1.00
H37    H     0.41901   0.90048   0.52851   0.00000  Uiso   1.00
O38    O     0.57103   0.44125   0.86077   0.00000  Uiso   1.00
O39    O     0.33603   0.53956   0.35459   0.00000  Uiso   1.00
O40    O     0.59962   0.99960   0.45797   0.00000  Uiso   1.00
N41    N     0.63601   0.51408   0.74852   0.00000  Uiso   1.00
N42    N     0.46853   0.58412   0.38782   0.00000  Uiso   1.00
N43    N     0.65636   0.91195   0.46147   0.00000  Uiso   1.00
N44    N     0.46655   0.49427   0.79889   0.00000  Uiso   1.00
N45    N     0.29908   0.56431   0.43818   0.00000  Uiso   1.00
N46    N     0.48690   0.89214   0.51183   0.00000  Uiso   1.00
C47    C     0.92982   0.80002   0.67007   0.00000  Uiso   1.00
C48    C     0.94610   0.77521   0.62172   0.00000  Uiso   1.00
C49    C     0.04313   0.77138   0.59213   0.00000  Uiso   1.00
C50    C     0.04121   0.74731   0.54934   0.00000  Uiso   1.00
C51    C     0.08103   0.71178   0.47616   0.00000  Uiso   1.00
C52    C     0.88060   0.85535   0.64115   0.00000  Uiso   1.00
C53    C     0.92256   0.91891   0.62792   0.00000  Uiso   1.00
C54    C     0.86549   0.96230   0.60150   0.00000  Uiso   1.00
C55    C     0.80359   0.05119   0.55855   0.00000  Uiso   1.00
C56    C     0.84219   0.74487   0.73131   0.00000  Uiso   1.00
C57    C     0.85184   0.71555   0.79388   0.00000  Uiso   1.00
C58    C     0.76242   0.66593   0.84337   0.00000  Uiso   1.00
C59    C     0.64087   0.58328   0.94039   0.00000  Uiso   1.00
C60    C     0.75386   0.76407   0.64668   0.00000  Uiso   1.00
C61    C     0.85052   0.75569   0.60901   0.00000  Uiso   1.00
C62    C     0.84845   0.73161   0.56625   0.00000  Uiso   1.00
C63    C     0.94546   0.72775   0.53661   0.00000  Uiso   1.00
C64    C     0.78503   0.83583   0.62845   0.00000  Uiso   1.00
C65    C     0.72788   0.87914   0.60204   0.00000  Uiso   1.00
C66    C     0.76975   0.94274   0.58877   0.00000  Uiso   1.00
C67    C     0.74661   0.72535   0.71860   0.00000  Uiso   1.00
C68    C     0.65716   0.67577   0.76800   0.00000  Uiso   1.00
C69    C     0.66667   0.64637   0.83064   0.00000  Uiso   1.00
H70    H     0.00423   0.81522   0.67996   0.00000  Uiso   1.00
H71    H     0.11708   0.78650   0.60197   0.00000  Uiso   1.00
H72    H     0.99652   0.93400   0.63776   0.00000  Uiso   1.00
H73    H     0.92581   0.73067   0.80370   0.00000  Uiso   1.00
H74    H     0.20005   0.74607   0.50989   0.00000  Uiso   1.00
H75    H     0.94583   0.05707   0.58538   0.00000  Uiso   1.00
H76    H     0.79672   0.62831   0.93528   0.00000  Uiso   1.00
H77    H     0.67945   0.74887   0.63679   0.00000  Uiso   1.00
H78    H     0.77447   0.71651   0.55643   0.00000  Uiso   1.00
H79    H     0.65392   0.86401   0.59222   0.00000  Uiso   1.00
H80    H     0.58321   0.66068   0.75815   0.00000  Uiso   1.00
H81    H     0.92198   0.68926   0.47292   0.00000  Uiso   1.00
H82    H     0.66776   0.00027   0.54842   0.00000  Uiso   1.00
H83    H     0.51865   0.57150   0.89831   0.00000  Uiso   1.00
O84    O     0.12940   0.69759   0.43931   0.00000  Uiso   1.00
O85    O     0.79586   0.10561   0.53836   0.00000  Uiso   1.00
O86    O     0.60024   0.54308   0.99741   0.00000  Uiso   1.00
N87    N     0.12156   0.73713   0.51223   0.00000  Uiso   1.00
N88    N     0.88389   0.02790   0.58279   0.00000  Uiso   1.00
N89    N     0.74448   0.62706   0.90992   0.00000  Uiso   1.00
N90    N     0.97194   0.70656   0.49233   0.00000  Uiso   1.00
N91    N     0.73426   0.99733   0.56291   0.00000  Uiso   1.00
N92    N     0.59485   0.59649   0.89004   0.00000  Uiso   1.00
C93    C     0.12064   0.52816   0.80175   0.00000  Uiso   1.00
C94    C     0.16165   0.60127   0.77707   0.00000  Uiso   1.00
C95    C     0.26246   0.63466   0.77332   0.00000  Uiso   1.00
C96    C     0.28454   0.70147   0.74938   0.00000  Uiso   1.00
C97    C     0.35976   0.81008   0.71406   0.00000  Uiso   1.00
C98    C     0.01616   0.50186   0.85702   0.00000  Uiso   1.00
C99    C     0.99466   0.45165   0.92049   0.00000  Uiso   1.00
C100   C     0.89426   0.43477   0.96385   0.00000  Uiso   1.00
C101   C     0.74358   0.38901   0.05265   0.00000  Uiso   1.00
C102   C     0.08812   0.52198   0.74657   0.00000  Uiso   1.00
C103   C     0.12710   0.48868   0.71718   0.00000  Uiso   1.00
C104   C     0.08726   0.48873   0.66755   0.00000  Uiso   1.00
C105   C     0.04831   0.47422   0.58484   0.00000  Uiso   1.00
C106   C     0.98056   0.58744   0.76588   0.00000  Uiso   1.00
C107   C     0.08555   0.63347   0.75760   0.00000  Uiso   1.00
C108   C     0.10748   0.70025   0.73364   0.00000  Uiso   1.00
C109   C     0.20832   0.73373   0.72986   0.00000  Uiso   1.00
C110   C     0.94007   0.53405   0.83755   0.00000  Uiso   1.00
C111   C     0.83968   0.51724   0.88082   0.00000  Uiso   1.00
C112   C     0.81803   0.46703   0.94434   0.00000  Uiso   1.00
C113   C     0.01203   0.55418   0.72709   0.00000  Uiso   1.00
C114   C     0.97212   0.55428   0.67750   0.00000  Uiso   1.00
C115   C     0.01103   0.52099   0.64803   0.00000  Uiso   1.00
H116   H     0.17987   0.50309   0.81691   0.00000  Uiso   1.00
H117   H     0.32132   0.60972   0.78841   0.00000  Uiso   1.00
H118   H     0.05355   0.42674   0.93555   0.00000  Uiso   1.00
H119   H     0.18598   0.46377   0.73226   0.00000  Uiso   1.00
H120   H     0.44457   0.74213   0.74823   0.00000  Uiso   1.00
H121   H     0.87995   0.35630   0.05850   0.00000  Uiso   1.00
H122   H     0.15919   0.43438   0.62982   0.00000  Uiso   1.00
H123   H     0.92132   0.61251   0.75072   0.00000  Uiso   1.00
H124   H     0.04859   0.72515   0.71858   0.00000  Uiso   1.00
H125   H     0.78081   0.54217   0.86573   0.00000  Uiso   1.00
H126   H     0.91324   0.57920   0.66244   0.00000  Uiso   1.00
H127   H     0.22321   0.83582   0.69156   0.00000  Uiso   1.00
H128   H     0.65859   0.44998   0.00182   0.00000  Uiso   1.00
H129   H     0.93783   0.52807   0.57315   0.00000  Uiso   1.00
O130   O     0.42226   0.86110   0.69997   0.00000  Uiso   1.00
O131   O     0.68150   0.35488   0.10701   0.00000  Uiso   1.00
O132   O     0.04786   0.45733   0.54460   0.00000  Uiso   1.00
N133   N     0.37502   0.74873   0.73929   0.00000  Uiso   1.00
N134   N     0.84714   0.38800   0.02937   0.00000  Uiso   1.00
N135   N     0.10818   0.46098   0.62861   0.00000  Uiso   1.00
N136   N     0.25590   0.79914   0.70880   0.00000  Uiso   1.00
N137   N     0.72802   0.43841   0.99888   0.00000  Uiso   1.00
N138   N     0.98907   0.51140   0.59811   0.00000  Uiso   1.00
C139   C     0.10183   0.47096   0.32852   0.00000  Uiso   1.00
C140   C     0.06981   0.39788   0.37680   0.00000  Uiso   1.00
C141   C     0.13729   0.36451   0.40637   0.00000  Uiso   1.00
C142   C     0.09263   0.29772   0.44910   0.00000  Uiso   1.00
C143   C     0.05937   0.18915   0.52218   0.00000  Uiso   1.00
C144   C     0.02368   0.49738   0.35749   0.00000  Uiso   1.00
C145   C     0.05238   0.54768   0.37080   0.00000  Uiso   1.00
C146   C     0.96889   0.56466   0.39725   0.00000  Uiso   1.00
C147   C     0.86402   0.61060   0.44029   0.00000  Uiso   1.00
C148   C     0.07541   0.47700   0.26724   0.00000  Uiso   1.00
C149   C     0.14759   0.51018   0.20467   0.00000  Uiso   1.00
C150   C     0.10765   0.51002   0.15515   0.00000  Uiso   1.00
C151   C     0.08309   0.52432   0.05807   0.00000  Uiso   1.00
C152   C     0.90253   0.41170   0.35182   0.00000  Uiso   1.00
C153   C     0.96156   0.36569   0.38946   0.00000  Uiso   1.00
C154   C     0.91679   0.29894   0.43215   0.00000  Uiso   1.00
C155   C     0.98419   0.26547   0.46178   0.00000  Uiso   1.00
C156   C     0.91544   0.46520   0.37014   0.00000  Uiso   1.00
C157   C     0.83188   0.48211   0.39658   0.00000  Uiso   1.00
C158   C     0.86044   0.53241   0.40993   0.00000  Uiso   1.00
C159   C     0.96716   0.44481   0.27990   0.00000  Uiso   1.00
C160   C     0.92710   0.44461   0.23046   0.00000  Uiso   1.00
C161   C     0.99920   0.47777   0.16783   0.00000  Uiso   1.00
H162   H     0.18610   0.49603   0.31867   0.00000  Uiso   1.00
H163   H     0.22105   0.38944   0.39657   0.00000  Uiso   1.00
H164   H     0.13616   0.57259   0.36099   0.00000  Uiso   1.00
H165   H     0.23135   0.53509   0.19490   0.00000  Uiso   1.00
H166   H     0.21206   0.25708   0.48854   0.00000  Uiso   1.00
H167   H     0.03305   0.64326   0.41351   0.00000  Uiso   1.00
H168   H     0.23379   0.56420   0.06326   0.00000  Uiso   1.00
H169   H     0.81825   0.38663   0.36167   0.00000  Uiso   1.00
H170   H     0.83302   0.27404   0.44194   0.00000  Uiso   1.00
H171   H     0.74813   0.45719   0.40636   0.00000  Uiso   1.00
H172   H     0.84332   0.41969   0.24027   0.00000  Uiso   1.00
H173   H     0.89711   0.16342   0.52536   0.00000  Uiso   1.00
H174   H     0.71811   0.54961   0.45033   0.00000  Uiso   1.00
H175   H     0.91885   0.47054   0.10008   0.00000  Uiso   1.00
O176   O     0.07093   0.13816   0.55899   0.00000  Uiso   1.00
O177   O     0.83608   0.64483   0.46054   0.00000  Uiso   1.00
O178   O     0.09945   0.54109   0.00103   0.00000  Uiso   1.00
N179   N     0.13591   0.25048   0.48618   0.00000  Uiso   1.00
N180   N     0.96855   0.61154   0.41604   0.00000  Uiso   1.00
N181   N     0.15622   0.53763   0.08858   0.00000  Uiso   1.00
N182   N     0.96645   0.20009   0.50600   0.00000  Uiso   1.00
N183   N     0.79908   0.56114   0.43585   0.00000  Uiso   1.00
N184   N     0.98676   0.48724   0.10840   0.00000  Uiso   1.00
C185   C     0.42991   0.33045   0.19914   0.00000  Uiso   1.00
C186   C     0.44621   0.37886   0.22390   0.00000  Uiso   1.00
C187   C     0.54326   0.40848   0.22771   0.00000  Uiso   1.00
C188   C     0.54136   0.45133   0.25173   0.00000  Uiso   1.00
C189   C     0.58122   0.52460   0.28718   0.00000  Uiso   1.00
C190   C     0.38068   0.35937   0.14385   0.00000  Uiso   1.00
C191   C     0.42262   0.37258   0.08036   0.00000  Uiso   1.00
C192   C     0.36555   0.39901   0.03700   0.00000  Uiso   1.00
C193   C     0.30362   0.44196   0.94819   0.00000  Uiso   1.00
C194   C     0.34227   0.26918   0.25426   0.00000  Uiso   1.00
C195   C     0.35191   0.20655   0.28359   0.00000  Uiso   1.00
C196   C     0.26249   0.15704   0.33318   0.00000  Uiso   1.00
C197   C     0.14094   0.05996   0.41580   0.00000  Uiso   1.00
C198   C     0.25397   0.35388   0.23504   0.00000  Uiso   1.00
C199   C     0.35065   0.39159   0.24340   0.00000  Uiso   1.00
C200   C     0.34860   0.43441   0.26743   0.00000  Uiso   1.00
C201   C     0.44563   0.46408   0.27127   0.00000  Uiso   1.00
C202   C     0.28512   0.37210   0.16335   0.00000  Uiso   1.00
C203   C     0.22796   0.39851   0.12008   0.00000  Uiso   1.00
C204   C     0.26981   0.41176   0.05653   0.00000  Uiso   1.00
C205   C     0.24671   0.28190   0.27377   0.00000  Uiso   1.00
C206   C     0.15726   0.23248   0.32332   0.00000  Uiso   1.00
C207   C     0.16675   0.16979   0.35272   0.00000  Uiso   1.00
H208   H     0.50431   0.32054   0.18396   0.00000  Uiso   1.00
H209   H     0.61720   0.39862   0.21261   0.00000  Uiso   1.00
H210   H     0.49657   0.36271   0.06528   0.00000  Uiso   1.00
H211   H     0.42587   0.19672   0.26849   0.00000  Uiso   1.00
H212   H     0.70022   0.49082   0.25295   0.00000  Uiso   1.00
H213   H     0.44585   0.41510   0.94232   0.00000  Uiso   1.00
H214   H     0.29677   0.06505   0.37081   0.00000  Uiso   1.00
H215   H     0.17957   0.36380   0.25022   0.00000  Uiso   1.00
H216   H     0.27464   0.44425   0.28251   0.00000  Uiso   1.00
H217   H     0.15401   0.40835   0.13519   0.00000  Uiso   1.00
H218   H     0.08332   0.24235   0.33839   0.00000  Uiso   1.00
H219   H     0.42218   0.52786   0.30968   0.00000  Uiso   1.00
H220   H     0.16781   0.45213   0.99905   0.00000  Uiso   1.00
H221   H     0.01874   0.10209   0.42755   0.00000  Uiso   1.00
O222   O     0.62961   0.56150   0.30134   0.00000  Uiso   1.00
O223   O     0.29588   0.46214   0.89381   0.00000  Uiso   1.00
O224   O     0.10030   0.00290   0.45599   0.00000  Uiso   1.00
N225   N     0.62173   0.48848   0.26188   0.00000  Uiso   1.00
N226   N     0.38392   0.41770   0.97146   0.00000  Uiso   1.00
N227   N     0.24454   0.09043   0.37205   0.00000  Uiso   1.00
N228   N     0.47212   0.50841   0.29241   0.00000  Uiso   1.00
N229   N     0.23431   0.43763   0.00199   0.00000  Uiso   1.00
N230   N     0.09493   0.11036   0.40258   0.00000  Uiso   1.00
C231   C     0.62063   0.19857   0.47235   0.00000  Uiso   1.00
C232   C     0.66161   0.22323   0.39931   0.00000  Uiso   1.00
C233   C     0.76242   0.22697   0.36595   0.00000  Uiso   1.00
C234   C     0.78448   0.25090   0.29920   0.00000  Uiso   1.00
C235   C     0.85967   0.28620   0.19068   0.00000  Uiso   1.00
C236   C     0.51613   0.14325   0.49866   0.00000  Uiso   1.00
C237   C     0.49463   0.07974   0.54885   0.00000  Uiso   1.00
C238   C     0.39421   0.03635   0.56574   0.00000  Uiso   1.00
C239   C     0.24352   0.94748   0.61150   0.00000  Uiso   1.00
C240   C     0.58813   0.25381   0.47850   0.00000  Uiso   1.00
C241   C     0.62713   0.28325   0.51175   0.00000  Uiso   1.00
C242   C     0.58731   0.33294   0.51167   0.00000  Uiso   1.00
C243   C     0.54840   0.41573   0.52613   0.00000  Uiso   1.00
C244   C     0.48053   0.23445   0.41312   0.00000  Uiso   1.00
C245   C     0.58551   0.24272   0.36714   0.00000  Uiso   1.00
C246   C     0.60743   0.26666   0.30042   0.00000  Uiso   1.00
C247   C     0.70825   0.27043   0.26697   0.00000  Uiso   1.00
C248   C     0.44004   0.16273   0.46649   0.00000  Uiso   1.00
C249   C     0.33963   0.11943   0.48331   0.00000  Uiso   1.00
C250   C     0.31798   0.05587   0.53351   0.00000  Uiso   1.00
C251   C     0.51204   0.27330   0.44633   0.00000  Uiso   1.00
C252   C     0.47214   0.32294   0.44621   0.00000  Uiso   1.00
C253   C     0.51108   0.35245   0.47944   0.00000  Uiso   1.00
H254   H     0.67986   0.18340   0.49740   0.00000  Uiso   1.00
H255   H     0.82128   0.21188   0.39087   0.00000  Uiso   1.00
H256   H     0.55352   0.06468   0.57374   0.00000  Uiso   1.00
H257   H     0.68601   0.26816   0.53664   0.00000  Uiso   1.00
H258   H     0.94450   0.25202   0.25857   0.00000  Uiso   1.00
H259   H     0.37991   0.94164   0.64418   0.00000  Uiso   1.00
H260   H     0.65928   0.37072   0.56595   0.00000  Uiso   1.00
H261   H     0.42129   0.24961   0.38807   0.00000  Uiso   1.00
H262   H     0.54853   0.28173   0.27553   0.00000  Uiso   1.00
H263   H     0.28077   0.13453   0.45841   0.00000  Uiso   1.00
H264   H     0.41326   0.33801   0.42131   0.00000  Uiso   1.00
H265   H     0.72312   0.30871   0.16496   0.00000  Uiso   1.00
H266   H     0.15852   0.99834   0.55057   0.00000  Uiso   1.00
H267   H     0.43790   0.42742   0.47234   0.00000  Uiso   1.00
O268   O     0.92216   0.30028   0.13971   0.00000  Uiso   1.00
O269   O     0.18143   0.89308   0.64562   0.00000  Uiso   1.00
O270   O     0.54797   0.45602   0.54298   0.00000  Uiso   1.00
N271   N     0.87494   0.26097   0.25198   0.00000  Uiso   1.00
N272   N     0.34709   0.97078   0.61249   0.00000  Uiso   1.00
N273   N     0.60826   0.37192   0.53937   0.00000  Uiso   1.00
N274   N     0.75582   0.29147   0.20161   0.00000  Uiso   1.00
N275   N     0.22797   0.00129   0.56212   0.00000  Uiso   1.00
N276   N     0.48914   0.40243   0.48900   0.00000  Uiso   1.00
