data_job_02978
_audit_creation_date              2018-12-19
_audit_creation_method            'Materials Studio'
_symmetry_space_group_name_H-M    'P1'
_symmetry_Int_Tables_number       1
_symmetry_cell_setting            triclinic
loop_
_symmetry_equiv_pos_as_xyz
  x,y,z
_cell_length_a                    27.2329
_cell_length_b                    10.2040
_cell_length_c                    18.6084
_cell_angle_alpha                 90.0000
_cell_angle_beta                  90.0000
_cell_angle_gamma                 90.0000
loop_
_atom_site_label
_atom_site_type_symbol
_atom_site_fract_x
_atom_site_fract_y
_atom_site_fract_z
_atom_site_U_iso_or_equiv
_atom_site_adp_type
_atom_site_occupancy
C1     C     0.33712   0.60519   0.62476   0.00000  Uiso   1.00
C2     C     0.34006   0.45618   0.62927   0.00000  Uiso   1.00
C3     C     0.31166   0.36859   0.59020   0.00000  Uiso   1.00
C4     C     0.31991   0.23607   0.60204   0.00000  Uiso   1.00
C5     C     0.31908   0.01127   0.60160   0.00000  Uiso   1.00
C6     C     0.32722   0.65288   0.70106   0.00000  Uiso   1.00
C7     C     0.28803   0.73069   0.72234   0.00000  Uiso   1.00
C8     C     0.28550   0.76377   0.79462   0.00000  Uiso   1.00
C9     C     0.26476   0.84444   0.90561   0.00000  Uiso   1.00
C10    C     0.38872   0.65197   0.60599   0.00000  Uiso   1.00
C11    C     0.40125   0.72905   0.54734   0.00000  Uiso   1.00
C12    C     0.45049   0.76139   0.53958   0.00000  Uiso   1.00
C13    C     0.52524   0.84064   0.50296   0.00000  Uiso   1.00
C14    C     0.40229   0.52561   0.71529   0.00000  Uiso   1.00
C15    C     0.37546   0.41296   0.67845   0.00000  Uiso   1.00
C16    C     0.38376   0.28054   0.69036   0.00000  Uiso   1.00
C17    C     0.35538   0.19277   0.65130   0.00000  Uiso   1.00
C18    C     0.36262   0.60966   0.75023   0.00000  Uiso   1.00
C19    C     0.36014   0.64264   0.82250   0.00000  Uiso   1.00
C20    C     0.32096   0.72047   0.84388   0.00000  Uiso   1.00
C21    C     0.42413   0.60874   0.65516   0.00000  Uiso   1.00
C22    C     0.47335   0.64099   0.64750   0.00000  Uiso   1.00
C23    C     0.48595   0.71809   0.58884   0.00000  Uiso   1.00
H24    H     0.30955   0.63885   0.58648   0.00000  Uiso   1.00
H25    H     0.28426   0.40208   0.55215   0.00000  Uiso   1.00
H26    H     0.26065   0.76414   0.68427   0.00000  Uiso   1.00
H27    H     0.37384   0.76248   0.50930   0.00000  Uiso   1.00
H28    H     0.27182   0.12051   0.53580   0.00000  Uiso   1.00
H29    H     0.22204   0.88397   0.81437   0.00000  Uiso   1.00
H30    H     0.46073   0.88048   0.44540   0.00000  Uiso   1.00
H31    H     0.42985   0.49196   0.75357   0.00000  Uiso   1.00
H32    H     0.41116   0.24712   0.72841   0.00000  Uiso   1.00
H33    H     0.38755   0.60918   0.86053   0.00000  Uiso   1.00
H34    H     0.50074   0.60752   0.68556   0.00000  Uiso   1.00
H35    H     0.37481   0.99474   0.67886   0.00000  Uiso   1.00
H36    H     0.32503   0.75821   0.95743   0.00000  Uiso   1.00
H37    H     0.56372   0.75471   0.58847   0.00000  Uiso   1.00
O38    O     0.30884   0.89922   0.58778   0.00000  Uiso   1.00
O39    O     0.24353   0.90086   0.95325   0.00000  Uiso   1.00
O40    O     0.55669   0.89628   0.46917   0.00000  Uiso   1.00
N41    N     0.29863   0.12451   0.57291   0.00000  Uiso   1.00
N42    N     0.25208   0.83828   0.83336   0.00000  Uiso   1.00
N43    N     0.47524   0.83505   0.48842   0.00000  Uiso   1.00
N44    N     0.35405   0.05684   0.64989   0.00000  Uiso   1.00
N45    N     0.30751   0.77061   0.91034   0.00000  Uiso   1.00
N46    N     0.53066   0.76738   0.56540   0.00000  Uiso   1.00
C47    C     0.83712   0.10519   0.12476   0.00000  Uiso   1.00
C48    C     0.84006   0.95618   0.12927   0.00000  Uiso   1.00
C49    C     0.81166   0.86859   0.09020   0.00000  Uiso   1.00
C50    C     0.81991   0.73607   0.10204   0.00000  Uiso   1.00
C51    C     0.81908   0.51127   0.10160   0.00000  Uiso   1.00
C52    C     0.82722   0.15288   0.20106   0.00000  Uiso   1.00
C53    C     0.78803   0.23069   0.22234   0.00000  Uiso   1.00
C54    C     0.78550   0.26377   0.29462   0.00000  Uiso   1.00
C55    C     0.76476   0.34444   0.40561   0.00000  Uiso   1.00
C56    C     0.88872   0.15197   0.10599   0.00000  Uiso   1.00
C57    C     0.90125   0.22905   0.04734   0.00000  Uiso   1.00
C58    C     0.95049   0.26139   0.03958   0.00000  Uiso   1.00
C59    C     0.02524   0.34064   0.00296   0.00000  Uiso   1.00
C60    C     0.90229   0.02561   0.21529   0.00000  Uiso   1.00
C61    C     0.87546   0.91296   0.17845   0.00000  Uiso   1.00
C62    C     0.88376   0.78054   0.19036   0.00000  Uiso   1.00
C63    C     0.85538   0.69277   0.15130   0.00000  Uiso   1.00
C64    C     0.86262   0.10966   0.25023   0.00000  Uiso   1.00
C65    C     0.86014   0.14264   0.32250   0.00000  Uiso   1.00
C66    C     0.82096   0.22047   0.34388   0.00000  Uiso   1.00
C67    C     0.92413   0.10874   0.15516   0.00000  Uiso   1.00
C68    C     0.97335   0.14099   0.14750   0.00000  Uiso   1.00
C69    C     0.98595   0.21809   0.08884   0.00000  Uiso   1.00
H70    H     0.80955   0.13885   0.08648   0.00000  Uiso   1.00
H71    H     0.78426   0.90208   0.05215   0.00000  Uiso   1.00
H72    H     0.76065   0.26414   0.18427   0.00000  Uiso   1.00
H73    H     0.87384   0.26248   0.00930   0.00000  Uiso   1.00
H74    H     0.77182   0.62051   0.03580   0.00000  Uiso   1.00
H75    H     0.72204   0.38397   0.31437   0.00000  Uiso   1.00
H76    H     0.96073   0.38048   0.94540   0.00000  Uiso   1.00
H77    H     0.92985   0.99196   0.25357   0.00000  Uiso   1.00
H78    H     0.91116   0.74712   0.22841   0.00000  Uiso   1.00
H79    H     0.88755   0.10918   0.36053   0.00000  Uiso   1.00
H80    H     0.00074   0.10752   0.18556   0.00000  Uiso   1.00
H81    H     0.87481   0.49474   0.17886   0.00000  Uiso   1.00
H82    H     0.82503   0.25821   0.45743   0.00000  Uiso   1.00
H83    H     0.06372   0.25471   0.08847   0.00000  Uiso   1.00
O84    O     0.80884   0.39922   0.08778   0.00000  Uiso   1.00
O85    O     0.74353   0.40086   0.45325   0.00000  Uiso   1.00
O86    O     0.05669   0.39628   0.96917   0.00000  Uiso   1.00
N87    N     0.79863   0.62451   0.07291   0.00000  Uiso   1.00
N88    N     0.75208   0.33828   0.33336   0.00000  Uiso   1.00
N89    N     0.97524   0.33505   0.98842   0.00000  Uiso   1.00
N90    N     0.85405   0.55684   0.14989   0.00000  Uiso   1.00
N91    N     0.80751   0.27061   0.41034   0.00000  Uiso   1.00
N92    N     0.03066   0.26738   0.06540   0.00000  Uiso   1.00
C93    C     0.66288   0.39481   0.62476   0.00000  Uiso   1.00
C94    C     0.65994   0.54382   0.62927   0.00000  Uiso   1.00
C95    C     0.68834   0.63141   0.59020   0.00000  Uiso   1.00
C96    C     0.68009   0.76393   0.60204   0.00000  Uiso   1.00
C97    C     0.68092   0.98873   0.60160   0.00000  Uiso   1.00
C98    C     0.67278   0.34712   0.70106   0.00000  Uiso   1.00
C99    C     0.71197   0.26931   0.72234   0.00000  Uiso   1.00
C100   C     0.71450   0.23623   0.79462   0.00000  Uiso   1.00
C101   C     0.73524   0.15556   0.90561   0.00000  Uiso   1.00
C102   C     0.61128   0.34803   0.60599   0.00000  Uiso   1.00
C103   C     0.59875   0.27095   0.54734   0.00000  Uiso   1.00
C104   C     0.54951   0.23861   0.53958   0.00000  Uiso   1.00
C105   C     0.47476   0.15936   0.50296   0.00000  Uiso   1.00
C106   C     0.59771   0.47439   0.71529   0.00000  Uiso   1.00
C107   C     0.62454   0.58704   0.67845   0.00000  Uiso   1.00
C108   C     0.61624   0.71946   0.69036   0.00000  Uiso   1.00
C109   C     0.64462   0.80723   0.65130   0.00000  Uiso   1.00
C110   C     0.63738   0.39034   0.75023   0.00000  Uiso   1.00
C111   C     0.63986   0.35736   0.82250   0.00000  Uiso   1.00
C112   C     0.67904   0.27953   0.84388   0.00000  Uiso   1.00
C113   C     0.57587   0.39126   0.65516   0.00000  Uiso   1.00
C114   C     0.52665   0.35901   0.64750   0.00000  Uiso   1.00
C115   C     0.51405   0.28191   0.58884   0.00000  Uiso   1.00
H116   H     0.69045   0.36115   0.58648   0.00000  Uiso   1.00
H117   H     0.71574   0.59792   0.55215   0.00000  Uiso   1.00
H118   H     0.73935   0.23586   0.68427   0.00000  Uiso   1.00
H119   H     0.62616   0.23752   0.50930   0.00000  Uiso   1.00
H120   H     0.72818   0.87949   0.53580   0.00000  Uiso   1.00
H121   H     0.77796   0.11603   0.81437   0.00000  Uiso   1.00
H122   H     0.53927   0.11952   0.44540   0.00000  Uiso   1.00
H123   H     0.57015   0.50804   0.75357   0.00000  Uiso   1.00
H124   H     0.58884   0.75288   0.72841   0.00000  Uiso   1.00
H125   H     0.61245   0.39082   0.86053   0.00000  Uiso   1.00
H126   H     0.49926   0.39248   0.68556   0.00000  Uiso   1.00
H127   H     0.62519   0.00526   0.67886   0.00000  Uiso   1.00
H128   H     0.67497   0.24179   0.95743   0.00000  Uiso   1.00
H129   H     0.43628   0.24529   0.58847   0.00000  Uiso   1.00
O130   O     0.69116   0.10078   0.58778   0.00000  Uiso   1.00
O131   O     0.75647   0.09914   0.95325   0.00000  Uiso   1.00
O132   O     0.44331   0.10372   0.46917   0.00000  Uiso   1.00
N133   N     0.70137   0.87549   0.57291   0.00000  Uiso   1.00
N134   N     0.74792   0.16172   0.83336   0.00000  Uiso   1.00
N135   N     0.52476   0.16495   0.48842   0.00000  Uiso   1.00
N136   N     0.64595   0.94316   0.64989   0.00000  Uiso   1.00
N137   N     0.69249   0.22939   0.91034   0.00000  Uiso   1.00
N138   N     0.46934   0.23262   0.56540   0.00000  Uiso   1.00
C139   C     0.16288   0.89481   0.12476   0.00000  Uiso   1.00
C140   C     0.15994   0.04382   0.12927   0.00000  Uiso   1.00
C141   C     0.18834   0.13141   0.09020   0.00000  Uiso   1.00
C142   C     0.18009   0.26393   0.10204   0.00000  Uiso   1.00
C143   C     0.18092   0.48873   0.10160   0.00000  Uiso   1.00
C144   C     0.17278   0.84712   0.20106   0.00000  Uiso   1.00
C145   C     0.21197   0.76931   0.22234   0.00000  Uiso   1.00
C146   C     0.21450   0.73623   0.29462   0.00000  Uiso   1.00
C147   C     0.23524   0.65556   0.40561   0.00000  Uiso   1.00
C148   C     0.11128   0.84803   0.10599   0.00000  Uiso   1.00
C149   C     0.09875   0.77095   0.04734   0.00000  Uiso   1.00
C150   C     0.04951   0.73861   0.03958   0.00000  Uiso   1.00
C151   C     0.97476   0.65936   0.00296   0.00000  Uiso   1.00
C152   C     0.09771   0.97439   0.21529   0.00000  Uiso   1.00
C153   C     0.12454   0.08704   0.17845   0.00000  Uiso   1.00
C154   C     0.11624   0.21946   0.19036   0.00000  Uiso   1.00
C155   C     0.14462   0.30723   0.15130   0.00000  Uiso   1.00
C156   C     0.13738   0.89034   0.25023   0.00000  Uiso   1.00
C157   C     0.13986   0.85736   0.32250   0.00000  Uiso   1.00
C158   C     0.17904   0.77953   0.34388   0.00000  Uiso   1.00
C159   C     0.07587   0.89126   0.15516   0.00000  Uiso   1.00
C160   C     0.02665   0.85901   0.14750   0.00000  Uiso   1.00
C161   C     0.01405   0.78191   0.08884   0.00000  Uiso   1.00
H162   H     0.19045   0.86115   0.08648   0.00000  Uiso   1.00
H163   H     0.21574   0.09792   0.05215   0.00000  Uiso   1.00
H164   H     0.23935   0.73586   0.18427   0.00000  Uiso   1.00
H165   H     0.12616   0.73752   0.00930   0.00000  Uiso   1.00
H166   H     0.22818   0.37949   0.03580   0.00000  Uiso   1.00
H167   H     0.27796   0.61603   0.31437   0.00000  Uiso   1.00
H168   H     0.03927   0.61952   0.94540   0.00000  Uiso   1.00
H169   H     0.07015   0.00804   0.25357   0.00000  Uiso   1.00
H170   H     0.08884   0.25288   0.22841   0.00000  Uiso   1.00
H171   H     0.11245   0.89082   0.36053   0.00000  Uiso   1.00
H172   H     0.99926   0.89248   0.18556   0.00000  Uiso   1.00
H173   H     0.12519   0.50526   0.17886   0.00000  Uiso   1.00
H174   H     0.17497   0.74179   0.45743   0.00000  Uiso   1.00
H175   H     0.93628   0.74529   0.08847   0.00000  Uiso   1.00
O176   O     0.19116   0.60078   0.08778   0.00000  Uiso   1.00
O177   O     0.25647   0.59914   0.45325   0.00000  Uiso   1.00
O178   O     0.94331   0.60372   0.96917   0.00000  Uiso   1.00
N179   N     0.20137   0.37549   0.07291   0.00000  Uiso   1.00
N180   N     0.24792   0.66172   0.33336   0.00000  Uiso   1.00
N181   N     0.02476   0.66495   0.98842   0.00000  Uiso   1.00
N182   N     0.14595   0.44316   0.14989   0.00000  Uiso   1.00
N183   N     0.19249   0.72939   0.41034   0.00000  Uiso   1.00
N184   N     0.96934   0.73262   0.06540   0.00000  Uiso   1.00
C185   C     0.83712   0.89481   0.62476   0.00000  Uiso   1.00
C186   C     0.84006   0.04382   0.62927   0.00000  Uiso   1.00
C187   C     0.81166   0.13141   0.59020   0.00000  Uiso   1.00
C188   C     0.81991   0.26393   0.60204   0.00000  Uiso   1.00
C189   C     0.81908   0.48873   0.60160   0.00000  Uiso   1.00
C190   C     0.82722   0.84712   0.70106   0.00000  Uiso   1.00
C191   C     0.78803   0.76931   0.72234   0.00000  Uiso   1.00
C192   C     0.78550   0.73623   0.79462   0.00000  Uiso   1.00
C193   C     0.76476   0.65556   0.90561   0.00000  Uiso   1.00
C194   C     0.88872   0.84803   0.60599   0.00000  Uiso   1.00
C195   C     0.90125   0.77095   0.54734   0.00000  Uiso   1.00
C196   C     0.95049   0.73861   0.53958   0.00000  Uiso   1.00
C197   C     0.02524   0.65936   0.50296   0.00000  Uiso   1.00
C198   C     0.90229   0.97439   0.71529   0.00000  Uiso   1.00
C199   C     0.87546   0.08704   0.67845   0.00000  Uiso   1.00
C200   C     0.88376   0.21946   0.69036   0.00000  Uiso   1.00
C201   C     0.85538   0.30723   0.65130   0.00000  Uiso   1.00
C202   C     0.86262   0.89034   0.75023   0.00000  Uiso   1.00
C203   C     0.86014   0.85736   0.82250   0.00000  Uiso   1.00
C204   C     0.82096   0.77953   0.84388   0.00000  Uiso   1.00
C205   C     0.92413   0.89126   0.65516   0.00000  Uiso   1.00
C206   C     0.97335   0.85901   0.64750   0.00000  Uiso   1.00
C207   C     0.98595   0.78191   0.58884   0.00000  Uiso   1.00
H208   H     0.80955   0.86115   0.58648   0.00000  Uiso   1.00
H209   H     0.78426   0.09792   0.55215   0.00000  Uiso   1.00
H210   H     0.76065   0.73586   0.68427   0.00000  Uiso   1.00
H211   H     0.87384   0.73752   0.50930   0.00000  Uiso   1.00
H212   H     0.77182   0.37949   0.53580   0.00000  Uiso   1.00
H213   H     0.72204   0.61603   0.81437   0.00000  Uiso   1.00
H214   H     0.96073   0.61952   0.44540   0.00000  Uiso   1.00
H215   H     0.92985   0.00804   0.75357   0.00000  Uiso   1.00
H216   H     0.91116   0.25288   0.72841   0.00000  Uiso   1.00
H217   H     0.88755   0.89082   0.86053   0.00000  Uiso   1.00
H218   H     0.00074   0.89248   0.68556   0.00000  Uiso   1.00
H219   H     0.87481   0.50526   0.67886   0.00000  Uiso   1.00
H220   H     0.82503   0.74179   0.95743   0.00000  Uiso   1.00
H221   H     0.06372   0.74529   0.58847   0.00000  Uiso   1.00
O222   O     0.80884   0.60078   0.58778   0.00000  Uiso   1.00
O223   O     0.74353   0.59914   0.95325   0.00000  Uiso   1.00
O224   O     0.05669   0.60372   0.46917   0.00000  Uiso   1.00
N225   N     0.79863   0.37549   0.57291   0.00000  Uiso   1.00
N226   N     0.75208   0.66172   0.83336   0.00000  Uiso   1.00
N227   N     0.97524   0.66495   0.48842   0.00000  Uiso   1.00
N228   N     0.85405   0.44316   0.64989   0.00000  Uiso   1.00
N229   N     0.80751   0.72939   0.91034   0.00000  Uiso   1.00
N230   N     0.03066   0.73262   0.56540   0.00000  Uiso   1.00
C231   C     0.33712   0.39481   0.12476   0.00000  Uiso   1.00
C232   C     0.34006   0.54382   0.12927   0.00000  Uiso   1.00
C233   C     0.31166   0.63141   0.09020   0.00000  Uiso   1.00
C234   C     0.31991   0.76393   0.10204   0.00000  Uiso   1.00
C235   C     0.31908   0.98873   0.10160   0.00000  Uiso   1.00
C236   C     0.32722   0.34712   0.20106   0.00000  Uiso   1.00
C237   C     0.28803   0.26931   0.22234   0.00000  Uiso   1.00
C238   C     0.28550   0.23623   0.29462   0.00000  Uiso   1.00
C239   C     0.26476   0.15556   0.40561   0.00000  Uiso   1.00
C240   C     0.38872   0.34803   0.10599   0.00000  Uiso   1.00
C241   C     0.40125   0.27095   0.04734   0.00000  Uiso   1.00
C242   C     0.45049   0.23861   0.03958   0.00000  Uiso   1.00
C243   C     0.52524   0.15936   0.00296   0.00000  Uiso   1.00
C244   C     0.40229   0.47439   0.21529   0.00000  Uiso   1.00
C245   C     0.37546   0.58704   0.17845   0.00000  Uiso   1.00
C246   C     0.38376   0.71946   0.19036   0.00000  Uiso   1.00
C247   C     0.35538   0.80723   0.15130   0.00000  Uiso   1.00
C248   C     0.36262   0.39034   0.25023   0.00000  Uiso   1.00
C249   C     0.36014   0.35736   0.32250   0.00000  Uiso   1.00
C250   C     0.32096   0.27953   0.34388   0.00000  Uiso   1.00
C251   C     0.42413   0.39126   0.15516   0.00000  Uiso   1.00
C252   C     0.47335   0.35901   0.14750   0.00000  Uiso   1.00
C253   C     0.48595   0.28191   0.08884   0.00000  Uiso   1.00
H254   H     0.30955   0.36115   0.08648   0.00000  Uiso   1.00
H255   H     0.28426   0.59792   0.05215   0.00000  Uiso   1.00
H256   H     0.26065   0.23586   0.18427   0.00000  Uiso   1.00
H257   H     0.37384   0.23752   0.00930   0.00000  Uiso   1.00
H258   H     0.27182   0.87949   0.03580   0.00000  Uiso   1.00
H259   H     0.22204   0.11603   0.31437   0.00000  Uiso   1.00
H260   H     0.46073   0.11952   0.94540   0.00000  Uiso   1.00
H261   H     0.42985   0.50804   0.25357   0.00000  Uiso   1.00
H262   H     0.41116   0.75288   0.22841   0.00000  Uiso   1.00
H263   H     0.38755   0.39082   0.36053   0.00000  Uiso   1.00
H264   H     0.50074   0.39248   0.18556   0.00000  Uiso   1.00
H265   H     0.37481   0.00526   0.17886   0.00000  Uiso   1.00
H266   H     0.32503   0.24179   0.45743   0.00000  Uiso   1.00
H267   H     0.56372   0.24529   0.08847   0.00000  Uiso   1.00
O268   O     0.30884   0.10078   0.08778   0.00000  Uiso   1.00
O269   O     0.24353   0.09914   0.45325   0.00000  Uiso   1.00
O270   O     0.55669   0.10372   0.96917   0.00000  Uiso   1.00
N271   N     0.29863   0.87549   0.07291   0.00000  Uiso   1.00
N272   N     0.25208   0.16172   0.33336   0.00000  Uiso   1.00
N273   N     0.47524   0.16495   0.98842   0.00000  Uiso   1.00
N274   N     0.35405   0.94316   0.14989   0.00000  Uiso   1.00
N275   N     0.30751   0.22939   0.41034   0.00000  Uiso   1.00
N276   N     0.53066   0.23262   0.06540   0.00000  Uiso   1.00
C277   C     0.16288   0.10519   0.62476   0.00000  Uiso   1.00
C278   C     0.15994   0.95618   0.62927   0.00000  Uiso   1.00
C279   C     0.18834   0.86859   0.59020   0.00000  Uiso   1.00
C280   C     0.18009   0.73607   0.60204   0.00000  Uiso   1.00
C281   C     0.18092   0.51127   0.60160   0.00000  Uiso   1.00
C282   C     0.17278   0.15288   0.70106   0.00000  Uiso   1.00
C283   C     0.21197   0.23069   0.72234   0.00000  Uiso   1.00
C284   C     0.21450   0.26377   0.79462   0.00000  Uiso   1.00
C285   C     0.23524   0.34444   0.90561   0.00000  Uiso   1.00
C286   C     0.11128   0.15197   0.60599   0.00000  Uiso   1.00
C287   C     0.09875   0.22905   0.54734   0.00000  Uiso   1.00
C288   C     0.04951   0.26139   0.53958   0.00000  Uiso   1.00
C289   C     0.97476   0.34064   0.50296   0.00000  Uiso   1.00
C290   C     0.09771   0.02561   0.71529   0.00000  Uiso   1.00
C291   C     0.12454   0.91296   0.67845   0.00000  Uiso   1.00
C292   C     0.11624   0.78054   0.69036   0.00000  Uiso   1.00
C293   C     0.14462   0.69277   0.65130   0.00000  Uiso   1.00
C294   C     0.13738   0.10966   0.75023   0.00000  Uiso   1.00
C295   C     0.13986   0.14264   0.82250   0.00000  Uiso   1.00
C296   C     0.17904   0.22047   0.84388   0.00000  Uiso   1.00
C297   C     0.07587   0.10874   0.65516   0.00000  Uiso   1.00
C298   C     0.02665   0.14099   0.64750   0.00000  Uiso   1.00
C299   C     0.01405   0.21809   0.58884   0.00000  Uiso   1.00
H300   H     0.19045   0.13885   0.58648   0.00000  Uiso   1.00
H301   H     0.21574   0.90208   0.55215   0.00000  Uiso   1.00
H302   H     0.23935   0.26414   0.68427   0.00000  Uiso   1.00
H303   H     0.12616   0.26248   0.50930   0.00000  Uiso   1.00
H304   H     0.22818   0.62051   0.53580   0.00000  Uiso   1.00
H305   H     0.27796   0.38397   0.81437   0.00000  Uiso   1.00
H306   H     0.03927   0.38048   0.44540   0.00000  Uiso   1.00
H307   H     0.07015   0.99196   0.75357   0.00000  Uiso   1.00
H308   H     0.08884   0.74712   0.72841   0.00000  Uiso   1.00
H309   H     0.11245   0.10918   0.86053   0.00000  Uiso   1.00
H310   H     0.99926   0.10752   0.68556   0.00000  Uiso   1.00
H311   H     0.12519   0.49474   0.67886   0.00000  Uiso   1.00
H312   H     0.17497   0.25821   0.95743   0.00000  Uiso   1.00
H313   H     0.93628   0.25471   0.58847   0.00000  Uiso   1.00
O314   O     0.19116   0.39922   0.58778   0.00000  Uiso   1.00
O315   O     0.25647   0.40086   0.95325   0.00000  Uiso   1.00
O316   O     0.94331   0.39628   0.46917   0.00000  Uiso   1.00
N317   N     0.20137   0.62451   0.57291   0.00000  Uiso   1.00
N318   N     0.24792   0.33828   0.83336   0.00000  Uiso   1.00
N319   N     0.02476   0.33505   0.48842   0.00000  Uiso   1.00
N320   N     0.14595   0.55684   0.64989   0.00000  Uiso   1.00
N321   N     0.19249   0.27061   0.91034   0.00000  Uiso   1.00
N322   N     0.96934   0.26738   0.56540   0.00000  Uiso   1.00
C323   C     0.66288   0.60519   0.12476   0.00000  Uiso   1.00
C324   C     0.65994   0.45618   0.12927   0.00000  Uiso   1.00
C325   C     0.68834   0.36859   0.09020   0.00000  Uiso   1.00
C326   C     0.68009   0.23607   0.10204   0.00000  Uiso   1.00
C327   C     0.68092   0.01127   0.10160   0.00000  Uiso   1.00
C328   C     0.67278   0.65288   0.20106   0.00000  Uiso   1.00
C329   C     0.71197   0.73069   0.22234   0.00000  Uiso   1.00
C330   C     0.71450   0.76377   0.29462   0.00000  Uiso   1.00
C331   C     0.73524   0.84444   0.40561   0.00000  Uiso   1.00
C332   C     0.61128   0.65197   0.10599   0.00000  Uiso   1.00
C333   C     0.59875   0.72905   0.04734   0.00000  Uiso   1.00
C334   C     0.54951   0.76139   0.03958   0.00000  Uiso   1.00
C335   C     0.47476   0.84064   0.00296   0.00000  Uiso   1.00
C336   C     0.59771   0.52561   0.21529   0.00000  Uiso   1.00
C337   C     0.62454   0.41296   0.17845   0.00000  Uiso   1.00
C338   C     0.61624   0.28054   0.19036   0.00000  Uiso   1.00
C339   C     0.64462   0.19277   0.15130   0.00000  Uiso   1.00
C340   C     0.63738   0.60966   0.25023   0.00000  Uiso   1.00
C341   C     0.63986   0.64264   0.32250   0.00000  Uiso   1.00
C342   C     0.67904   0.72047   0.34388   0.00000  Uiso   1.00
C343   C     0.57587   0.60874   0.15516   0.00000  Uiso   1.00
C344   C     0.52665   0.64099   0.14750   0.00000  Uiso   1.00
C345   C     0.51405   0.71809   0.08884   0.00000  Uiso   1.00
H346   H     0.69045   0.63885   0.08648   0.00000  Uiso   1.00
H347   H     0.71574   0.40208   0.05215   0.00000  Uiso   1.00
H348   H     0.73935   0.76414   0.18427   0.00000  Uiso   1.00
H349   H     0.62616   0.76248   0.00930   0.00000  Uiso   1.00
H350   H     0.72818   0.12051   0.03580   0.00000  Uiso   1.00
H351   H     0.77796   0.88397   0.31437   0.00000  Uiso   1.00
H352   H     0.53927   0.88048   0.94540   0.00000  Uiso   1.00
H353   H     0.57015   0.49196   0.25357   0.00000  Uiso   1.00
H354   H     0.58884   0.24712   0.22841   0.00000  Uiso   1.00
H355   H     0.61245   0.60918   0.36053   0.00000  Uiso   1.00
H356   H     0.49926   0.60752   0.18556   0.00000  Uiso   1.00
H357   H     0.62519   0.99474   0.17886   0.00000  Uiso   1.00
H358   H     0.67497   0.75821   0.45743   0.00000  Uiso   1.00
H359   H     0.43628   0.75471   0.08847   0.00000  Uiso   1.00
O360   O     0.69116   0.89922   0.08778   0.00000  Uiso   1.00
O361   O     0.75647   0.90086   0.45325   0.00000  Uiso   1.00
O362   O     0.44331   0.89628   0.96917   0.00000  Uiso   1.00
N363   N     0.70137   0.12451   0.07291   0.00000  Uiso   1.00
N364   N     0.74792   0.83828   0.33336   0.00000  Uiso   1.00
N365   N     0.52476   0.83505   0.98842   0.00000  Uiso   1.00
N366   N     0.64595   0.05684   0.14989   0.00000  Uiso   1.00
N367   N     0.69249   0.77061   0.41034   0.00000  Uiso   1.00
N368   N     0.46934   0.76738   0.06540   0.00000  Uiso   1.00
