data_job_05687
_audit_creation_date              2018-12-19
_audit_creation_method            'Materials Studio'
_symmetry_space_group_name_H-M    'P1'
_symmetry_Int_Tables_number       1
_symmetry_cell_setting            triclinic
loop_
_symmetry_equiv_pos_as_xyz
  x,y,z
_cell_length_a                    17.6200
_cell_length_b                    23.0933
_cell_length_c                    7.2714
_cell_angle_alpha                 90.0000
_cell_angle_beta                  98.6382
_cell_angle_gamma                 90.0000
loop_
_atom_site_label
_atom_site_type_symbol
_atom_site_fract_x
_atom_site_fract_y
_atom_site_fract_z
_atom_site_U_iso_or_equiv
_atom_site_adp_type
_atom_site_occupancy
C1     C     0.75657   0.52911   0.25263   0.00000  Uiso   1.00
C2     C     0.67174   0.54251   0.25134   0.00000  Uiso   1.00
C3     C     0.61878   0.55471   0.09487   0.00000  Uiso   1.00
C4     C     0.54393   0.56582   0.12291   0.00000  Uiso   1.00
C5     C     0.41543   0.58681   0.09381   0.00000  Uiso   1.00
C6     C     0.80073   0.57310   0.38391   0.00000  Uiso   1.00
C7     C     0.85622   0.61102   0.33891   0.00000  Uiso   1.00
C8     C     0.88995   0.64788   0.47857   0.00000  Uiso   1.00
C9     C     0.96175   0.71634   0.65534   0.00000  Uiso   1.00
C10    C     0.77069   0.47038   0.34745   0.00000  Uiso   1.00
C11    C     0.80094   0.42194   0.27182   0.00000  Uiso   1.00
C12    C     0.80940   0.37232   0.38080   0.00000  Uiso   1.00
C13    C     0.83454   0.28129   0.50096   0.00000  Uiso   1.00
C14    C     0.71783   0.52713   0.58069   0.00000  Uiso   1.00
C15    C     0.65070   0.54143   0.42953   0.00000  Uiso   1.00
C16    C     0.57591   0.55252   0.45783   0.00000  Uiso   1.00
C17    C     0.52285   0.56474   0.30142   0.00000  Uiso   1.00
C18    C     0.77969   0.57203   0.56210   0.00000  Uiso   1.00
C19    C     0.81336   0.60883   0.70187   0.00000  Uiso   1.00
C20    C     0.86888   0.64680   0.65709   0.00000  Uiso   1.00
C21    C     0.74964   0.46931   0.52564   0.00000  Uiso   1.00
C22    C     0.75807   0.41975   0.63478   0.00000  Uiso   1.00
C23    C     0.78832   0.37124   0.55932   0.00000  Uiso   1.00
H24    H     0.77295   0.52995   0.11391   0.00000  Uiso   1.00
H25    H     0.63509   0.55555   0.95699   0.00000  Uiso   1.00
H26    H     0.87249   0.61184   0.20101   0.00000  Uiso   1.00
H27    H     0.81721   0.42279   0.13392   0.00000  Uiso   1.00
H28    H     0.47296   0.58347   0.86161   0.00000  Uiso   1.00
H29    H     0.97357   0.70216   0.37615   0.00000  Uiso   1.00
H30    H     0.85700   0.30350   0.23468   0.00000  Uiso   1.00
H31    H     0.70145   0.52630   0.71943   0.00000  Uiso   1.00
H32    H     0.55965   0.55169   0.59574   0.00000  Uiso   1.00
H33    H     0.79706   0.60799   0.83975   0.00000  Uiso   1.00
H34    H     0.74178   0.41893   0.77266   0.00000  Uiso   1.00
H35    H     0.41173   0.58034   0.38004   0.00000  Uiso   1.00
H36    H     0.91234   0.69903   0.89458   0.00000  Uiso   1.00
H37    H     0.79577   0.30038   0.75312   0.00000  Uiso   1.00
O38    O     0.35036   0.59869   0.02854   0.00000  Uiso   1.00
O39    O     0.00715   0.75440   0.70360   0.00000  Uiso   1.00
O40    O     0.85421   0.23138   0.51800   0.00000  Uiso   1.00
N41    N     0.47801   0.57923   0.00059   0.00000  Uiso   1.00
N42    N     0.94604   0.69021   0.48165   0.00000  Uiso   1.00
N43    N     0.83707   0.31751   0.34941   0.00000  Uiso   1.00
N44    N     0.44506   0.57755   0.27956   0.00000  Uiso   1.00
N45    N     0.91309   0.68852   0.76061   0.00000  Uiso   1.00
N46    N     0.80413   0.31582   0.62837   0.00000  Uiso   1.00
C47    C     0.24343   0.02911   0.24737   0.00000  Uiso   1.00
C48    C     0.32826   0.04251   0.24866   0.00000  Uiso   1.00
C49    C     0.38122   0.05471   0.40513   0.00000  Uiso   1.00
C50    C     0.45607   0.06582   0.37709   0.00000  Uiso   1.00
C51    C     0.58457   0.08681   0.40619   0.00000  Uiso   1.00
C52    C     0.19927   0.07310   0.11609   0.00000  Uiso   1.00
C53    C     0.14378   0.11102   0.16109   0.00000  Uiso   1.00
C54    C     0.11005   0.14788   0.02143   0.00000  Uiso   1.00
C55    C     0.03825   0.21634   0.84466   0.00000  Uiso   1.00
C56    C     0.22931   0.97038   0.15255   0.00000  Uiso   1.00
C57    C     0.19906   0.92194   0.22818   0.00000  Uiso   1.00
C58    C     0.19060   0.87232   0.11920   0.00000  Uiso   1.00
C59    C     0.16546   0.78129   0.99904   0.00000  Uiso   1.00
C60    C     0.28217   0.02713   0.91931   0.00000  Uiso   1.00
C61    C     0.34930   0.04143   0.07047   0.00000  Uiso   1.00
C62    C     0.42409   0.05252   0.04217   0.00000  Uiso   1.00
C63    C     0.47715   0.06474   0.19858   0.00000  Uiso   1.00
C64    C     0.22031   0.07203   0.93790   0.00000  Uiso   1.00
C65    C     0.18664   0.10883   0.79813   0.00000  Uiso   1.00
C66    C     0.13112   0.14680   0.84291   0.00000  Uiso   1.00
C67    C     0.25036   0.96931   0.97436   0.00000  Uiso   1.00
C68    C     0.24193   0.91975   0.86522   0.00000  Uiso   1.00
C69    C     0.21168   0.87124   0.94068   0.00000  Uiso   1.00
H70    H     0.22705   0.02995   0.38609   0.00000  Uiso   1.00
H71    H     0.36491   0.05555   0.54301   0.00000  Uiso   1.00
H72    H     0.12751   0.11184   0.29899   0.00000  Uiso   1.00
H73    H     0.18279   0.92279   0.36608   0.00000  Uiso   1.00
H74    H     0.52704   0.08347   0.63839   0.00000  Uiso   1.00
H75    H     0.02643   0.20216   0.12385   0.00000  Uiso   1.00
H76    H     0.14300   0.80350   0.26532   0.00000  Uiso   1.00
H77    H     0.29855   0.02630   0.78057   0.00000  Uiso   1.00
H78    H     0.44035   0.05169   0.90426   0.00000  Uiso   1.00
H79    H     0.20294   0.10799   0.66025   0.00000  Uiso   1.00
H80    H     0.25822   0.91893   0.72734   0.00000  Uiso   1.00
H81    H     0.58827   0.08034   0.11996   0.00000  Uiso   1.00
H82    H     0.08766   0.19903   0.60542   0.00000  Uiso   1.00
H83    H     0.20423   0.80038   0.74688   0.00000  Uiso   1.00
O84    O     0.64964   0.09869   0.47146   0.00000  Uiso   1.00
O85    O     0.99285   0.25440   0.79640   0.00000  Uiso   1.00
O86    O     0.14579   0.73138   0.98200   0.00000  Uiso   1.00
N87    N     0.52199   0.07923   0.49941   0.00000  Uiso   1.00
N88    N     0.05396   0.19021   0.01835   0.00000  Uiso   1.00
N89    N     0.16293   0.81751   0.15059   0.00000  Uiso   1.00
N90    N     0.55494   0.07755   0.22044   0.00000  Uiso   1.00
N91    N     0.08691   0.18852   0.73939   0.00000  Uiso   1.00
N92    N     0.19587   0.81582   0.87163   0.00000  Uiso   1.00
C93    C     0.24343   0.47089   0.74737   0.00000  Uiso   1.00
C94    C     0.32826   0.45749   0.74866   0.00000  Uiso   1.00
C95    C     0.38122   0.44529   0.90513   0.00000  Uiso   1.00
C96    C     0.45607   0.43418   0.87709   0.00000  Uiso   1.00
C97    C     0.58457   0.41319   0.90619   0.00000  Uiso   1.00
C98    C     0.19927   0.42690   0.61609   0.00000  Uiso   1.00
C99    C     0.14378   0.38898   0.66109   0.00000  Uiso   1.00
C100   C     0.11005   0.35212   0.52143   0.00000  Uiso   1.00
C101   C     0.03825   0.28366   0.34466   0.00000  Uiso   1.00
C102   C     0.22931   0.52962   0.65255   0.00000  Uiso   1.00
C103   C     0.19906   0.57806   0.72818   0.00000  Uiso   1.00
C104   C     0.19060   0.62768   0.61920   0.00000  Uiso   1.00
C105   C     0.16546   0.71871   0.49904   0.00000  Uiso   1.00
C106   C     0.28217   0.47287   0.41931   0.00000  Uiso   1.00
C107   C     0.34930   0.45857   0.57047   0.00000  Uiso   1.00
C108   C     0.42409   0.44748   0.54217   0.00000  Uiso   1.00
C109   C     0.47715   0.43526   0.69858   0.00000  Uiso   1.00
C110   C     0.22031   0.42797   0.43790   0.00000  Uiso   1.00
C111   C     0.18664   0.39117   0.29813   0.00000  Uiso   1.00
C112   C     0.13112   0.35320   0.34291   0.00000  Uiso   1.00
C113   C     0.25036   0.53069   0.47436   0.00000  Uiso   1.00
C114   C     0.24193   0.58025   0.36522   0.00000  Uiso   1.00
C115   C     0.21168   0.62876   0.44068   0.00000  Uiso   1.00
H116   H     0.22705   0.47005   0.88609   0.00000  Uiso   1.00
H117   H     0.36491   0.44445   0.04301   0.00000  Uiso   1.00
H118   H     0.12751   0.38816   0.79899   0.00000  Uiso   1.00
H119   H     0.18279   0.57721   0.86608   0.00000  Uiso   1.00
H120   H     0.52704   0.41653   0.13839   0.00000  Uiso   1.00
H121   H     0.02643   0.29784   0.62385   0.00000  Uiso   1.00
H122   H     0.14300   0.69650   0.76532   0.00000  Uiso   1.00
H123   H     0.29855   0.47370   0.28057   0.00000  Uiso   1.00
H124   H     0.44035   0.44831   0.40426   0.00000  Uiso   1.00
H125   H     0.20294   0.39201   0.16025   0.00000  Uiso   1.00
H126   H     0.25822   0.58107   0.22734   0.00000  Uiso   1.00
H127   H     0.58827   0.41966   0.61996   0.00000  Uiso   1.00
H128   H     0.08766   0.30097   0.10542   0.00000  Uiso   1.00
H129   H     0.20423   0.69962   0.24688   0.00000  Uiso   1.00
O130   O     0.64964   0.40131   0.97146   0.00000  Uiso   1.00
O131   O     0.99285   0.24560   0.29640   0.00000  Uiso   1.00
O132   O     0.14579   0.76862   0.48200   0.00000  Uiso   1.00
N133   N     0.52199   0.42077   0.99941   0.00000  Uiso   1.00
N134   N     0.05396   0.30979   0.51835   0.00000  Uiso   1.00
N135   N     0.16293   0.68249   0.65059   0.00000  Uiso   1.00
N136   N     0.55494   0.42245   0.72044   0.00000  Uiso   1.00
N137   N     0.08691   0.31148   0.23939   0.00000  Uiso   1.00
N138   N     0.19587   0.68418   0.37163   0.00000  Uiso   1.00
C139   C     0.75657   0.97089   0.75263   0.00000  Uiso   1.00
C140   C     0.67174   0.95749   0.75134   0.00000  Uiso   1.00
C141   C     0.61878   0.94529   0.59487   0.00000  Uiso   1.00
C142   C     0.54393   0.93418   0.62291   0.00000  Uiso   1.00
C143   C     0.41543   0.91319   0.59381   0.00000  Uiso   1.00
C144   C     0.80073   0.92690   0.88391   0.00000  Uiso   1.00
C145   C     0.85622   0.88898   0.83891   0.00000  Uiso   1.00
C146   C     0.88995   0.85212   0.97857   0.00000  Uiso   1.00
C147   C     0.96175   0.78366   0.15534   0.00000  Uiso   1.00
C148   C     0.77069   0.02962   0.84745   0.00000  Uiso   1.00
C149   C     0.80094   0.07806   0.77182   0.00000  Uiso   1.00
C150   C     0.80940   0.12768   0.88080   0.00000  Uiso   1.00
C151   C     0.83454   0.21871   0.00096   0.00000  Uiso   1.00
C152   C     0.71783   0.97287   0.08069   0.00000  Uiso   1.00
C153   C     0.65070   0.95857   0.92953   0.00000  Uiso   1.00
C154   C     0.57591   0.94748   0.95783   0.00000  Uiso   1.00
C155   C     0.52285   0.93526   0.80142   0.00000  Uiso   1.00
C156   C     0.77969   0.92797   0.06210   0.00000  Uiso   1.00
C157   C     0.81336   0.89117   0.20187   0.00000  Uiso   1.00
C158   C     0.86888   0.85320   0.15709   0.00000  Uiso   1.00
C159   C     0.74964   0.03069   0.02564   0.00000  Uiso   1.00
C160   C     0.75807   0.08025   0.13478   0.00000  Uiso   1.00
C161   C     0.78832   0.12876   0.05932   0.00000  Uiso   1.00
H162   H     0.77295   0.97005   0.61391   0.00000  Uiso   1.00
H163   H     0.63509   0.94445   0.45699   0.00000  Uiso   1.00
H164   H     0.87249   0.88816   0.70101   0.00000  Uiso   1.00
H165   H     0.81721   0.07721   0.63392   0.00000  Uiso   1.00
H166   H     0.47296   0.91653   0.36161   0.00000  Uiso   1.00
H167   H     0.97357   0.79784   0.87615   0.00000  Uiso   1.00
H168   H     0.85700   0.19650   0.73468   0.00000  Uiso   1.00
H169   H     0.70145   0.97370   0.21943   0.00000  Uiso   1.00
H170   H     0.55965   0.94831   0.09574   0.00000  Uiso   1.00
H171   H     0.79706   0.89201   0.33975   0.00000  Uiso   1.00
H172   H     0.74178   0.08107   0.27266   0.00000  Uiso   1.00
H173   H     0.41173   0.91966   0.88004   0.00000  Uiso   1.00
H174   H     0.91234   0.80097   0.39458   0.00000  Uiso   1.00
H175   H     0.79577   0.19962   0.25312   0.00000  Uiso   1.00
O176   O     0.35036   0.90131   0.52854   0.00000  Uiso   1.00
O177   O     0.00715   0.74560   0.20360   0.00000  Uiso   1.00
O178   O     0.85421   0.26862   0.01800   0.00000  Uiso   1.00
N179   N     0.47801   0.92077   0.50059   0.00000  Uiso   1.00
N180   N     0.94604   0.80979   0.98165   0.00000  Uiso   1.00
N181   N     0.83707   0.18249   0.84941   0.00000  Uiso   1.00
N182   N     0.44506   0.92245   0.77956   0.00000  Uiso   1.00
N183   N     0.91309   0.81148   0.26061   0.00000  Uiso   1.00
N184   N     0.80413   0.18418   0.12837   0.00000  Uiso   1.00
