data_job_01149
_audit_creation_date              2018-12-19
_audit_creation_method            'Materials Studio'
_symmetry_space_group_name_H-M    'P1'
_symmetry_Int_Tables_number       1
_symmetry_cell_setting            triclinic
loop_
_symmetry_equiv_pos_as_xyz
  x,y,z
_cell_length_a                    22.9751
_cell_length_b                    22.9751
_cell_length_c                    8.0673
_cell_angle_alpha                 90.0000
_cell_angle_beta                  90.0000
_cell_angle_gamma                 120.0000
loop_
_atom_site_label
_atom_site_type_symbol
_atom_site_fract_x
_atom_site_fract_y
_atom_site_fract_z
_atom_site_U_iso_or_equiv
_atom_site_adp_type
_atom_site_occupancy
C1     C     0.94179   0.27312   0.82434   0.00000  Uiso   1.00
C2     C     0.92905   0.22376   0.96489   0.00000  Uiso   1.00
C3     C     0.89536   0.15426   0.95081   0.00000  Uiso   1.00
C4     C     0.88893   0.11795   0.09394   0.00000  Uiso   1.00
C5     C     0.86511   0.03643   0.28913   0.00000  Uiso   1.00
C6     C     0.91188   0.31595   0.88098   0.00000  Uiso   1.00
C7     C     0.86376   0.32396   0.79633   0.00000  Uiso   1.00
C8     C     0.84289   0.36527   0.86882   0.00000  Uiso   1.00
C9     C     0.79246   0.42691   0.93368   0.00000  Uiso   1.00
C10    C     0.01766   0.32016   0.81850   0.00000  Uiso   1.00
C11    C     0.05849   0.33173   0.68130   0.00000  Uiso   1.00
C12    C     0.12668   0.37659   0.70118   0.00000  Uiso   1.00
C13    C     0.24049   0.44477   0.66902   0.00000  Uiso   1.00
C14    C     0.99029   0.33224   0.10357   0.00000  Uiso   1.00
C15    C     0.95539   0.25587   0.11656   0.00000  Uiso   1.00
C16    C     0.94902   0.21966   0.25975   0.00000  Uiso   1.00
C17    C     0.91533   0.15012   0.24588   0.00000  Uiso   1.00
C18    C     0.93822   0.34806   0.03265   0.00000  Uiso   1.00
C19    C     0.91742   0.38937   0.10527   0.00000  Uiso   1.00
C20    C     0.86928   0.39744   0.02076   0.00000  Uiso   1.00
C21    C     0.04401   0.35227   0.97017   0.00000  Uiso   1.00
C22    C     0.11215   0.39713   0.99025   0.00000  Uiso   1.00
C23    C     0.15307   0.40876   0.85312   0.00000  Uiso   1.00
H24    H     0.92127   0.24812   0.70626   0.00000  Uiso   1.00
H25    H     0.87497   0.12942   0.83341   0.00000  Uiso   1.00
H26    H     0.84339   0.29911   0.67896   0.00000  Uiso   1.00
H27    H     0.03808   0.30687   0.56396   0.00000  Uiso   1.00
H28    H     0.83523   0.01199   0.04129   0.00000  Uiso   1.00
H29    H     0.76865   0.36980   0.71558   0.00000  Uiso   1.00
H30    H     0.17920   0.38616   0.47307   0.00000  Uiso   1.00
H31    H     0.01080   0.35724   0.22166   0.00000  Uiso   1.00
H32    H     0.96941   0.24453   0.37710   0.00000  Uiso   1.00
H33    H     0.93783   0.41421   0.22264   0.00000  Uiso   1.00
H34    H     0.13252   0.42197   0.10764   0.00000  Uiso   1.00
H35    H     0.91188   0.10541   0.48257   0.00000  Uiso   1.00
H36    H     0.84530   0.46322   0.15685   0.00000  Uiso   1.00
H37    H     0.25586   0.47959   0.91435   0.00000  Uiso   1.00
O38    O     0.84469   0.98259   0.35490   0.00000  Uiso   1.00
O39    O     0.75735   0.45203   0.92756   0.00000  Uiso   1.00
O40    O     0.29599   0.47349   0.60939   0.00000  Uiso   1.00
N41    N     0.85896   0.04944   0.12381   0.00000  Uiso   1.00
N42    N     0.79670   0.38397   0.81930   0.00000  Uiso   1.00
N43    N     0.18054   0.39928   0.59256   0.00000  Uiso   1.00
N44    N     0.90021   0.09971   0.36126   0.00000  Uiso   1.00
N45    N     0.83795   0.43424   0.05675   0.00000  Uiso   1.00
N46    N     0.22178   0.44955   0.83001   0.00000  Uiso   1.00
C47    C     0.72688   0.66867   0.82434   0.00000  Uiso   1.00
C48    C     0.77624   0.70529   0.96489   0.00000  Uiso   1.00
C49    C     0.84574   0.74110   0.95081   0.00000  Uiso   1.00
C50    C     0.88205   0.77098   0.09394   0.00000  Uiso   1.00
C51    C     0.96357   0.82869   0.28913   0.00000  Uiso   1.00
C52    C     0.68405   0.59593   0.88098   0.00000  Uiso   1.00
C53    C     0.67604   0.53980   0.79633   0.00000  Uiso   1.00
C54    C     0.63473   0.47762   0.86882   0.00000  Uiso   1.00
C55    C     0.57309   0.36555   0.93368   0.00000  Uiso   1.00
C56    C     0.67984   0.69751   0.81850   0.00000  Uiso   1.00
C57    C     0.66827   0.72676   0.68130   0.00000  Uiso   1.00
C58    C     0.62341   0.75008   0.70118   0.00000  Uiso   1.00
C59    C     0.55523   0.79572   0.66902   0.00000  Uiso   1.00
C60    C     0.66776   0.65806   0.10357   0.00000  Uiso   1.00
C61    C     0.74413   0.69952   0.11656   0.00000  Uiso   1.00
C62    C     0.78034   0.72936   0.25975   0.00000  Uiso   1.00
C63    C     0.84988   0.76521   0.24588   0.00000  Uiso   1.00
C64    C     0.65194   0.59017   0.03265   0.00000  Uiso   1.00
C65    C     0.61063   0.52805   0.10527   0.00000  Uiso   1.00
C66    C     0.60256   0.47184   0.02076   0.00000  Uiso   1.00
C67    C     0.64773   0.69174   0.97017   0.00000  Uiso   1.00
C68    C     0.60287   0.71502   0.99025   0.00000  Uiso   1.00
C69    C     0.59124   0.74431   0.85312   0.00000  Uiso   1.00
H70    H     0.75188   0.67315   0.70626   0.00000  Uiso   1.00
H71    H     0.87058   0.74555   0.83341   0.00000  Uiso   1.00
H72    H     0.70089   0.54428   0.67896   0.00000  Uiso   1.00
H73    H     0.69313   0.73121   0.56396   0.00000  Uiso   1.00
H74    H     0.98801   0.82324   0.04129   0.00000  Uiso   1.00
H75    H     0.63020   0.39885   0.71558   0.00000  Uiso   1.00
H76    H     0.61384   0.79304   0.47307   0.00000  Uiso   1.00
H77    H     0.64276   0.65357   0.22166   0.00000  Uiso   1.00
H78    H     0.75547   0.72489   0.37710   0.00000  Uiso   1.00
H79    H     0.58579   0.52361   0.22264   0.00000  Uiso   1.00
H80    H     0.57803   0.71055   0.10764   0.00000  Uiso   1.00
H81    H     0.89459   0.80647   0.48257   0.00000  Uiso   1.00
H82    H     0.53678   0.38208   0.15685   0.00000  Uiso   1.00
H83    H     0.52041   0.77627   0.91435   0.00000  Uiso   1.00
O84    O     0.01741   0.86211   0.35490   0.00000  Uiso   1.00
O85    O     0.54797   0.30532   0.92756   0.00000  Uiso   1.00
O86    O     0.52651   0.82249   0.60939   0.00000  Uiso   1.00
N87    N     0.95056   0.80952   0.12381   0.00000  Uiso   1.00
N88    N     0.61603   0.41274   0.81930   0.00000  Uiso   1.00
N89    N     0.60072   0.78126   0.59256   0.00000  Uiso   1.00
N90    N     0.90029   0.80049   0.36126   0.00000  Uiso   1.00
N91    N     0.56576   0.40371   0.05675   0.00000  Uiso   1.00
N92    N     0.55045   0.77223   0.83001   0.00000  Uiso   1.00
C93    C     0.33133   0.05821   0.82434   0.00000  Uiso   1.00
C94    C     0.29471   0.07095   0.96489   0.00000  Uiso   1.00
C95    C     0.25890   0.10464   0.95081   0.00000  Uiso   1.00
C96    C     0.22902   0.11107   0.09394   0.00000  Uiso   1.00
C97    C     0.17131   0.13489   0.28913   0.00000  Uiso   1.00
C98    C     0.40407   0.08812   0.88098   0.00000  Uiso   1.00
C99    C     0.46020   0.13624   0.79633   0.00000  Uiso   1.00
C100   C     0.52238   0.15711   0.86882   0.00000  Uiso   1.00
C101   C     0.63445   0.20754   0.93368   0.00000  Uiso   1.00
C102   C     0.30249   0.98234   0.81850   0.00000  Uiso   1.00
C103   C     0.27324   0.94151   0.68130   0.00000  Uiso   1.00
C104   C     0.24992   0.87332   0.70118   0.00000  Uiso   1.00
C105   C     0.20428   0.75951   0.66902   0.00000  Uiso   1.00
C106   C     0.34194   0.00971   0.10357   0.00000  Uiso   1.00
C107   C     0.30048   0.04461   0.11656   0.00000  Uiso   1.00
C108   C     0.27064   0.05098   0.25975   0.00000  Uiso   1.00
C109   C     0.23479   0.08467   0.24588   0.00000  Uiso   1.00
C110   C     0.40983   0.06178   0.03265   0.00000  Uiso   1.00
C111   C     0.47195   0.08258   0.10527   0.00000  Uiso   1.00
C112   C     0.52816   0.13072   0.02076   0.00000  Uiso   1.00
C113   C     0.30826   0.95599   0.97017   0.00000  Uiso   1.00
C114   C     0.28498   0.88785   0.99025   0.00000  Uiso   1.00
C115   C     0.25569   0.84693   0.85312   0.00000  Uiso   1.00
H116   H     0.32685   0.07873   0.70626   0.00000  Uiso   1.00
H117   H     0.25445   0.12503   0.83341   0.00000  Uiso   1.00
H118   H     0.45572   0.15661   0.67896   0.00000  Uiso   1.00
H119   H     0.26879   0.96192   0.56396   0.00000  Uiso   1.00
H120   H     0.17676   0.16477   0.04129   0.00000  Uiso   1.00
H121   H     0.60115   0.23135   0.71558   0.00000  Uiso   1.00
H122   H     0.20696   0.82080   0.47307   0.00000  Uiso   1.00
H123   H     0.34643   0.98920   0.22166   0.00000  Uiso   1.00
H124   H     0.27511   0.03059   0.37710   0.00000  Uiso   1.00
H125   H     0.47639   0.06217   0.22264   0.00000  Uiso   1.00
H126   H     0.28945   0.86748   0.10764   0.00000  Uiso   1.00
H127   H     0.19353   0.08812   0.48257   0.00000  Uiso   1.00
H128   H     0.61792   0.15470   0.15685   0.00000  Uiso   1.00
H129   H     0.22373   0.74414   0.91435   0.00000  Uiso   1.00
O130   O     0.13789   0.15531   0.35490   0.00000  Uiso   1.00
O131   O     0.69468   0.24265   0.92756   0.00000  Uiso   1.00
O132   O     0.17751   0.70401   0.60939   0.00000  Uiso   1.00
N133   N     0.19048   0.14104   0.12381   0.00000  Uiso   1.00
N134   N     0.58726   0.20330   0.81930   0.00000  Uiso   1.00
N135   N     0.21874   0.81946   0.59256   0.00000  Uiso   1.00
N136   N     0.19951   0.09979   0.36126   0.00000  Uiso   1.00
N137   N     0.59629   0.16205   0.05675   0.00000  Uiso   1.00
N138   N     0.22777   0.77822   0.83001   0.00000  Uiso   1.00
C139   C     0.05821   0.72688   0.17566   0.00000  Uiso   1.00
C140   C     0.07095   0.77624   0.03511   0.00000  Uiso   1.00
C141   C     0.10464   0.84574   0.04919   0.00000  Uiso   1.00
C142   C     0.11107   0.88205   0.90606   0.00000  Uiso   1.00
C143   C     0.13489   0.96357   0.71087   0.00000  Uiso   1.00
C144   C     0.08812   0.68405   0.11902   0.00000  Uiso   1.00
C145   C     0.13624   0.67604   0.20367   0.00000  Uiso   1.00
C146   C     0.15711   0.63473   0.13118   0.00000  Uiso   1.00
C147   C     0.20754   0.57309   0.06632   0.00000  Uiso   1.00
C148   C     0.98234   0.67984   0.18150   0.00000  Uiso   1.00
C149   C     0.94151   0.66827   0.31870   0.00000  Uiso   1.00
C150   C     0.87332   0.62341   0.29882   0.00000  Uiso   1.00
C151   C     0.75951   0.55523   0.33098   0.00000  Uiso   1.00
C152   C     0.00971   0.66776   0.89643   0.00000  Uiso   1.00
C153   C     0.04461   0.74413   0.88344   0.00000  Uiso   1.00
C154   C     0.05098   0.78034   0.74025   0.00000  Uiso   1.00
C155   C     0.08467   0.84988   0.75412   0.00000  Uiso   1.00
C156   C     0.06178   0.65194   0.96735   0.00000  Uiso   1.00
C157   C     0.08258   0.61063   0.89473   0.00000  Uiso   1.00
C158   C     0.13072   0.60256   0.97924   0.00000  Uiso   1.00
C159   C     0.95599   0.64773   0.02983   0.00000  Uiso   1.00
C160   C     0.88785   0.60287   0.00975   0.00000  Uiso   1.00
C161   C     0.84693   0.59124   0.14688   0.00000  Uiso   1.00
H162   H     0.07873   0.75188   0.29374   0.00000  Uiso   1.00
H163   H     0.12503   0.87058   0.16659   0.00000  Uiso   1.00
H164   H     0.15661   0.70089   0.32104   0.00000  Uiso   1.00
H165   H     0.96192   0.69313   0.43604   0.00000  Uiso   1.00
H166   H     0.16477   0.98801   0.95871   0.00000  Uiso   1.00
H167   H     0.23135   0.63020   0.28442   0.00000  Uiso   1.00
H168   H     0.82080   0.61384   0.52693   0.00000  Uiso   1.00
H169   H     0.98920   0.64276   0.77834   0.00000  Uiso   1.00
H170   H     0.03059   0.75547   0.62290   0.00000  Uiso   1.00
H171   H     0.06217   0.58579   0.77736   0.00000  Uiso   1.00
H172   H     0.86748   0.57803   0.89236   0.00000  Uiso   1.00
H173   H     0.08812   0.89459   0.51743   0.00000  Uiso   1.00
H174   H     0.15470   0.53678   0.84315   0.00000  Uiso   1.00
H175   H     0.74414   0.52041   0.08565   0.00000  Uiso   1.00
O176   O     0.15531   0.01741   0.64510   0.00000  Uiso   1.00
O177   O     0.24265   0.54797   0.07244   0.00000  Uiso   1.00
O178   O     0.70401   0.52651   0.39061   0.00000  Uiso   1.00
N179   N     0.14104   0.95056   0.87619   0.00000  Uiso   1.00
N180   N     0.20330   0.61603   0.18070   0.00000  Uiso   1.00
N181   N     0.81946   0.60072   0.40744   0.00000  Uiso   1.00
N182   N     0.09979   0.90029   0.63874   0.00000  Uiso   1.00
N183   N     0.16205   0.56576   0.94325   0.00000  Uiso   1.00
N184   N     0.77822   0.55045   0.16999   0.00000  Uiso   1.00
C185   C     0.27312   0.33133   0.17566   0.00000  Uiso   1.00
C186   C     0.22376   0.29471   0.03511   0.00000  Uiso   1.00
C187   C     0.15426   0.25890   0.04919   0.00000  Uiso   1.00
C188   C     0.11795   0.22902   0.90606   0.00000  Uiso   1.00
C189   C     0.03643   0.17131   0.71087   0.00000  Uiso   1.00
C190   C     0.31595   0.40407   0.11902   0.00000  Uiso   1.00
C191   C     0.32396   0.46020   0.20367   0.00000  Uiso   1.00
C192   C     0.36527   0.52238   0.13118   0.00000  Uiso   1.00
C193   C     0.42691   0.63445   0.06632   0.00000  Uiso   1.00
C194   C     0.32016   0.30249   0.18150   0.00000  Uiso   1.00
C195   C     0.33173   0.27324   0.31870   0.00000  Uiso   1.00
C196   C     0.37659   0.24992   0.29882   0.00000  Uiso   1.00
C197   C     0.44477   0.20428   0.33098   0.00000  Uiso   1.00
C198   C     0.33224   0.34194   0.89643   0.00000  Uiso   1.00
C199   C     0.25587   0.30048   0.88344   0.00000  Uiso   1.00
C200   C     0.21966   0.27064   0.74025   0.00000  Uiso   1.00
C201   C     0.15012   0.23479   0.75412   0.00000  Uiso   1.00
C202   C     0.34806   0.40983   0.96735   0.00000  Uiso   1.00
C203   C     0.38937   0.47195   0.89473   0.00000  Uiso   1.00
C204   C     0.39744   0.52816   0.97924   0.00000  Uiso   1.00
C205   C     0.35227   0.30826   0.02983   0.00000  Uiso   1.00
C206   C     0.39713   0.28498   0.00975   0.00000  Uiso   1.00
C207   C     0.40876   0.25569   0.14688   0.00000  Uiso   1.00
H208   H     0.24812   0.32685   0.29374   0.00000  Uiso   1.00
H209   H     0.12942   0.25445   0.16659   0.00000  Uiso   1.00
H210   H     0.29911   0.45572   0.32104   0.00000  Uiso   1.00
H211   H     0.30687   0.26879   0.43604   0.00000  Uiso   1.00
H212   H     0.01199   0.17676   0.95871   0.00000  Uiso   1.00
H213   H     0.36980   0.60115   0.28442   0.00000  Uiso   1.00
H214   H     0.38616   0.20696   0.52693   0.00000  Uiso   1.00
H215   H     0.35724   0.34643   0.77834   0.00000  Uiso   1.00
H216   H     0.24453   0.27511   0.62290   0.00000  Uiso   1.00
H217   H     0.41421   0.47639   0.77736   0.00000  Uiso   1.00
H218   H     0.42197   0.28945   0.89236   0.00000  Uiso   1.00
H219   H     0.10541   0.19353   0.51743   0.00000  Uiso   1.00
H220   H     0.46322   0.61792   0.84315   0.00000  Uiso   1.00
H221   H     0.47959   0.22373   0.08565   0.00000  Uiso   1.00
O222   O     0.98259   0.13789   0.64510   0.00000  Uiso   1.00
O223   O     0.45203   0.69468   0.07244   0.00000  Uiso   1.00
O224   O     0.47349   0.17751   0.39061   0.00000  Uiso   1.00
N225   N     0.04944   0.19048   0.87619   0.00000  Uiso   1.00
N226   N     0.38397   0.58726   0.18070   0.00000  Uiso   1.00
N227   N     0.39928   0.21874   0.40744   0.00000  Uiso   1.00
N228   N     0.09971   0.19951   0.63874   0.00000  Uiso   1.00
N229   N     0.43424   0.59629   0.94325   0.00000  Uiso   1.00
N230   N     0.44955   0.22777   0.16999   0.00000  Uiso   1.00
C231   C     0.66867   0.94179   0.17566   0.00000  Uiso   1.00
C232   C     0.70529   0.92905   0.03511   0.00000  Uiso   1.00
C233   C     0.74110   0.89536   0.04919   0.00000  Uiso   1.00
C234   C     0.77098   0.88893   0.90606   0.00000  Uiso   1.00
C235   C     0.82869   0.86511   0.71087   0.00000  Uiso   1.00
C236   C     0.59593   0.91188   0.11902   0.00000  Uiso   1.00
C237   C     0.53980   0.86376   0.20367   0.00000  Uiso   1.00
C238   C     0.47762   0.84289   0.13118   0.00000  Uiso   1.00
C239   C     0.36555   0.79246   0.06632   0.00000  Uiso   1.00
C240   C     0.69751   0.01766   0.18150   0.00000  Uiso   1.00
C241   C     0.72676   0.05849   0.31870   0.00000  Uiso   1.00
C242   C     0.75008   0.12668   0.29882   0.00000  Uiso   1.00
C243   C     0.79572   0.24049   0.33098   0.00000  Uiso   1.00
C244   C     0.65806   0.99029   0.89643   0.00000  Uiso   1.00
C245   C     0.69952   0.95539   0.88344   0.00000  Uiso   1.00
C246   C     0.72936   0.94902   0.74025   0.00000  Uiso   1.00
C247   C     0.76521   0.91533   0.75412   0.00000  Uiso   1.00
C248   C     0.59017   0.93822   0.96735   0.00000  Uiso   1.00
C249   C     0.52805   0.91742   0.89473   0.00000  Uiso   1.00
C250   C     0.47184   0.86928   0.97924   0.00000  Uiso   1.00
C251   C     0.69174   0.04401   0.02983   0.00000  Uiso   1.00
C252   C     0.71502   0.11215   0.00975   0.00000  Uiso   1.00
C253   C     0.74431   0.15307   0.14688   0.00000  Uiso   1.00
H254   H     0.67315   0.92127   0.29374   0.00000  Uiso   1.00
H255   H     0.74555   0.87497   0.16659   0.00000  Uiso   1.00
H256   H     0.54428   0.84339   0.32104   0.00000  Uiso   1.00
H257   H     0.73121   0.03808   0.43604   0.00000  Uiso   1.00
H258   H     0.82324   0.83523   0.95871   0.00000  Uiso   1.00
H259   H     0.39885   0.76865   0.28442   0.00000  Uiso   1.00
H260   H     0.79304   0.17920   0.52693   0.00000  Uiso   1.00
H261   H     0.65357   0.01080   0.77834   0.00000  Uiso   1.00
H262   H     0.72489   0.96941   0.62290   0.00000  Uiso   1.00
H263   H     0.52361   0.93783   0.77736   0.00000  Uiso   1.00
H264   H     0.71055   0.13252   0.89236   0.00000  Uiso   1.00
H265   H     0.80647   0.91188   0.51743   0.00000  Uiso   1.00
H266   H     0.38208   0.84530   0.84315   0.00000  Uiso   1.00
H267   H     0.77627   0.25586   0.08565   0.00000  Uiso   1.00
O268   O     0.86211   0.84469   0.64510   0.00000  Uiso   1.00
O269   O     0.30532   0.75735   0.07244   0.00000  Uiso   1.00
O270   O     0.82249   0.29599   0.39061   0.00000  Uiso   1.00
N271   N     0.80952   0.85896   0.87619   0.00000  Uiso   1.00
N272   N     0.41274   0.79670   0.18070   0.00000  Uiso   1.00
N273   N     0.78126   0.18054   0.40744   0.00000  Uiso   1.00
N274   N     0.80049   0.90021   0.63874   0.00000  Uiso   1.00
N275   N     0.40371   0.83795   0.94325   0.00000  Uiso   1.00
N276   N     0.77223   0.22178   0.16999   0.00000  Uiso   1.00
