data_job_00911
_audit_creation_date              2018-12-19
_audit_creation_method            'Materials Studio'
_symmetry_space_group_name_H-M    'P1'
_symmetry_Int_Tables_number       1
_symmetry_cell_setting            triclinic
loop_
_symmetry_equiv_pos_as_xyz
  x,y,z
_cell_length_a                    22.4103
_cell_length_b                    26.9049
_cell_length_c                    10.3725
_cell_angle_alpha                 90.0000
_cell_angle_beta                  90.0000
_cell_angle_gamma                 90.0000
loop_
_atom_site_label
_atom_site_type_symbol
_atom_site_fract_x
_atom_site_fract_y
_atom_site_fract_z
_atom_site_U_iso_or_equiv
_atom_site_adp_type
_atom_site_occupancy
C1     C     0.86105   0.13294   0.58110   0.00000  Uiso   1.00
C2     C     0.79908   0.15201   0.61633   0.00000  Uiso   1.00
C3     C     0.78235   0.17119   0.73515   0.00000  Uiso   1.00
C4     C     0.72354   0.18665   0.74810   0.00000  Uiso   1.00
C5     C     0.63348   0.21679   0.81839   0.00000  Uiso   1.00
C6     C     0.85240   0.07963   0.53482   0.00000  Uiso   1.00
C7     C     0.88050   0.03795   0.58509   0.00000  Uiso   1.00
C8     C     0.86659   0.99248   0.52941   0.00000  Uiso   1.00
C9     C     0.85934   0.91024   0.47308   0.00000  Uiso   1.00
C10    C     0.88049   0.16262   0.46311   0.00000  Uiso   1.00
C11    C     0.93222   0.19071   0.45308   0.00000  Uiso   1.00
C12    C     0.94196   0.21510   0.33700   0.00000  Uiso   1.00
C13    C     0.97833   0.26172   0.16934   0.00000  Uiso   1.00
C14    C     0.78637   0.12629   0.39279   0.00000  Uiso   1.00
C15    C     0.75852   0.14840   0.51405   0.00000  Uiso   1.00
C16    C     0.69973   0.16383   0.52682   0.00000  Uiso   1.00
C17    C     0.68291   0.18303   0.64564   0.00000  Uiso   1.00
C18    C     0.81184   0.07602   0.43254   0.00000  Uiso   1.00
C19    C     0.79788   0.03059   0.37676   0.00000  Uiso   1.00
C20    C     0.82596   0.98886   0.42694   0.00000  Uiso   1.00
C21    C     0.83993   0.15901   0.36083   0.00000  Uiso   1.00
C22    C     0.84960   0.18335   0.24474   0.00000  Uiso   1.00
C23    C     0.90133   0.21148   0.23454   0.00000  Uiso   1.00
H24    H     0.89263   0.13575   0.66073   0.00000  Uiso   1.00
H25    H     0.81375   0.17397   0.81429   0.00000  Uiso   1.00
H26    H     0.91189   0.04076   0.66424   0.00000  Uiso   1.00
H27    H     0.96360   0.19349   0.53225   0.00000  Uiso   1.00
H28    H     0.70840   0.21475   0.93945   0.00000  Uiso   1.00
H29    H     0.91536   0.93385   0.62303   0.00000  Uiso   1.00
H30    H     0.02440   0.25593   0.34470   0.00000  Uiso   1.00
H31    H     0.75479   0.12348   0.31316   0.00000  Uiso   1.00
H32    H     0.66835   0.16103   0.44765   0.00000  Uiso   1.00
H33    H     0.76650   0.02781   0.29760   0.00000  Uiso   1.00
H34    H     0.81820   0.18055   0.16561   0.00000  Uiso   1.00
H35    H     0.59039   0.20424   0.64187   0.00000  Uiso   1.00
H36    H     0.79736   0.92334   0.32545   0.00000  Uiso   1.00
H37    H     0.90639   0.24542   0.04712   0.00000  Uiso   1.00
O38    O     0.59501   0.23440   0.88542   0.00000  Uiso   1.00
O39    O     0.86655   0.86588   0.47027   0.00000  Uiso   1.00
O40    O     0.00959   0.28844   0.10512   0.00000  Uiso   1.00
N41    N     0.69249   0.20713   0.85095   0.00000  Uiso   1.00
N42    N     0.88599   0.94451   0.55513   0.00000  Uiso   1.00
N43    N     0.98793   0.24561   0.29490   0.00000  Uiso   1.00
N44    N     0.62899   0.20148   0.69082   0.00000  Uiso   1.00
N45    N     0.82248   0.93885   0.39501   0.00000  Uiso   1.00
N46    N     0.92443   0.23996   0.13478   0.00000  Uiso   1.00
C47    C     0.36105   0.63294   0.58110   0.00000  Uiso   1.00
C48    C     0.29908   0.65201   0.61633   0.00000  Uiso   1.00
C49    C     0.28235   0.67119   0.73515   0.00000  Uiso   1.00
C50    C     0.22354   0.68665   0.74810   0.00000  Uiso   1.00
C51    C     0.13348   0.71679   0.81839   0.00000  Uiso   1.00
C52    C     0.35240   0.57963   0.53482   0.00000  Uiso   1.00
C53    C     0.38050   0.53795   0.58509   0.00000  Uiso   1.00
C54    C     0.36659   0.49248   0.52941   0.00000  Uiso   1.00
C55    C     0.35934   0.41024   0.47308   0.00000  Uiso   1.00
C56    C     0.38049   0.66262   0.46311   0.00000  Uiso   1.00
C57    C     0.43222   0.69071   0.45308   0.00000  Uiso   1.00
C58    C     0.44196   0.71510   0.33700   0.00000  Uiso   1.00
C59    C     0.47833   0.76172   0.16934   0.00000  Uiso   1.00
C60    C     0.28637   0.62629   0.39279   0.00000  Uiso   1.00
C61    C     0.25852   0.64840   0.51405   0.00000  Uiso   1.00
C62    C     0.19973   0.66383   0.52682   0.00000  Uiso   1.00
C63    C     0.18291   0.68303   0.64564   0.00000  Uiso   1.00
C64    C     0.31184   0.57602   0.43254   0.00000  Uiso   1.00
C65    C     0.29788   0.53059   0.37676   0.00000  Uiso   1.00
C66    C     0.32596   0.48886   0.42694   0.00000  Uiso   1.00
C67    C     0.33993   0.65901   0.36083   0.00000  Uiso   1.00
C68    C     0.34960   0.68335   0.24474   0.00000  Uiso   1.00
C69    C     0.40133   0.71148   0.23454   0.00000  Uiso   1.00
H70    H     0.39263   0.63575   0.66073   0.00000  Uiso   1.00
H71    H     0.31375   0.67397   0.81429   0.00000  Uiso   1.00
H72    H     0.41189   0.54076   0.66424   0.00000  Uiso   1.00
H73    H     0.46360   0.69349   0.53225   0.00000  Uiso   1.00
H74    H     0.20840   0.71475   0.93945   0.00000  Uiso   1.00
H75    H     0.41536   0.43385   0.62303   0.00000  Uiso   1.00
H76    H     0.52440   0.75593   0.34470   0.00000  Uiso   1.00
H77    H     0.25479   0.62348   0.31316   0.00000  Uiso   1.00
H78    H     0.16835   0.66103   0.44765   0.00000  Uiso   1.00
H79    H     0.26650   0.52781   0.29760   0.00000  Uiso   1.00
H80    H     0.31820   0.68055   0.16561   0.00000  Uiso   1.00
H81    H     0.09039   0.70424   0.64187   0.00000  Uiso   1.00
H82    H     0.29736   0.42334   0.32545   0.00000  Uiso   1.00
H83    H     0.40639   0.74542   0.04712   0.00000  Uiso   1.00
O84    O     0.09501   0.73440   0.88542   0.00000  Uiso   1.00
O85    O     0.36655   0.36588   0.47027   0.00000  Uiso   1.00
O86    O     0.50959   0.78844   0.10512   0.00000  Uiso   1.00
N87    N     0.19249   0.70713   0.85095   0.00000  Uiso   1.00
N88    N     0.38599   0.44451   0.55513   0.00000  Uiso   1.00
N89    N     0.48793   0.74561   0.29490   0.00000  Uiso   1.00
N90    N     0.12899   0.70148   0.69082   0.00000  Uiso   1.00
N91    N     0.32248   0.43885   0.39501   0.00000  Uiso   1.00
N92    N     0.42443   0.73996   0.13478   0.00000  Uiso   1.00
C93    C     0.13895   0.86706   0.58110   0.00000  Uiso   1.00
C94    C     0.20092   0.84799   0.61633   0.00000  Uiso   1.00
C95    C     0.21765   0.82881   0.73515   0.00000  Uiso   1.00
C96    C     0.27646   0.81335   0.74810   0.00000  Uiso   1.00
C97    C     0.36652   0.78321   0.81839   0.00000  Uiso   1.00
C98    C     0.14760   0.92037   0.53482   0.00000  Uiso   1.00
C99    C     0.11950   0.96205   0.58509   0.00000  Uiso   1.00
C100   C     0.13341   0.00752   0.52941   0.00000  Uiso   1.00
C101   C     0.14066   0.08976   0.47308   0.00000  Uiso   1.00
C102   C     0.11951   0.83738   0.46311   0.00000  Uiso   1.00
C103   C     0.06778   0.80929   0.45308   0.00000  Uiso   1.00
C104   C     0.05804   0.78490   0.33700   0.00000  Uiso   1.00
C105   C     0.02167   0.73828   0.16934   0.00000  Uiso   1.00
C106   C     0.21363   0.87371   0.39279   0.00000  Uiso   1.00
C107   C     0.24148   0.85160   0.51405   0.00000  Uiso   1.00
C108   C     0.30027   0.83617   0.52682   0.00000  Uiso   1.00
C109   C     0.31709   0.81697   0.64564   0.00000  Uiso   1.00
C110   C     0.18816   0.92398   0.43254   0.00000  Uiso   1.00
C111   C     0.20212   0.96941   0.37676   0.00000  Uiso   1.00
C112   C     0.17404   0.01114   0.42694   0.00000  Uiso   1.00
C113   C     0.16007   0.84099   0.36083   0.00000  Uiso   1.00
C114   C     0.15040   0.81665   0.24474   0.00000  Uiso   1.00
C115   C     0.09867   0.78852   0.23454   0.00000  Uiso   1.00
H116   H     0.10737   0.86425   0.66073   0.00000  Uiso   1.00
H117   H     0.18625   0.82603   0.81429   0.00000  Uiso   1.00
H118   H     0.08811   0.95924   0.66424   0.00000  Uiso   1.00
H119   H     0.03640   0.80651   0.53225   0.00000  Uiso   1.00
H120   H     0.29160   0.78525   0.93945   0.00000  Uiso   1.00
H121   H     0.08464   0.06615   0.62303   0.00000  Uiso   1.00
H122   H     0.97560   0.74407   0.34470   0.00000  Uiso   1.00
H123   H     0.24521   0.87652   0.31316   0.00000  Uiso   1.00
H124   H     0.33165   0.83897   0.44765   0.00000  Uiso   1.00
H125   H     0.23350   0.97219   0.29760   0.00000  Uiso   1.00
H126   H     0.18180   0.81945   0.16561   0.00000  Uiso   1.00
H127   H     0.40961   0.79576   0.64187   0.00000  Uiso   1.00
H128   H     0.20264   0.07666   0.32545   0.00000  Uiso   1.00
H129   H     0.09361   0.75458   0.04712   0.00000  Uiso   1.00
O130   O     0.40499   0.76560   0.88542   0.00000  Uiso   1.00
O131   O     0.13345   0.13412   0.47027   0.00000  Uiso   1.00
O132   O     0.99041   0.71156   0.10512   0.00000  Uiso   1.00
N133   N     0.30751   0.79287   0.85095   0.00000  Uiso   1.00
N134   N     0.11401   0.05549   0.55513   0.00000  Uiso   1.00
N135   N     0.01207   0.75439   0.29490   0.00000  Uiso   1.00
N136   N     0.37101   0.79852   0.69082   0.00000  Uiso   1.00
N137   N     0.17752   0.06115   0.39501   0.00000  Uiso   1.00
N138   N     0.07557   0.76004   0.13478   0.00000  Uiso   1.00
C139   C     0.63895   0.36706   0.58110   0.00000  Uiso   1.00
C140   C     0.70092   0.34799   0.61633   0.00000  Uiso   1.00
C141   C     0.71765   0.32881   0.73515   0.00000  Uiso   1.00
C142   C     0.77646   0.31335   0.74810   0.00000  Uiso   1.00
C143   C     0.86652   0.28321   0.81839   0.00000  Uiso   1.00
C144   C     0.64760   0.42037   0.53482   0.00000  Uiso   1.00
C145   C     0.61950   0.46205   0.58509   0.00000  Uiso   1.00
C146   C     0.63341   0.50752   0.52941   0.00000  Uiso   1.00
C147   C     0.64066   0.58976   0.47308   0.00000  Uiso   1.00
C148   C     0.61951   0.33738   0.46311   0.00000  Uiso   1.00
C149   C     0.56778   0.30929   0.45308   0.00000  Uiso   1.00
C150   C     0.55804   0.28490   0.33700   0.00000  Uiso   1.00
C151   C     0.52167   0.23828   0.16934   0.00000  Uiso   1.00
C152   C     0.71363   0.37371   0.39279   0.00000  Uiso   1.00
C153   C     0.74148   0.35160   0.51405   0.00000  Uiso   1.00
C154   C     0.80027   0.33617   0.52682   0.00000  Uiso   1.00
C155   C     0.81709   0.31697   0.64564   0.00000  Uiso   1.00
C156   C     0.68816   0.42398   0.43254   0.00000  Uiso   1.00
C157   C     0.70212   0.46941   0.37676   0.00000  Uiso   1.00
C158   C     0.67404   0.51114   0.42694   0.00000  Uiso   1.00
C159   C     0.66007   0.34099   0.36083   0.00000  Uiso   1.00
C160   C     0.65040   0.31665   0.24474   0.00000  Uiso   1.00
C161   C     0.59867   0.28852   0.23454   0.00000  Uiso   1.00
H162   H     0.60737   0.36425   0.66073   0.00000  Uiso   1.00
H163   H     0.68625   0.32603   0.81429   0.00000  Uiso   1.00
H164   H     0.58811   0.45924   0.66424   0.00000  Uiso   1.00
H165   H     0.53640   0.30651   0.53225   0.00000  Uiso   1.00
H166   H     0.79160   0.28525   0.93945   0.00000  Uiso   1.00
H167   H     0.58464   0.56615   0.62303   0.00000  Uiso   1.00
H168   H     0.47560   0.24407   0.34470   0.00000  Uiso   1.00
H169   H     0.74521   0.37652   0.31316   0.00000  Uiso   1.00
H170   H     0.83165   0.33897   0.44765   0.00000  Uiso   1.00
H171   H     0.73350   0.47219   0.29760   0.00000  Uiso   1.00
H172   H     0.68180   0.31945   0.16561   0.00000  Uiso   1.00
H173   H     0.90961   0.29576   0.64187   0.00000  Uiso   1.00
H174   H     0.70264   0.57666   0.32545   0.00000  Uiso   1.00
H175   H     0.59361   0.25458   0.04712   0.00000  Uiso   1.00
O176   O     0.90499   0.26560   0.88542   0.00000  Uiso   1.00
O177   O     0.63345   0.63412   0.47027   0.00000  Uiso   1.00
O178   O     0.49041   0.21156   0.10512   0.00000  Uiso   1.00
N179   N     0.80751   0.29287   0.85095   0.00000  Uiso   1.00
N180   N     0.61401   0.55549   0.55513   0.00000  Uiso   1.00
N181   N     0.51207   0.25439   0.29490   0.00000  Uiso   1.00
N182   N     0.87101   0.29852   0.69082   0.00000  Uiso   1.00
N183   N     0.67752   0.56115   0.39501   0.00000  Uiso   1.00
N184   N     0.57557   0.26004   0.13478   0.00000  Uiso   1.00
C185   C     0.86105   0.86706   0.08110   0.00000  Uiso   1.00
C186   C     0.79908   0.84799   0.11633   0.00000  Uiso   1.00
C187   C     0.78235   0.82881   0.23515   0.00000  Uiso   1.00
C188   C     0.72354   0.81335   0.24810   0.00000  Uiso   1.00
C189   C     0.63348   0.78321   0.31839   0.00000  Uiso   1.00
C190   C     0.85240   0.92037   0.03482   0.00000  Uiso   1.00
C191   C     0.88050   0.96205   0.08509   0.00000  Uiso   1.00
C192   C     0.86659   0.00752   0.02941   0.00000  Uiso   1.00
C193   C     0.85934   0.08976   0.97308   0.00000  Uiso   1.00
C194   C     0.88049   0.83738   0.96311   0.00000  Uiso   1.00
C195   C     0.93222   0.80929   0.95308   0.00000  Uiso   1.00
C196   C     0.94196   0.78490   0.83700   0.00000  Uiso   1.00
C197   C     0.97833   0.73828   0.66934   0.00000  Uiso   1.00
C198   C     0.78637   0.87371   0.89279   0.00000  Uiso   1.00
C199   C     0.75852   0.85160   0.01405   0.00000  Uiso   1.00
C200   C     0.69973   0.83617   0.02682   0.00000  Uiso   1.00
C201   C     0.68291   0.81697   0.14564   0.00000  Uiso   1.00
C202   C     0.81184   0.92398   0.93254   0.00000  Uiso   1.00
C203   C     0.79788   0.96941   0.87676   0.00000  Uiso   1.00
C204   C     0.82596   0.01114   0.92694   0.00000  Uiso   1.00
C205   C     0.83993   0.84099   0.86083   0.00000  Uiso   1.00
C206   C     0.84960   0.81665   0.74474   0.00000  Uiso   1.00
C207   C     0.90133   0.78852   0.73454   0.00000  Uiso   1.00
H208   H     0.89263   0.86425   0.16073   0.00000  Uiso   1.00
H209   H     0.81375   0.82603   0.31429   0.00000  Uiso   1.00
H210   H     0.91189   0.95924   0.16424   0.00000  Uiso   1.00
H211   H     0.96360   0.80651   0.03225   0.00000  Uiso   1.00
H212   H     0.70840   0.78525   0.43945   0.00000  Uiso   1.00
H213   H     0.91536   0.06615   0.12303   0.00000  Uiso   1.00
H214   H     0.02440   0.74407   0.84470   0.00000  Uiso   1.00
H215   H     0.75479   0.87652   0.81316   0.00000  Uiso   1.00
H216   H     0.66835   0.83897   0.94765   0.00000  Uiso   1.00
H217   H     0.76650   0.97219   0.79760   0.00000  Uiso   1.00
H218   H     0.81820   0.81945   0.66561   0.00000  Uiso   1.00
H219   H     0.59039   0.79576   0.14187   0.00000  Uiso   1.00
H220   H     0.79736   0.07666   0.82545   0.00000  Uiso   1.00
H221   H     0.90639   0.75458   0.54712   0.00000  Uiso   1.00
O222   O     0.59501   0.76560   0.38542   0.00000  Uiso   1.00
O223   O     0.86655   0.13412   0.97027   0.00000  Uiso   1.00
O224   O     0.00959   0.71156   0.60512   0.00000  Uiso   1.00
N225   N     0.69249   0.79287   0.35095   0.00000  Uiso   1.00
N226   N     0.88599   0.05549   0.05513   0.00000  Uiso   1.00
N227   N     0.98793   0.75439   0.79490   0.00000  Uiso   1.00
N228   N     0.62899   0.79852   0.19082   0.00000  Uiso   1.00
N229   N     0.82248   0.06115   0.89501   0.00000  Uiso   1.00
N230   N     0.92443   0.76004   0.63478   0.00000  Uiso   1.00
C231   C     0.36105   0.36706   0.08110   0.00000  Uiso   1.00
C232   C     0.29908   0.34799   0.11633   0.00000  Uiso   1.00
C233   C     0.28235   0.32881   0.23515   0.00000  Uiso   1.00
C234   C     0.22354   0.31335   0.24810   0.00000  Uiso   1.00
C235   C     0.13348   0.28321   0.31839   0.00000  Uiso   1.00
C236   C     0.35240   0.42037   0.03482   0.00000  Uiso   1.00
C237   C     0.38050   0.46205   0.08509   0.00000  Uiso   1.00
C238   C     0.36659   0.50752   0.02941   0.00000  Uiso   1.00
C239   C     0.35934   0.58976   0.97308   0.00000  Uiso   1.00
C240   C     0.38049   0.33738   0.96311   0.00000  Uiso   1.00
C241   C     0.43222   0.30929   0.95308   0.00000  Uiso   1.00
C242   C     0.44196   0.28490   0.83700   0.00000  Uiso   1.00
C243   C     0.47833   0.23828   0.66934   0.00000  Uiso   1.00
C244   C     0.28637   0.37371   0.89279   0.00000  Uiso   1.00
C245   C     0.25852   0.35160   0.01405   0.00000  Uiso   1.00
C246   C     0.19973   0.33617   0.02682   0.00000  Uiso   1.00
C247   C     0.18291   0.31697   0.14564   0.00000  Uiso   1.00
C248   C     0.31184   0.42398   0.93254   0.00000  Uiso   1.00
C249   C     0.29788   0.46941   0.87676   0.00000  Uiso   1.00
C250   C     0.32596   0.51114   0.92694   0.00000  Uiso   1.00
C251   C     0.33993   0.34099   0.86083   0.00000  Uiso   1.00
C252   C     0.34960   0.31665   0.74474   0.00000  Uiso   1.00
C253   C     0.40133   0.28852   0.73454   0.00000  Uiso   1.00
H254   H     0.39263   0.36425   0.16073   0.00000  Uiso   1.00
H255   H     0.31375   0.32603   0.31429   0.00000  Uiso   1.00
H256   H     0.41189   0.45924   0.16424   0.00000  Uiso   1.00
H257   H     0.46360   0.30651   0.03225   0.00000  Uiso   1.00
H258   H     0.20840   0.28525   0.43945   0.00000  Uiso   1.00
H259   H     0.41536   0.56615   0.12303   0.00000  Uiso   1.00
H260   H     0.52440   0.24407   0.84470   0.00000  Uiso   1.00
H261   H     0.25479   0.37652   0.81316   0.00000  Uiso   1.00
H262   H     0.16835   0.33897   0.94765   0.00000  Uiso   1.00
H263   H     0.26650   0.47219   0.79760   0.00000  Uiso   1.00
H264   H     0.31820   0.31945   0.66561   0.00000  Uiso   1.00
H265   H     0.09039   0.29576   0.14187   0.00000  Uiso   1.00
H266   H     0.29736   0.57666   0.82545   0.00000  Uiso   1.00
H267   H     0.40639   0.25458   0.54712   0.00000  Uiso   1.00
O268   O     0.09501   0.26560   0.38542   0.00000  Uiso   1.00
O269   O     0.36655   0.63412   0.97027   0.00000  Uiso   1.00
O270   O     0.50959   0.21156   0.60512   0.00000  Uiso   1.00
N271   N     0.19249   0.29287   0.35095   0.00000  Uiso   1.00
N272   N     0.38599   0.55549   0.05513   0.00000  Uiso   1.00
N273   N     0.48793   0.25439   0.79490   0.00000  Uiso   1.00
N274   N     0.12899   0.29852   0.19082   0.00000  Uiso   1.00
N275   N     0.32248   0.56115   0.89501   0.00000  Uiso   1.00
N276   N     0.42443   0.26004   0.63478   0.00000  Uiso   1.00
C277   C     0.13895   0.13294   0.08110   0.00000  Uiso   1.00
C278   C     0.20092   0.15201   0.11633   0.00000  Uiso   1.00
C279   C     0.21765   0.17119   0.23515   0.00000  Uiso   1.00
C280   C     0.27646   0.18665   0.24810   0.00000  Uiso   1.00
C281   C     0.36652   0.21679   0.31839   0.00000  Uiso   1.00
C282   C     0.14760   0.07963   0.03482   0.00000  Uiso   1.00
C283   C     0.11950   0.03795   0.08509   0.00000  Uiso   1.00
C284   C     0.13341   0.99248   0.02941   0.00000  Uiso   1.00
C285   C     0.14066   0.91024   0.97308   0.00000  Uiso   1.00
C286   C     0.11951   0.16262   0.96311   0.00000  Uiso   1.00
C287   C     0.06778   0.19071   0.95308   0.00000  Uiso   1.00
C288   C     0.05804   0.21510   0.83700   0.00000  Uiso   1.00
C289   C     0.02167   0.26172   0.66934   0.00000  Uiso   1.00
C290   C     0.21363   0.12629   0.89279   0.00000  Uiso   1.00
C291   C     0.24148   0.14840   0.01405   0.00000  Uiso   1.00
C292   C     0.30027   0.16383   0.02682   0.00000  Uiso   1.00
C293   C     0.31709   0.18303   0.14564   0.00000  Uiso   1.00
C294   C     0.18816   0.07602   0.93254   0.00000  Uiso   1.00
C295   C     0.20212   0.03059   0.87676   0.00000  Uiso   1.00
C296   C     0.17404   0.98886   0.92694   0.00000  Uiso   1.00
C297   C     0.16007   0.15901   0.86083   0.00000  Uiso   1.00
C298   C     0.15040   0.18335   0.74474   0.00000  Uiso   1.00
C299   C     0.09867   0.21148   0.73454   0.00000  Uiso   1.00
H300   H     0.10737   0.13575   0.16073   0.00000  Uiso   1.00
H301   H     0.18625   0.17397   0.31429   0.00000  Uiso   1.00
H302   H     0.08811   0.04076   0.16424   0.00000  Uiso   1.00
H303   H     0.03640   0.19349   0.03225   0.00000  Uiso   1.00
H304   H     0.29160   0.21475   0.43945   0.00000  Uiso   1.00
H305   H     0.08464   0.93385   0.12303   0.00000  Uiso   1.00
H306   H     0.97560   0.25593   0.84470   0.00000  Uiso   1.00
H307   H     0.24521   0.12348   0.81316   0.00000  Uiso   1.00
H308   H     0.33165   0.16103   0.94765   0.00000  Uiso   1.00
H309   H     0.23350   0.02781   0.79760   0.00000  Uiso   1.00
H310   H     0.18180   0.18055   0.66561   0.00000  Uiso   1.00
H311   H     0.40961   0.20424   0.14187   0.00000  Uiso   1.00
H312   H     0.20264   0.92334   0.82545   0.00000  Uiso   1.00
H313   H     0.09361   0.24542   0.54712   0.00000  Uiso   1.00
O314   O     0.40499   0.23440   0.38542   0.00000  Uiso   1.00
O315   O     0.13345   0.86588   0.97027   0.00000  Uiso   1.00
O316   O     0.99041   0.28844   0.60512   0.00000  Uiso   1.00
N317   N     0.30751   0.20713   0.35095   0.00000  Uiso   1.00
N318   N     0.11401   0.94451   0.05513   0.00000  Uiso   1.00
N319   N     0.01207   0.24561   0.79490   0.00000  Uiso   1.00
N320   N     0.37101   0.20148   0.19082   0.00000  Uiso   1.00
N321   N     0.17752   0.93885   0.89501   0.00000  Uiso   1.00
N322   N     0.07557   0.23996   0.63478   0.00000  Uiso   1.00
C323   C     0.63895   0.63294   0.08110   0.00000  Uiso   1.00
C324   C     0.70092   0.65201   0.11633   0.00000  Uiso   1.00
C325   C     0.71765   0.67119   0.23515   0.00000  Uiso   1.00
C326   C     0.77646   0.68665   0.24810   0.00000  Uiso   1.00
C327   C     0.86652   0.71679   0.31839   0.00000  Uiso   1.00
C328   C     0.64760   0.57963   0.03482   0.00000  Uiso   1.00
C329   C     0.61950   0.53795   0.08509   0.00000  Uiso   1.00
C330   C     0.63341   0.49248   0.02941   0.00000  Uiso   1.00
C331   C     0.64066   0.41024   0.97308   0.00000  Uiso   1.00
C332   C     0.61951   0.66262   0.96311   0.00000  Uiso   1.00
C333   C     0.56778   0.69071   0.95308   0.00000  Uiso   1.00
C334   C     0.55804   0.71510   0.83700   0.00000  Uiso   1.00
C335   C     0.52167   0.76172   0.66934   0.00000  Uiso   1.00
C336   C     0.71363   0.62629   0.89279   0.00000  Uiso   1.00
C337   C     0.74148   0.64840   0.01405   0.00000  Uiso   1.00
C338   C     0.80027   0.66383   0.02682   0.00000  Uiso   1.00
C339   C     0.81709   0.68303   0.14564   0.00000  Uiso   1.00
C340   C     0.68816   0.57602   0.93254   0.00000  Uiso   1.00
C341   C     0.70212   0.53059   0.87676   0.00000  Uiso   1.00
C342   C     0.67404   0.48886   0.92694   0.00000  Uiso   1.00
C343   C     0.66007   0.65901   0.86083   0.00000  Uiso   1.00
C344   C     0.65040   0.68335   0.74474   0.00000  Uiso   1.00
C345   C     0.59867   0.71148   0.73454   0.00000  Uiso   1.00
H346   H     0.60737   0.63575   0.16073   0.00000  Uiso   1.00
H347   H     0.68625   0.67397   0.31429   0.00000  Uiso   1.00
H348   H     0.58811   0.54076   0.16424   0.00000  Uiso   1.00
H349   H     0.53640   0.69349   0.03225   0.00000  Uiso   1.00
H350   H     0.79160   0.71475   0.43945   0.00000  Uiso   1.00
H351   H     0.58464   0.43385   0.12303   0.00000  Uiso   1.00
H352   H     0.47560   0.75593   0.84470   0.00000  Uiso   1.00
H353   H     0.74521   0.62348   0.81316   0.00000  Uiso   1.00
H354   H     0.83165   0.66103   0.94765   0.00000  Uiso   1.00
H355   H     0.73350   0.52781   0.79760   0.00000  Uiso   1.00
H356   H     0.68180   0.68055   0.66561   0.00000  Uiso   1.00
H357   H     0.90961   0.70424   0.14187   0.00000  Uiso   1.00
H358   H     0.70264   0.42334   0.82545   0.00000  Uiso   1.00
H359   H     0.59361   0.74542   0.54712   0.00000  Uiso   1.00
O360   O     0.90499   0.73440   0.38542   0.00000  Uiso   1.00
O361   O     0.63345   0.36588   0.97027   0.00000  Uiso   1.00
O362   O     0.49041   0.78844   0.60512   0.00000  Uiso   1.00
N363   N     0.80751   0.70713   0.35095   0.00000  Uiso   1.00
N364   N     0.61401   0.44451   0.05513   0.00000  Uiso   1.00
N365   N     0.51207   0.74561   0.79490   0.00000  Uiso   1.00
N366   N     0.87101   0.70148   0.19082   0.00000  Uiso   1.00
N367   N     0.67752   0.43885   0.89501   0.00000  Uiso   1.00
N368   N     0.57557   0.73996   0.63478   0.00000  Uiso   1.00
