data_job_04963
_audit_creation_date              2018-12-19
_audit_creation_method            'Materials Studio'
_symmetry_space_group_name_H-M    'P1'
_symmetry_Int_Tables_number       1
_symmetry_cell_setting            triclinic
loop_
_symmetry_equiv_pos_as_xyz
  x,y,z
_cell_length_a                    15.9938
_cell_length_b                    10.4796
_cell_length_c                    37.1451
_cell_angle_alpha                 90.0000
_cell_angle_beta                  90.0000
_cell_angle_gamma                 90.0000
loop_
_atom_site_label
_atom_site_type_symbol
_atom_site_fract_x
_atom_site_fract_y
_atom_site_fract_z
_atom_site_U_iso_or_equiv
_atom_site_adp_type
_atom_site_occupancy
C1     C     0.99757   0.11319   0.62655   0.00000  Uiso   1.00
C2     C     0.96429   0.21463   0.65226   0.00000  Uiso   1.00
C3     C     0.97564   0.34534   0.64877   0.00000  Uiso   1.00
C4     C     0.94025   0.42223   0.67513   0.00000  Uiso   1.00
C5     C     0.89546   0.58765   0.71068   0.00000  Uiso   1.00
C6     C     0.04987   0.02257   0.64946   0.00000  Uiso   1.00
C7     C     0.13316   0.99178   0.64361   0.00000  Uiso   1.00
C8     C     0.16981   0.90697   0.66761   0.00000  Uiso   1.00
C9     C     0.25787   0.77414   0.69879   0.00000  Uiso   1.00
C10    C     0.92168   0.03667   0.61425   0.00000  Uiso   1.00
C11    C     0.89721   0.01770   0.57880   0.00000  Uiso   1.00
C12    C     0.82595   0.94473   0.57316   0.00000  Uiso   1.00
C13    C     0.71498   0.83379   0.54968   0.00000  Uiso   1.00
C14    C     0.91455   0.01731   0.67954   0.00000  Uiso   1.00
C15    C     0.91919   0.16255   0.68104   0.00000  Uiso   1.00
C16    C     0.88378   0.23925   0.70740   0.00000  Uiso   1.00
C17    C     0.89507   0.37005   0.70396   0.00000  Uiso   1.00
C18    C     0.00477   0.97049   0.67824   0.00000  Uiso   1.00
C19    C     0.04130   0.88569   0.70224   0.00000  Uiso   1.00
C20    C     0.12464   0.85479   0.69644   0.00000  Uiso   1.00
C21    C     0.87658   0.98458   0.64303   0.00000  Uiso   1.00
C22    C     0.80535   0.91162   0.63744   0.00000  Uiso   1.00
C23    C     0.78077   0.89255   0.60199   0.00000  Uiso   1.00
H24    H     0.03269   0.15374   0.60414   0.00000  Uiso   1.00
H25    H     0.01055   0.38561   0.62650   0.00000  Uiso   1.00
H26    H     0.16805   0.03209   0.62134   0.00000  Uiso   1.00
H27    H     0.93213   0.05801   0.55654   0.00000  Uiso   1.00
H28    H     0.96614   0.61971   0.66398   0.00000  Uiso   1.00
H29    H     0.29822   0.87427   0.65309   0.00000  Uiso   1.00
H30    H     0.80074   0.92893   0.51646   0.00000  Uiso   1.00
H31    H     0.87944   0.97675   0.70195   0.00000  Uiso   1.00
H32    H     0.84888   0.19892   0.72967   0.00000  Uiso   1.00
H33    H     0.00638   0.84540   0.72451   0.00000  Uiso   1.00
H34    H     0.77046   0.87133   0.65971   0.00000  Uiso   1.00
H35    H     0.83493   0.46819   0.74773   0.00000  Uiso   1.00
H36    H     0.16701   0.72274   0.73684   0.00000  Uiso   1.00
H37    H     0.66953   0.77741   0.60020   0.00000  Uiso   1.00
O38    O     0.88322   0.69329   0.72234   0.00000  Uiso   1.00
O39    O     0.31890   0.71528   0.70804   0.00000  Uiso   1.00
O40    O     0.66622   0.78700   0.52878   0.00000  Uiso   1.00
N41    N     0.93944   0.55356   0.67989   0.00000  Uiso   1.00
N42    N     0.24992   0.85663   0.66971   0.00000  Uiso   1.00
N43    N     0.78483   0.90771   0.54196   0.00000  Uiso   1.00
N44    N     0.86883   0.47203   0.72495   0.00000  Uiso   1.00
N45    N     0.17932   0.77510   0.71477   0.00000  Uiso   1.00
N46    N     0.71423   0.82618   0.58702   0.00000  Uiso   1.00
C47    C     0.49772   0.97274   0.12606   0.00000  Uiso   1.00
C48    C     0.46442   0.07415   0.15178   0.00000  Uiso   1.00
C49    C     0.47615   0.20482   0.14841   0.00000  Uiso   1.00
C50    C     0.44069   0.28169   0.17475   0.00000  Uiso   1.00
C51    C     0.39595   0.44707   0.21032   0.00000  Uiso   1.00
C52    C     0.54951   0.88158   0.14901   0.00000  Uiso   1.00
C53    C     0.63279   0.85032   0.14332   0.00000  Uiso   1.00
C54    C     0.66895   0.76507   0.16732   0.00000  Uiso   1.00
C55    C     0.75631   0.63142   0.19859   0.00000  Uiso   1.00
C56    C     0.42175   0.89679   0.11355   0.00000  Uiso   1.00
C57    C     0.39762   0.87829   0.07805   0.00000  Uiso   1.00
C58    C     0.32623   0.80582   0.07220   0.00000  Uiso   1.00
C59    C     0.21522   0.69578   0.04842   0.00000  Uiso   1.00
C60    C     0.41385   0.87689   0.17882   0.00000  Uiso   1.00
C61    C     0.41887   0.02209   0.18043   0.00000  Uiso   1.00
C62    C     0.38337   0.09878   0.20678   0.00000  Uiso   1.00
C63    C     0.39505   0.22954   0.20345   0.00000  Uiso   1.00
C64    C     0.50397   0.82952   0.17766   0.00000  Uiso   1.00
C65    C     0.54001   0.74429   0.20168   0.00000  Uiso   1.00
C66    C     0.62332   0.71292   0.19603   0.00000  Uiso   1.00
C67    C     0.37620   0.84473   0.14221   0.00000  Uiso   1.00
C68    C     0.30484   0.77226   0.13642   0.00000  Uiso   1.00
C69    C     0.28060   0.75366   0.10091   0.00000  Uiso   1.00
H70    H     0.53318   0.01326   0.10376   0.00000  Uiso   1.00
H71    H     0.51142   0.24507   0.12623   0.00000  Uiso   1.00
H72    H     0.66802   0.89062   0.12114   0.00000  Uiso   1.00
H73    H     0.43289   0.91859   0.05588   0.00000  Uiso   1.00
H74    H     0.46722   0.47911   0.16380   0.00000  Uiso   1.00
H75    H     0.79743   0.73170   0.15305   0.00000  Uiso   1.00
H76    H     0.30160   0.79068   0.01544   0.00000  Uiso   1.00
H77    H     0.37839   0.83636   0.20113   0.00000  Uiso   1.00
H78    H     0.34812   0.05847   0.22895   0.00000  Uiso   1.00
H79    H     0.50474   0.70402   0.22385   0.00000  Uiso   1.00
H80    H     0.26960   0.73199   0.15859   0.00000  Uiso   1.00
H81    H     0.33469   0.32766   0.24717   0.00000  Uiso   1.00
H82    H     0.66490   0.58024   0.23641   0.00000  Uiso   1.00
H83    H     0.16907   0.63923   0.09881   0.00000  Uiso   1.00
O84    O     0.38386   0.55268   0.22203   0.00000  Uiso   1.00
O85    O     0.81708   0.57209   0.20792   0.00000  Uiso   1.00
O86    O     0.16657   0.64948   0.02739   0.00000  Uiso   1.00
N87    N     0.44017   0.41298   0.17960   0.00000  Uiso   1.00
N88    N     0.74890   0.71422   0.16955   0.00000  Uiso   1.00
N89    N     0.28536   0.76933   0.04090   0.00000  Uiso   1.00
N90    N     0.36885   0.33149   0.22446   0.00000  Uiso   1.00
N91    N     0.67759   0.63272   0.21441   0.00000  Uiso   1.00
N92    N     0.21404   0.68784   0.08576   0.00000  Uiso   1.00
C93    C     0.00243   0.88681   0.12655   0.00000  Uiso   1.00
C94    C     0.03571   0.78537   0.15226   0.00000  Uiso   1.00
C95    C     0.02436   0.65466   0.14877   0.00000  Uiso   1.00
C96    C     0.05975   0.57777   0.17513   0.00000  Uiso   1.00
C97    C     0.10454   0.41235   0.21068   0.00000  Uiso   1.00
C98    C     0.95013   0.97743   0.14946   0.00000  Uiso   1.00
C99    C     0.86684   0.00822   0.14361   0.00000  Uiso   1.00
C100   C     0.83019   0.09303   0.16761   0.00000  Uiso   1.00
C101   C     0.74213   0.22586   0.19879   0.00000  Uiso   1.00
C102   C     0.07832   0.96333   0.11425   0.00000  Uiso   1.00
C103   C     0.10279   0.98230   0.07880   0.00000  Uiso   1.00
C104   C     0.17405   0.05527   0.07316   0.00000  Uiso   1.00
C105   C     0.28502   0.16621   0.04968   0.00000  Uiso   1.00
C106   C     0.08545   0.98269   0.17954   0.00000  Uiso   1.00
C107   C     0.08081   0.83745   0.18104   0.00000  Uiso   1.00
C108   C     0.11622   0.76075   0.20740   0.00000  Uiso   1.00
C109   C     0.10493   0.62995   0.20396   0.00000  Uiso   1.00
C110   C     0.99523   0.02951   0.17824   0.00000  Uiso   1.00
C111   C     0.95870   0.11431   0.20224   0.00000  Uiso   1.00
C112   C     0.87536   0.14521   0.19644   0.00000  Uiso   1.00
C113   C     0.12342   0.01542   0.14303   0.00000  Uiso   1.00
C114   C     0.19465   0.08838   0.13744   0.00000  Uiso   1.00
C115   C     0.21923   0.10745   0.10199   0.00000  Uiso   1.00
H116   H     0.96731   0.84626   0.10414   0.00000  Uiso   1.00
H117   H     0.98945   0.61439   0.12650   0.00000  Uiso   1.00
H118   H     0.83195   0.96791   0.12134   0.00000  Uiso   1.00
H119   H     0.06787   0.94199   0.05654   0.00000  Uiso   1.00
H120   H     0.03386   0.38029   0.16398   0.00000  Uiso   1.00
H121   H     0.70178   0.12573   0.15309   0.00000  Uiso   1.00
H122   H     0.19926   0.07107   0.01646   0.00000  Uiso   1.00
H123   H     0.12056   0.02325   0.20195   0.00000  Uiso   1.00
H124   H     0.15112   0.80108   0.22967   0.00000  Uiso   1.00
H125   H     0.99362   0.15460   0.22451   0.00000  Uiso   1.00
H126   H     0.22954   0.12867   0.15971   0.00000  Uiso   1.00
H127   H     0.16507   0.53181   0.24773   0.00000  Uiso   1.00
H128   H     0.83299   0.27726   0.23684   0.00000  Uiso   1.00
H129   H     0.33047   0.22259   0.10020   0.00000  Uiso   1.00
O130   O     0.11678   0.30671   0.22234   0.00000  Uiso   1.00
O131   O     0.68110   0.28472   0.20804   0.00000  Uiso   1.00
O132   O     0.33378   0.21300   0.02878   0.00000  Uiso   1.00
N133   N     0.06056   0.44644   0.17989   0.00000  Uiso   1.00
N134   N     0.75008   0.14337   0.16971   0.00000  Uiso   1.00
N135   N     0.21517   0.09229   0.04196   0.00000  Uiso   1.00
N136   N     0.13117   0.52797   0.22495   0.00000  Uiso   1.00
N137   N     0.82068   0.22490   0.21477   0.00000  Uiso   1.00
N138   N     0.28577   0.17382   0.08702   0.00000  Uiso   1.00
C139   C     0.50228   0.02726   0.62606   0.00000  Uiso   1.00
C140   C     0.53558   0.92585   0.65178   0.00000  Uiso   1.00
C141   C     0.52385   0.79518   0.64841   0.00000  Uiso   1.00
C142   C     0.55931   0.71831   0.67475   0.00000  Uiso   1.00
C143   C     0.60405   0.55293   0.71032   0.00000  Uiso   1.00
C144   C     0.45049   0.11842   0.64901   0.00000  Uiso   1.00
C145   C     0.36721   0.14968   0.64332   0.00000  Uiso   1.00
C146   C     0.33105   0.23493   0.66732   0.00000  Uiso   1.00
C147   C     0.24369   0.36858   0.69859   0.00000  Uiso   1.00
C148   C     0.57825   0.10321   0.61355   0.00000  Uiso   1.00
C149   C     0.60238   0.12171   0.57805   0.00000  Uiso   1.00
C150   C     0.67377   0.19418   0.57220   0.00000  Uiso   1.00
C151   C     0.78478   0.30422   0.54842   0.00000  Uiso   1.00
C152   C     0.58615   0.12311   0.67882   0.00000  Uiso   1.00
C153   C     0.58113   0.97791   0.68043   0.00000  Uiso   1.00
C154   C     0.61663   0.90122   0.70678   0.00000  Uiso   1.00
C155   C     0.60495   0.77046   0.70345   0.00000  Uiso   1.00
C156   C     0.49603   0.17048   0.67766   0.00000  Uiso   1.00
C157   C     0.45999   0.25571   0.70168   0.00000  Uiso   1.00
C158   C     0.37668   0.28708   0.69603   0.00000  Uiso   1.00
C159   C     0.62380   0.15527   0.64221   0.00000  Uiso   1.00
C160   C     0.69516   0.22774   0.63642   0.00000  Uiso   1.00
C161   C     0.71940   0.24634   0.60091   0.00000  Uiso   1.00
H162   H     0.46682   0.98674   0.60376   0.00000  Uiso   1.00
H163   H     0.48858   0.75493   0.62623   0.00000  Uiso   1.00
H164   H     0.33198   0.10938   0.62114   0.00000  Uiso   1.00
H165   H     0.56711   0.08141   0.55588   0.00000  Uiso   1.00
H166   H     0.53278   0.52089   0.66380   0.00000  Uiso   1.00
H167   H     0.20257   0.26830   0.65305   0.00000  Uiso   1.00
H168   H     0.69840   0.20932   0.51544   0.00000  Uiso   1.00
H169   H     0.62161   0.16364   0.70113   0.00000  Uiso   1.00
H170   H     0.65188   0.94153   0.72895   0.00000  Uiso   1.00
H171   H     0.49526   0.29598   0.72385   0.00000  Uiso   1.00
H172   H     0.73040   0.26801   0.65859   0.00000  Uiso   1.00
H173   H     0.66531   0.67234   0.74717   0.00000  Uiso   1.00
H174   H     0.33510   0.41976   0.73641   0.00000  Uiso   1.00
H175   H     0.83093   0.36077   0.59881   0.00000  Uiso   1.00
O176   O     0.61614   0.44732   0.72203   0.00000  Uiso   1.00
O177   O     0.18292   0.42791   0.70792   0.00000  Uiso   1.00
O178   O     0.83343   0.35052   0.52739   0.00000  Uiso   1.00
N179   N     0.55983   0.58702   0.67960   0.00000  Uiso   1.00
N180   N     0.25110   0.28578   0.66955   0.00000  Uiso   1.00
N181   N     0.71464   0.23067   0.54090   0.00000  Uiso   1.00
N182   N     0.63115   0.66851   0.72446   0.00000  Uiso   1.00
N183   N     0.32241   0.36728   0.71441   0.00000  Uiso   1.00
N184   N     0.78596   0.31216   0.58576   0.00000  Uiso   1.00
C185   C     0.00243   0.11319   0.87345   0.00000  Uiso   1.00
C186   C     0.03571   0.21463   0.84774   0.00000  Uiso   1.00
C187   C     0.02436   0.34534   0.85123   0.00000  Uiso   1.00
C188   C     0.05975   0.42223   0.82487   0.00000  Uiso   1.00
C189   C     0.10454   0.58765   0.78932   0.00000  Uiso   1.00
C190   C     0.95013   0.02257   0.85054   0.00000  Uiso   1.00
C191   C     0.86684   0.99178   0.85639   0.00000  Uiso   1.00
C192   C     0.83019   0.90697   0.83239   0.00000  Uiso   1.00
C193   C     0.74213   0.77414   0.80121   0.00000  Uiso   1.00
C194   C     0.07832   0.03667   0.88575   0.00000  Uiso   1.00
C195   C     0.10279   0.01770   0.92120   0.00000  Uiso   1.00
C196   C     0.17405   0.94473   0.92684   0.00000  Uiso   1.00
C197   C     0.28502   0.83379   0.95032   0.00000  Uiso   1.00
C198   C     0.08545   0.01731   0.82046   0.00000  Uiso   1.00
C199   C     0.08081   0.16255   0.81896   0.00000  Uiso   1.00
C200   C     0.11622   0.23925   0.79260   0.00000  Uiso   1.00
C201   C     0.10493   0.37005   0.79604   0.00000  Uiso   1.00
C202   C     0.99523   0.97049   0.82176   0.00000  Uiso   1.00
C203   C     0.95870   0.88569   0.79776   0.00000  Uiso   1.00
C204   C     0.87536   0.85479   0.80356   0.00000  Uiso   1.00
C205   C     0.12342   0.98458   0.85697   0.00000  Uiso   1.00
C206   C     0.19465   0.91162   0.86256   0.00000  Uiso   1.00
C207   C     0.21923   0.89255   0.89801   0.00000  Uiso   1.00
H208   H     0.96731   0.15374   0.89586   0.00000  Uiso   1.00
H209   H     0.98945   0.38561   0.87350   0.00000  Uiso   1.00
H210   H     0.83195   0.03209   0.87866   0.00000  Uiso   1.00
H211   H     0.06787   0.05801   0.94346   0.00000  Uiso   1.00
H212   H     0.03386   0.61971   0.83602   0.00000  Uiso   1.00
H213   H     0.70178   0.87427   0.84691   0.00000  Uiso   1.00
H214   H     0.19926   0.92893   0.98354   0.00000  Uiso   1.00
H215   H     0.12056   0.97675   0.79805   0.00000  Uiso   1.00
H216   H     0.15112   0.19892   0.77033   0.00000  Uiso   1.00
H217   H     0.99362   0.84540   0.77549   0.00000  Uiso   1.00
H218   H     0.22954   0.87133   0.84029   0.00000  Uiso   1.00
H219   H     0.16507   0.46819   0.75227   0.00000  Uiso   1.00
H220   H     0.83299   0.72274   0.76316   0.00000  Uiso   1.00
H221   H     0.33047   0.77741   0.89980   0.00000  Uiso   1.00
O222   O     0.11678   0.69329   0.77766   0.00000  Uiso   1.00
O223   O     0.68110   0.71528   0.79196   0.00000  Uiso   1.00
O224   O     0.33378   0.78700   0.97122   0.00000  Uiso   1.00
N225   N     0.06056   0.55356   0.82011   0.00000  Uiso   1.00
N226   N     0.75008   0.85663   0.83029   0.00000  Uiso   1.00
N227   N     0.21517   0.90771   0.95804   0.00000  Uiso   1.00
N228   N     0.13117   0.47203   0.77505   0.00000  Uiso   1.00
N229   N     0.82068   0.77510   0.78523   0.00000  Uiso   1.00
N230   N     0.28577   0.82618   0.91298   0.00000  Uiso   1.00
C231   C     0.50228   0.97274   0.37394   0.00000  Uiso   1.00
C232   C     0.53558   0.07415   0.34822   0.00000  Uiso   1.00
C233   C     0.52385   0.20482   0.35159   0.00000  Uiso   1.00
C234   C     0.55931   0.28169   0.32525   0.00000  Uiso   1.00
C235   C     0.60405   0.44707   0.28968   0.00000  Uiso   1.00
C236   C     0.45049   0.88158   0.35099   0.00000  Uiso   1.00
C237   C     0.36721   0.85032   0.35668   0.00000  Uiso   1.00
C238   C     0.33105   0.76507   0.33268   0.00000  Uiso   1.00
C239   C     0.24369   0.63142   0.30141   0.00000  Uiso   1.00
C240   C     0.57825   0.89679   0.38645   0.00000  Uiso   1.00
C241   C     0.60238   0.87829   0.42195   0.00000  Uiso   1.00
C242   C     0.67377   0.80582   0.42780   0.00000  Uiso   1.00
C243   C     0.78478   0.69578   0.45158   0.00000  Uiso   1.00
C244   C     0.58615   0.87689   0.32118   0.00000  Uiso   1.00
C245   C     0.58113   0.02209   0.31957   0.00000  Uiso   1.00
C246   C     0.61663   0.09878   0.29322   0.00000  Uiso   1.00
C247   C     0.60495   0.22954   0.29655   0.00000  Uiso   1.00
C248   C     0.49603   0.82952   0.32234   0.00000  Uiso   1.00
C249   C     0.45999   0.74429   0.29832   0.00000  Uiso   1.00
C250   C     0.37668   0.71292   0.30397   0.00000  Uiso   1.00
C251   C     0.62380   0.84473   0.35779   0.00000  Uiso   1.00
C252   C     0.69516   0.77226   0.36358   0.00000  Uiso   1.00
C253   C     0.71940   0.75366   0.39909   0.00000  Uiso   1.00
H254   H     0.46682   0.01326   0.39624   0.00000  Uiso   1.00
H255   H     0.48858   0.24507   0.37377   0.00000  Uiso   1.00
H256   H     0.33198   0.89062   0.37886   0.00000  Uiso   1.00
H257   H     0.56711   0.91859   0.44412   0.00000  Uiso   1.00
H258   H     0.53278   0.47911   0.33620   0.00000  Uiso   1.00
H259   H     0.20257   0.73170   0.34695   0.00000  Uiso   1.00
H260   H     0.69840   0.79068   0.48456   0.00000  Uiso   1.00
H261   H     0.62161   0.83636   0.29887   0.00000  Uiso   1.00
H262   H     0.65188   0.05847   0.27105   0.00000  Uiso   1.00
H263   H     0.49526   0.70402   0.27615   0.00000  Uiso   1.00
H264   H     0.73040   0.73199   0.34141   0.00000  Uiso   1.00
H265   H     0.66531   0.32766   0.25283   0.00000  Uiso   1.00
H266   H     0.33510   0.58024   0.26359   0.00000  Uiso   1.00
H267   H     0.83093   0.63923   0.40119   0.00000  Uiso   1.00
O268   O     0.61614   0.55268   0.27797   0.00000  Uiso   1.00
O269   O     0.18292   0.57209   0.29208   0.00000  Uiso   1.00
O270   O     0.83343   0.64948   0.47261   0.00000  Uiso   1.00
N271   N     0.55983   0.41298   0.32040   0.00000  Uiso   1.00
N272   N     0.25110   0.71422   0.33045   0.00000  Uiso   1.00
N273   N     0.71464   0.76933   0.45910   0.00000  Uiso   1.00
N274   N     0.63115   0.33149   0.27554   0.00000  Uiso   1.00
N275   N     0.32241   0.63272   0.28559   0.00000  Uiso   1.00
N276   N     0.78596   0.68784   0.41424   0.00000  Uiso   1.00
C277   C     0.99757   0.88681   0.37345   0.00000  Uiso   1.00
C278   C     0.96429   0.78537   0.34774   0.00000  Uiso   1.00
C279   C     0.97564   0.65466   0.35123   0.00000  Uiso   1.00
C280   C     0.94025   0.57777   0.32487   0.00000  Uiso   1.00
C281   C     0.89546   0.41235   0.28932   0.00000  Uiso   1.00
C282   C     0.04987   0.97743   0.35054   0.00000  Uiso   1.00
C283   C     0.13316   0.00822   0.35639   0.00000  Uiso   1.00
C284   C     0.16981   0.09303   0.33239   0.00000  Uiso   1.00
C285   C     0.25787   0.22586   0.30121   0.00000  Uiso   1.00
C286   C     0.92168   0.96333   0.38575   0.00000  Uiso   1.00
C287   C     0.89721   0.98230   0.42120   0.00000  Uiso   1.00
C288   C     0.82595   0.05527   0.42684   0.00000  Uiso   1.00
C289   C     0.71498   0.16621   0.45032   0.00000  Uiso   1.00
C290   C     0.91455   0.98269   0.32046   0.00000  Uiso   1.00
C291   C     0.91919   0.83745   0.31896   0.00000  Uiso   1.00
C292   C     0.88378   0.76075   0.29260   0.00000  Uiso   1.00
C293   C     0.89507   0.62995   0.29604   0.00000  Uiso   1.00
C294   C     0.00477   0.02951   0.32176   0.00000  Uiso   1.00
C295   C     0.04130   0.11431   0.29776   0.00000  Uiso   1.00
C296   C     0.12464   0.14521   0.30356   0.00000  Uiso   1.00
C297   C     0.87658   0.01542   0.35697   0.00000  Uiso   1.00
C298   C     0.80535   0.08838   0.36256   0.00000  Uiso   1.00
C299   C     0.78077   0.10745   0.39801   0.00000  Uiso   1.00
H300   H     0.03269   0.84626   0.39586   0.00000  Uiso   1.00
H301   H     0.01055   0.61439   0.37350   0.00000  Uiso   1.00
H302   H     0.16805   0.96791   0.37866   0.00000  Uiso   1.00
H303   H     0.93213   0.94199   0.44346   0.00000  Uiso   1.00
H304   H     0.96614   0.38029   0.33602   0.00000  Uiso   1.00
H305   H     0.29822   0.12573   0.34691   0.00000  Uiso   1.00
H306   H     0.80074   0.07107   0.48354   0.00000  Uiso   1.00
H307   H     0.87944   0.02325   0.29805   0.00000  Uiso   1.00
H308   H     0.84888   0.80108   0.27033   0.00000  Uiso   1.00
H309   H     0.00638   0.15460   0.27549   0.00000  Uiso   1.00
H310   H     0.77046   0.12867   0.34029   0.00000  Uiso   1.00
H311   H     0.83493   0.53181   0.25227   0.00000  Uiso   1.00
H312   H     0.16701   0.27726   0.26316   0.00000  Uiso   1.00
H313   H     0.66953   0.22259   0.39980   0.00000  Uiso   1.00
O314   O     0.88322   0.30671   0.27766   0.00000  Uiso   1.00
O315   O     0.31890   0.28472   0.29196   0.00000  Uiso   1.00
O316   O     0.66622   0.21300   0.47122   0.00000  Uiso   1.00
N317   N     0.93944   0.44644   0.32011   0.00000  Uiso   1.00
N318   N     0.24992   0.14337   0.33029   0.00000  Uiso   1.00
N319   N     0.78483   0.09229   0.45804   0.00000  Uiso   1.00
N320   N     0.86883   0.52797   0.27505   0.00000  Uiso   1.00
N321   N     0.17932   0.22490   0.28523   0.00000  Uiso   1.00
N322   N     0.71423   0.17382   0.41298   0.00000  Uiso   1.00
C323   C     0.49772   0.02726   0.87394   0.00000  Uiso   1.00
C324   C     0.46442   0.92585   0.84822   0.00000  Uiso   1.00
C325   C     0.47615   0.79518   0.85159   0.00000  Uiso   1.00
C326   C     0.44069   0.71831   0.82525   0.00000  Uiso   1.00
C327   C     0.39595   0.55293   0.78968   0.00000  Uiso   1.00
C328   C     0.54951   0.11842   0.85099   0.00000  Uiso   1.00
C329   C     0.63279   0.14968   0.85668   0.00000  Uiso   1.00
C330   C     0.66895   0.23493   0.83268   0.00000  Uiso   1.00
C331   C     0.75631   0.36858   0.80141   0.00000  Uiso   1.00
C332   C     0.42175   0.10321   0.88645   0.00000  Uiso   1.00
C333   C     0.39762   0.12171   0.92195   0.00000  Uiso   1.00
C334   C     0.32623   0.19418   0.92780   0.00000  Uiso   1.00
C335   C     0.21522   0.30422   0.95158   0.00000  Uiso   1.00
C336   C     0.41385   0.12311   0.82118   0.00000  Uiso   1.00
C337   C     0.41887   0.97791   0.81957   0.00000  Uiso   1.00
C338   C     0.38337   0.90122   0.79322   0.00000  Uiso   1.00
C339   C     0.39505   0.77046   0.79655   0.00000  Uiso   1.00
C340   C     0.50397   0.17048   0.82234   0.00000  Uiso   1.00
C341   C     0.54001   0.25571   0.79832   0.00000  Uiso   1.00
C342   C     0.62332   0.28708   0.80397   0.00000  Uiso   1.00
C343   C     0.37620   0.15527   0.85779   0.00000  Uiso   1.00
C344   C     0.30484   0.22774   0.86358   0.00000  Uiso   1.00
C345   C     0.28060   0.24634   0.89909   0.00000  Uiso   1.00
H346   H     0.53318   0.98674   0.89624   0.00000  Uiso   1.00
H347   H     0.51142   0.75493   0.87377   0.00000  Uiso   1.00
H348   H     0.66802   0.10938   0.87886   0.00000  Uiso   1.00
H349   H     0.43289   0.08141   0.94412   0.00000  Uiso   1.00
H350   H     0.46722   0.52089   0.83620   0.00000  Uiso   1.00
H351   H     0.79743   0.26830   0.84695   0.00000  Uiso   1.00
H352   H     0.30160   0.20932   0.98456   0.00000  Uiso   1.00
H353   H     0.37839   0.16364   0.79887   0.00000  Uiso   1.00
H354   H     0.34812   0.94153   0.77105   0.00000  Uiso   1.00
H355   H     0.50474   0.29598   0.77615   0.00000  Uiso   1.00
H356   H     0.26960   0.26801   0.84141   0.00000  Uiso   1.00
H357   H     0.33469   0.67234   0.75283   0.00000  Uiso   1.00
H358   H     0.66490   0.41976   0.76359   0.00000  Uiso   1.00
H359   H     0.16907   0.36077   0.90119   0.00000  Uiso   1.00
O360   O     0.38386   0.44732   0.77797   0.00000  Uiso   1.00
O361   O     0.81708   0.42791   0.79208   0.00000  Uiso   1.00
O362   O     0.16657   0.35052   0.97261   0.00000  Uiso   1.00
N363   N     0.44017   0.58702   0.82040   0.00000  Uiso   1.00
N364   N     0.74890   0.28578   0.83045   0.00000  Uiso   1.00
N365   N     0.28536   0.23067   0.95910   0.00000  Uiso   1.00
N366   N     0.36885   0.66851   0.77554   0.00000  Uiso   1.00
N367   N     0.67759   0.36728   0.78559   0.00000  Uiso   1.00
N368   N     0.21404   0.31216   0.91424   0.00000  Uiso   1.00
