data_job_03545
_audit_creation_date              2018-12-19
_audit_creation_method            'Materials Studio'
_symmetry_space_group_name_H-M    'P1'
_symmetry_Int_Tables_number       1
_symmetry_cell_setting            triclinic
loop_
_symmetry_equiv_pos_as_xyz
  x,y,z
_cell_length_a                    24.7528
_cell_length_b                    12.5591
_cell_length_c                    22.2300
_cell_angle_alpha                 90.0000
_cell_angle_beta                  37.9942
_cell_angle_gamma                 90.0000
loop_
_atom_site_label
_atom_site_type_symbol
_atom_site_fract_x
_atom_site_fract_y
_atom_site_fract_z
_atom_site_U_iso_or_equiv
_atom_site_adp_type
_atom_site_occupancy
C1     C     0.22827   0.79897   0.31365   0.00000  Uiso   1.00
C2     C     0.30058   0.88125   0.25959   0.00000  Uiso   1.00
C3     C     0.29217   0.97609   0.29848   0.00000  Uiso   1.00
C4     C     0.36601   0.04056   0.23715   0.00000  Uiso   1.00
C5     C     0.46621   0.17282   0.16790   0.00000  Uiso   1.00
C6     C     0.22005   0.78438   0.25299   0.00000  Uiso   1.00
C7     C     0.14393   0.79776   0.28634   0.00000  Uiso   1.00
C8     C     0.14999   0.78066   0.21945   0.00000  Uiso   1.00
C9     C     0.12516   0.76245   0.13999   0.00000  Uiso   1.00
C10    C     0.26429   0.69417   0.30633   0.00000  Uiso   1.00
C11    C     0.22536   0.63168   0.38453   0.00000  Uiso   1.00
C12    C     0.26865   0.53863   0.36255   0.00000  Uiso   1.00
C13    C     0.31250   0.38036   0.36591   0.00000  Uiso   1.00
C14    C     0.37437   0.74481   0.13557   0.00000  Uiso   1.00
C15    C     0.37993   0.85183   0.16286   0.00000  Uiso   1.00
C16    C     0.45381   0.91617   0.10146   0.00000  Uiso   1.00
C17    C     0.44551   0.01109   0.14025   0.00000  Uiso   1.00
C18    C     0.29940   0.75496   0.15627   0.00000  Uiso   1.00
C19    C     0.30558   0.73784   0.08932   0.00000  Uiso   1.00
C20    C     0.22949   0.75119   0.12256   0.00000  Uiso   1.00
C21    C     0.34365   0.66475   0.20961   0.00000  Uiso   1.00
C22    C     0.38700   0.57177   0.18751   0.00000  Uiso   1.00
C23    C     0.34815   0.50915   0.26565   0.00000  Uiso   1.00
H24    H     0.16648   0.82187   0.38895   0.00000  Uiso   1.00
H25    H     0.23074   0.99883   0.37333   0.00000  Uiso   1.00
H26    H     0.08253   0.82051   0.36119   0.00000  Uiso   1.00
H27    H     0.16395   0.65447   0.45937   0.00000  Uiso   1.00
H28    H     0.33697   0.18207   0.31335   0.00000  Uiso   1.00
H29    H     0.02446   0.80604   0.28777   0.00000  Uiso   1.00
H30    H     0.19613   0.45591   0.49479   0.00000  Uiso   1.00
H31    H     0.43615   0.72190   0.06026   0.00000  Uiso   1.00
H32    H     0.51521   0.89338   0.02661   0.00000  Uiso   1.00
H33    H     0.36700   0.71507   0.01448   0.00000  Uiso   1.00
H34    H     0.44841   0.54903   0.11265   0.00000  Uiso   1.00
H35    H     0.56786   0.09649   0.03194   0.00000  Uiso   1.00
H36    H     0.25534   0.72045   0.00636   0.00000  Uiso   1.00
H37    H     0.42702   0.37033   0.21338   0.00000  Uiso   1.00
O38    O     0.49955   0.25391   0.15643   0.00000  Uiso   1.00
O39    O     0.08953   0.76055   0.12287   0.00000  Uiso   1.00
O40    O     0.31477   0.30119   0.39448   0.00000  Uiso   1.00
N41    N     0.38047   0.13839   0.25175   0.00000  Uiso   1.00
N42    N     0.08828   0.78684   0.22783   0.00000  Uiso   1.00
N43    N     0.24877   0.45948   0.42137   0.00000  Uiso   1.00
N44    N     0.50470   0.09234   0.10032   0.00000  Uiso   1.00
N45    N     0.21252   0.74079   0.07640   0.00000  Uiso   1.00
N46    N     0.37301   0.41343   0.26994   0.00000  Uiso   1.00
C47    C     0.77173   0.79897   0.18635   0.00000  Uiso   1.00
C48    C     0.69942   0.88125   0.24041   0.00000  Uiso   1.00
C49    C     0.70783   0.97609   0.20152   0.00000  Uiso   1.00
C50    C     0.63399   0.04056   0.26285   0.00000  Uiso   1.00
C51    C     0.53379   0.17282   0.33210   0.00000  Uiso   1.00
C52    C     0.77995   0.78438   0.24701   0.00000  Uiso   1.00
C53    C     0.85607   0.79776   0.21366   0.00000  Uiso   1.00
C54    C     0.85001   0.78066   0.28055   0.00000  Uiso   1.00
C55    C     0.87484   0.76245   0.36001   0.00000  Uiso   1.00
C56    C     0.73571   0.69417   0.19367   0.00000  Uiso   1.00
C57    C     0.77464   0.63168   0.11547   0.00000  Uiso   1.00
C58    C     0.73135   0.53863   0.13745   0.00000  Uiso   1.00
C59    C     0.68750   0.38036   0.13409   0.00000  Uiso   1.00
C60    C     0.62563   0.74481   0.36443   0.00000  Uiso   1.00
C61    C     0.62007   0.85183   0.33714   0.00000  Uiso   1.00
C62    C     0.54619   0.91617   0.39854   0.00000  Uiso   1.00
C63    C     0.55449   0.01109   0.35975   0.00000  Uiso   1.00
C64    C     0.70060   0.75496   0.34373   0.00000  Uiso   1.00
C65    C     0.69442   0.73784   0.41068   0.00000  Uiso   1.00
C66    C     0.77051   0.75119   0.37744   0.00000  Uiso   1.00
C67    C     0.65635   0.66475   0.29039   0.00000  Uiso   1.00
C68    C     0.61300   0.57177   0.31249   0.00000  Uiso   1.00
C69    C     0.65185   0.50915   0.23435   0.00000  Uiso   1.00
H70    H     0.83352   0.82187   0.11105   0.00000  Uiso   1.00
H71    H     0.76926   0.99883   0.12667   0.00000  Uiso   1.00
H72    H     0.91747   0.82051   0.13881   0.00000  Uiso   1.00
H73    H     0.83605   0.65447   0.04063   0.00000  Uiso   1.00
H74    H     0.66303   0.18207   0.18665   0.00000  Uiso   1.00
H75    H     0.97554   0.80604   0.21223   0.00000  Uiso   1.00
H76    H     0.80387   0.45591   0.00521   0.00000  Uiso   1.00
H77    H     0.56385   0.72190   0.43974   0.00000  Uiso   1.00
H78    H     0.48479   0.89338   0.47339   0.00000  Uiso   1.00
H79    H     0.63300   0.71507   0.48552   0.00000  Uiso   1.00
H80    H     0.55159   0.54903   0.38735   0.00000  Uiso   1.00
H81    H     0.43214   0.09649   0.46806   0.00000  Uiso   1.00
H82    H     0.74466   0.72045   0.49364   0.00000  Uiso   1.00
H83    H     0.57298   0.37033   0.28662   0.00000  Uiso   1.00
O84    O     0.50045   0.25391   0.34357   0.00000  Uiso   1.00
O85    O     0.91047   0.76055   0.37713   0.00000  Uiso   1.00
O86    O     0.68523   0.30119   0.10552   0.00000  Uiso   1.00
N87    N     0.61953   0.13839   0.24825   0.00000  Uiso   1.00
N88    N     0.91172   0.78684   0.27217   0.00000  Uiso   1.00
N89    N     0.75123   0.45948   0.07863   0.00000  Uiso   1.00
N90    N     0.49530   0.09234   0.39968   0.00000  Uiso   1.00
N91    N     0.78748   0.74079   0.42360   0.00000  Uiso   1.00
N92    N     0.62699   0.41343   0.23006   0.00000  Uiso   1.00
C93    C     0.77173   0.20103   0.68635   0.00000  Uiso   1.00
C94    C     0.69942   0.11875   0.74041   0.00000  Uiso   1.00
C95    C     0.70783   0.02391   0.70152   0.00000  Uiso   1.00
C96    C     0.63399   0.95944   0.76285   0.00000  Uiso   1.00
C97    C     0.53379   0.82718   0.83210   0.00000  Uiso   1.00
C98    C     0.77995   0.21562   0.74701   0.00000  Uiso   1.00
C99    C     0.85607   0.20224   0.71366   0.00000  Uiso   1.00
C100   C     0.85001   0.21934   0.78055   0.00000  Uiso   1.00
C101   C     0.87484   0.23755   0.86001   0.00000  Uiso   1.00
C102   C     0.73571   0.30583   0.69367   0.00000  Uiso   1.00
C103   C     0.77464   0.36832   0.61547   0.00000  Uiso   1.00
C104   C     0.73135   0.46137   0.63745   0.00000  Uiso   1.00
C105   C     0.68750   0.61964   0.63409   0.00000  Uiso   1.00
C106   C     0.62563   0.25519   0.86443   0.00000  Uiso   1.00
C107   C     0.62007   0.14817   0.83714   0.00000  Uiso   1.00
C108   C     0.54619   0.08383   0.89854   0.00000  Uiso   1.00
C109   C     0.55449   0.98891   0.85975   0.00000  Uiso   1.00
C110   C     0.70060   0.24504   0.84373   0.00000  Uiso   1.00
C111   C     0.69442   0.26216   0.91068   0.00000  Uiso   1.00
C112   C     0.77051   0.24881   0.87744   0.00000  Uiso   1.00
C113   C     0.65635   0.33525   0.79039   0.00000  Uiso   1.00
C114   C     0.61300   0.42823   0.81249   0.00000  Uiso   1.00
C115   C     0.65185   0.49085   0.73435   0.00000  Uiso   1.00
H116   H     0.83352   0.17813   0.61105   0.00000  Uiso   1.00
H117   H     0.76926   0.00117   0.62667   0.00000  Uiso   1.00
H118   H     0.91747   0.17949   0.63881   0.00000  Uiso   1.00
H119   H     0.83605   0.34553   0.54063   0.00000  Uiso   1.00
H120   H     0.66303   0.81793   0.68665   0.00000  Uiso   1.00
H121   H     0.97554   0.19396   0.71223   0.00000  Uiso   1.00
H122   H     0.80387   0.54409   0.50521   0.00000  Uiso   1.00
H123   H     0.56385   0.27810   0.93974   0.00000  Uiso   1.00
H124   H     0.48479   0.10662   0.97339   0.00000  Uiso   1.00
H125   H     0.63300   0.28493   0.98552   0.00000  Uiso   1.00
H126   H     0.55159   0.45097   0.88735   0.00000  Uiso   1.00
H127   H     0.43214   0.90351   0.96806   0.00000  Uiso   1.00
H128   H     0.74466   0.27955   0.99364   0.00000  Uiso   1.00
H129   H     0.57298   0.62967   0.78662   0.00000  Uiso   1.00
O130   O     0.50045   0.74609   0.84357   0.00000  Uiso   1.00
O131   O     0.91047   0.23945   0.87713   0.00000  Uiso   1.00
O132   O     0.68523   0.69881   0.60552   0.00000  Uiso   1.00
N133   N     0.61953   0.86161   0.74825   0.00000  Uiso   1.00
N134   N     0.91172   0.21316   0.77217   0.00000  Uiso   1.00
N135   N     0.75123   0.54052   0.57863   0.00000  Uiso   1.00
N136   N     0.49530   0.90766   0.89968   0.00000  Uiso   1.00
N137   N     0.78748   0.25921   0.92360   0.00000  Uiso   1.00
N138   N     0.62699   0.58657   0.73006   0.00000  Uiso   1.00
C139   C     0.22827   0.20103   0.81365   0.00000  Uiso   1.00
C140   C     0.30058   0.11875   0.75959   0.00000  Uiso   1.00
C141   C     0.29217   0.02391   0.79848   0.00000  Uiso   1.00
C142   C     0.36601   0.95944   0.73715   0.00000  Uiso   1.00
C143   C     0.46621   0.82718   0.66790   0.00000  Uiso   1.00
C144   C     0.22005   0.21562   0.75299   0.00000  Uiso   1.00
C145   C     0.14393   0.20224   0.78634   0.00000  Uiso   1.00
C146   C     0.14999   0.21934   0.71945   0.00000  Uiso   1.00
C147   C     0.12516   0.23755   0.63999   0.00000  Uiso   1.00
C148   C     0.26429   0.30583   0.80633   0.00000  Uiso   1.00
C149   C     0.22536   0.36832   0.88453   0.00000  Uiso   1.00
C150   C     0.26865   0.46137   0.86255   0.00000  Uiso   1.00
C151   C     0.31250   0.61964   0.86591   0.00000  Uiso   1.00
C152   C     0.37437   0.25519   0.63557   0.00000  Uiso   1.00
C153   C     0.37993   0.14817   0.66286   0.00000  Uiso   1.00
C154   C     0.45381   0.08383   0.60146   0.00000  Uiso   1.00
C155   C     0.44551   0.98891   0.64025   0.00000  Uiso   1.00
C156   C     0.29940   0.24504   0.65627   0.00000  Uiso   1.00
C157   C     0.30558   0.26216   0.58932   0.00000  Uiso   1.00
C158   C     0.22949   0.24881   0.62256   0.00000  Uiso   1.00
C159   C     0.34365   0.33525   0.70961   0.00000  Uiso   1.00
C160   C     0.38700   0.42823   0.68751   0.00000  Uiso   1.00
C161   C     0.34815   0.49085   0.76565   0.00000  Uiso   1.00
H162   H     0.16648   0.17813   0.88895   0.00000  Uiso   1.00
H163   H     0.23074   0.00117   0.87333   0.00000  Uiso   1.00
H164   H     0.08253   0.17949   0.86119   0.00000  Uiso   1.00
H165   H     0.16395   0.34553   0.95937   0.00000  Uiso   1.00
H166   H     0.33697   0.81793   0.81335   0.00000  Uiso   1.00
H167   H     0.02446   0.19396   0.78777   0.00000  Uiso   1.00
H168   H     0.19613   0.54409   0.99479   0.00000  Uiso   1.00
H169   H     0.43615   0.27810   0.56026   0.00000  Uiso   1.00
H170   H     0.51521   0.10662   0.52661   0.00000  Uiso   1.00
H171   H     0.36700   0.28493   0.51448   0.00000  Uiso   1.00
H172   H     0.44841   0.45097   0.61265   0.00000  Uiso   1.00
H173   H     0.56786   0.90351   0.53194   0.00000  Uiso   1.00
H174   H     0.25534   0.27955   0.50636   0.00000  Uiso   1.00
H175   H     0.42702   0.62967   0.71338   0.00000  Uiso   1.00
O176   O     0.49955   0.74609   0.65643   0.00000  Uiso   1.00
O177   O     0.08953   0.23945   0.62287   0.00000  Uiso   1.00
O178   O     0.31477   0.69881   0.89448   0.00000  Uiso   1.00
N179   N     0.38047   0.86161   0.75175   0.00000  Uiso   1.00
N180   N     0.08828   0.21316   0.72783   0.00000  Uiso   1.00
N181   N     0.24877   0.54052   0.92137   0.00000  Uiso   1.00
N182   N     0.50470   0.90766   0.60032   0.00000  Uiso   1.00
N183   N     0.21252   0.25921   0.57640   0.00000  Uiso   1.00
N184   N     0.37301   0.58657   0.76994   0.00000  Uiso   1.00
