data_job_03128
_audit_creation_date              2018-12-19
_audit_creation_method            'Materials Studio'
_symmetry_space_group_name_H-M    'P1'
_symmetry_Int_Tables_number       1
_symmetry_cell_setting            triclinic
loop_
_symmetry_equiv_pos_as_xyz
  x,y,z
_cell_length_a                    17.2283
_cell_length_b                    21.2773
_cell_length_c                    13.5910
_cell_angle_alpha                 90.0000
_cell_angle_beta                  134.6880
_cell_angle_gamma                 90.0000
loop_
_atom_site_label
_atom_site_type_symbol
_atom_site_fract_x
_atom_site_fract_y
_atom_site_fract_z
_atom_site_U_iso_or_equiv
_atom_site_adp_type
_atom_site_occupancy
C1     C     0.25238   0.67116   0.59643   0.00000  Uiso   1.00
C2     C     0.15881   0.64158   0.57075   0.00000  Uiso   1.00
C3     C     0.06334   0.61750   0.44562   0.00000  Uiso   1.00
C4     C     0.98770   0.59246   0.44339   0.00000  Uiso   1.00
C5     C     0.83945   0.54670   0.38544   0.00000  Uiso   1.00
C6     C     0.26819   0.73675   0.65346   0.00000  Uiso   1.00
C7     C     0.26471   0.79267   0.59788   0.00000  Uiso   1.00
C8     C     0.28117   0.84774   0.66530   0.00000  Uiso   1.00
C9     C     0.30282   0.94972   0.73582   0.00000  Uiso   1.00
C10    C     0.35442   0.63404   0.71487   0.00000  Uiso   1.00
C11    C     0.42347   0.60362   0.71094   0.00000  Uiso   1.00
C12    C     0.51254   0.57224   0.83008   0.00000  Uiso   1.00
C13    C     0.66808   0.51475   0.99594   0.00000  Uiso   1.00
C14    C     0.28781   0.66953   0.81500   0.00000  Uiso   1.00
C15    C     0.17805   0.64070   0.68946   0.00000  Uiso   1.00
C16    C     0.10254   0.61569   0.68743   0.00000  Uiso   1.00
C17    C     0.00698   0.59157   0.56232   0.00000  Uiso   1.00
C18    C     0.28743   0.73587   0.77217   0.00000  Uiso   1.00
C19    C     0.30391   0.79087   0.83970   0.00000  Uiso   1.00
C20    C     0.30044   0.84686   0.78424   0.00000  Uiso   1.00
C21    C     0.37367   0.63316   0.83358   0.00000  Uiso   1.00
C22    C     0.46266   0.60182   0.95276   0.00000  Uiso   1.00
C23    C     0.53182   0.57135   0.94901   0.00000  Uiso   1.00
H24    H     0.23740   0.67185   0.50401   0.00000  Uiso   1.00
H25    H     0.04848   0.61819   0.35376   0.00000  Uiso   1.00
H26    H     0.24983   0.79334   0.50602   0.00000  Uiso   1.00
H27    H     0.40855   0.60432   0.61906   0.00000  Uiso   1.00
H28    H     0.84748   0.55833   0.23953   0.00000  Uiso   1.00
H29    H     0.27208   0.92763   0.56059   0.00000  Uiso   1.00
H30    H     0.60679   0.52905   0.79896   0.00000  Uiso   1.00
H31    H     0.30280   0.66885   0.90743   0.00000  Uiso   1.00
H32    H     0.11745   0.61502   0.77932   0.00000  Uiso   1.00
H33    H     0.31880   0.79017   0.93157   0.00000  Uiso   1.00
H34    H     0.47753   0.60115   0.04461   0.00000  Uiso   1.00
H35    H     0.90346   0.55576   0.58493   0.00000  Uiso   1.00
H36    H     0.32807   0.92506   0.90599   0.00000  Uiso   1.00
H37    H     0.66277   0.52647   0.14435   0.00000  Uiso   1.00
O38    O     0.75235   0.52171   0.32067   0.00000  Uiso   1.00
O39    O     0.30943   0.00621   0.74190   0.00000  Uiso   1.00
O40    O     0.74855   0.48328   0.05462   0.00000  Uiso   1.00
N41    N     0.88610   0.56510   0.33841   0.00000  Uiso   1.00
N42    N     0.28306   0.91038   0.63857   0.00000  Uiso   1.00
N43    N     0.59600   0.53775   0.86143   0.00000  Uiso   1.00
N44    N     0.91623   0.56372   0.52426   0.00000  Uiso   1.00
N45    N     0.31318   0.90899   0.82442   0.00000  Uiso   1.00
N46    N     0.62612   0.53636   0.04728   0.00000  Uiso   1.00
C47    C     0.74762   0.17116   0.90357   0.00000  Uiso   1.00
C48    C     0.84119   0.14158   0.92925   0.00000  Uiso   1.00
C49    C     0.93666   0.11750   0.05438   0.00000  Uiso   1.00
C50    C     0.01230   0.09246   0.05661   0.00000  Uiso   1.00
C51    C     0.16055   0.04670   0.11456   0.00000  Uiso   1.00
C52    C     0.73181   0.23675   0.84654   0.00000  Uiso   1.00
C53    C     0.73529   0.29267   0.90212   0.00000  Uiso   1.00
C54    C     0.71883   0.34774   0.83470   0.00000  Uiso   1.00
C55    C     0.69718   0.44972   0.76418   0.00000  Uiso   1.00
C56    C     0.64558   0.13404   0.78513   0.00000  Uiso   1.00
C57    C     0.57653   0.10362   0.78906   0.00000  Uiso   1.00
C58    C     0.48746   0.07224   0.66992   0.00000  Uiso   1.00
C59    C     0.33192   0.01475   0.50406   0.00000  Uiso   1.00
C60    C     0.71219   0.16953   0.68500   0.00000  Uiso   1.00
C61    C     0.82195   0.14070   0.81054   0.00000  Uiso   1.00
C62    C     0.89746   0.11569   0.81257   0.00000  Uiso   1.00
C63    C     0.99302   0.09157   0.93768   0.00000  Uiso   1.00
C64    C     0.71257   0.23587   0.72783   0.00000  Uiso   1.00
C65    C     0.69609   0.29087   0.66030   0.00000  Uiso   1.00
C66    C     0.69956   0.34686   0.71576   0.00000  Uiso   1.00
C67    C     0.62633   0.13316   0.66642   0.00000  Uiso   1.00
C68    C     0.53734   0.10182   0.54724   0.00000  Uiso   1.00
C69    C     0.46818   0.07135   0.55099   0.00000  Uiso   1.00
H70    H     0.76260   0.17185   0.99599   0.00000  Uiso   1.00
H71    H     0.95152   0.11819   0.14624   0.00000  Uiso   1.00
H72    H     0.75017   0.29334   0.99398   0.00000  Uiso   1.00
H73    H     0.59145   0.10432   0.88094   0.00000  Uiso   1.00
H74    H     0.15252   0.05833   0.26047   0.00000  Uiso   1.00
H75    H     0.72792   0.42763   0.93941   0.00000  Uiso   1.00
H76    H     0.39321   0.02905   0.70104   0.00000  Uiso   1.00
H77    H     0.69720   0.16885   0.59257   0.00000  Uiso   1.00
H78    H     0.88255   0.11502   0.72068   0.00000  Uiso   1.00
H79    H     0.68120   0.29017   0.56843   0.00000  Uiso   1.00
H80    H     0.52247   0.10115   0.45539   0.00000  Uiso   1.00
H81    H     0.09654   0.05576   0.91507   0.00000  Uiso   1.00
H82    H     0.67193   0.42506   0.59401   0.00000  Uiso   1.00
H83    H     0.33723   0.02647   0.35565   0.00000  Uiso   1.00
O84    O     0.24765   0.02171   0.17933   0.00000  Uiso   1.00
O85    O     0.69057   0.50621   0.75810   0.00000  Uiso   1.00
O86    O     0.25145   0.98328   0.44538   0.00000  Uiso   1.00
N87    N     0.11390   0.06510   0.16159   0.00000  Uiso   1.00
N88    N     0.71694   0.41038   0.86143   0.00000  Uiso   1.00
N89    N     0.40400   0.03775   0.63857   0.00000  Uiso   1.00
N90    N     0.08377   0.06372   0.97574   0.00000  Uiso   1.00
N91    N     0.68682   0.40899   0.67558   0.00000  Uiso   1.00
N92    N     0.37388   0.03636   0.45272   0.00000  Uiso   1.00
C93    C     0.74762   0.32884   0.40357   0.00000  Uiso   1.00
C94    C     0.84119   0.35842   0.42925   0.00000  Uiso   1.00
C95    C     0.93666   0.38250   0.55438   0.00000  Uiso   1.00
C96    C     0.01230   0.40754   0.55661   0.00000  Uiso   1.00
C97    C     0.16055   0.45330   0.61456   0.00000  Uiso   1.00
C98    C     0.73181   0.26325   0.34654   0.00000  Uiso   1.00
C99    C     0.73529   0.20733   0.40212   0.00000  Uiso   1.00
C100   C     0.71883   0.15226   0.33470   0.00000  Uiso   1.00
C101   C     0.69718   0.05028   0.26418   0.00000  Uiso   1.00
C102   C     0.64558   0.36596   0.28513   0.00000  Uiso   1.00
C103   C     0.57653   0.39638   0.28906   0.00000  Uiso   1.00
C104   C     0.48746   0.42776   0.16992   0.00000  Uiso   1.00
C105   C     0.33192   0.48525   0.00406   0.00000  Uiso   1.00
C106   C     0.71219   0.33047   0.18500   0.00000  Uiso   1.00
C107   C     0.82195   0.35930   0.31054   0.00000  Uiso   1.00
C108   C     0.89746   0.38431   0.31257   0.00000  Uiso   1.00
C109   C     0.99302   0.40843   0.43768   0.00000  Uiso   1.00
C110   C     0.71257   0.26413   0.22783   0.00000  Uiso   1.00
C111   C     0.69609   0.20913   0.16030   0.00000  Uiso   1.00
C112   C     0.69956   0.15314   0.21576   0.00000  Uiso   1.00
C113   C     0.62633   0.36684   0.16642   0.00000  Uiso   1.00
C114   C     0.53734   0.39818   0.04724   0.00000  Uiso   1.00
C115   C     0.46818   0.42865   0.05099   0.00000  Uiso   1.00
H116   H     0.76260   0.32815   0.49599   0.00000  Uiso   1.00
H117   H     0.95152   0.38181   0.64624   0.00000  Uiso   1.00
H118   H     0.75017   0.20666   0.49398   0.00000  Uiso   1.00
H119   H     0.59145   0.39568   0.38094   0.00000  Uiso   1.00
H120   H     0.15252   0.44167   0.76047   0.00000  Uiso   1.00
H121   H     0.72792   0.07237   0.43941   0.00000  Uiso   1.00
H122   H     0.39321   0.47095   0.20104   0.00000  Uiso   1.00
H123   H     0.69720   0.33115   0.09257   0.00000  Uiso   1.00
H124   H     0.88255   0.38498   0.22068   0.00000  Uiso   1.00
H125   H     0.68120   0.20983   0.06843   0.00000  Uiso   1.00
H126   H     0.52247   0.39885   0.95539   0.00000  Uiso   1.00
H127   H     0.09654   0.44424   0.41507   0.00000  Uiso   1.00
H128   H     0.67193   0.07494   0.09401   0.00000  Uiso   1.00
H129   H     0.33723   0.47353   0.85565   0.00000  Uiso   1.00
O130   O     0.24765   0.47829   0.67933   0.00000  Uiso   1.00
O131   O     0.69057   0.99379   0.25810   0.00000  Uiso   1.00
O132   O     0.25145   0.51672   0.94538   0.00000  Uiso   1.00
N133   N     0.11390   0.43490   0.66159   0.00000  Uiso   1.00
N134   N     0.71694   0.08962   0.36143   0.00000  Uiso   1.00
N135   N     0.40400   0.46225   0.13857   0.00000  Uiso   1.00
N136   N     0.08377   0.43628   0.47574   0.00000  Uiso   1.00
N137   N     0.68682   0.09101   0.17558   0.00000  Uiso   1.00
N138   N     0.37388   0.46364   0.95272   0.00000  Uiso   1.00
C139   C     0.25238   0.82884   0.09643   0.00000  Uiso   1.00
C140   C     0.15881   0.85842   0.07075   0.00000  Uiso   1.00
C141   C     0.06334   0.88250   0.94562   0.00000  Uiso   1.00
C142   C     0.98770   0.90754   0.94339   0.00000  Uiso   1.00
C143   C     0.83945   0.95330   0.88544   0.00000  Uiso   1.00
C144   C     0.26819   0.76325   0.15346   0.00000  Uiso   1.00
C145   C     0.26471   0.70733   0.09788   0.00000  Uiso   1.00
C146   C     0.28117   0.65226   0.16530   0.00000  Uiso   1.00
C147   C     0.30282   0.55028   0.23582   0.00000  Uiso   1.00
C148   C     0.35442   0.86596   0.21487   0.00000  Uiso   1.00
C149   C     0.42347   0.89638   0.21094   0.00000  Uiso   1.00
C150   C     0.51254   0.92776   0.33008   0.00000  Uiso   1.00
C151   C     0.66808   0.98525   0.49594   0.00000  Uiso   1.00
C152   C     0.28781   0.83047   0.31500   0.00000  Uiso   1.00
C153   C     0.17805   0.85930   0.18946   0.00000  Uiso   1.00
C154   C     0.10254   0.88431   0.18743   0.00000  Uiso   1.00
C155   C     0.00698   0.90843   0.06232   0.00000  Uiso   1.00
C156   C     0.28743   0.76413   0.27217   0.00000  Uiso   1.00
C157   C     0.30391   0.70913   0.33970   0.00000  Uiso   1.00
C158   C     0.30044   0.65314   0.28424   0.00000  Uiso   1.00
C159   C     0.37367   0.86684   0.33358   0.00000  Uiso   1.00
C160   C     0.46266   0.89818   0.45276   0.00000  Uiso   1.00
C161   C     0.53182   0.92865   0.44901   0.00000  Uiso   1.00
H162   H     0.23740   0.82815   0.00401   0.00000  Uiso   1.00
H163   H     0.04848   0.88181   0.85376   0.00000  Uiso   1.00
H164   H     0.24983   0.70666   0.00602   0.00000  Uiso   1.00
H165   H     0.40855   0.89568   0.11906   0.00000  Uiso   1.00
H166   H     0.84748   0.94167   0.73953   0.00000  Uiso   1.00
H167   H     0.27208   0.57237   0.06059   0.00000  Uiso   1.00
H168   H     0.60679   0.97095   0.29896   0.00000  Uiso   1.00
H169   H     0.30280   0.83115   0.40743   0.00000  Uiso   1.00
H170   H     0.11745   0.88498   0.27932   0.00000  Uiso   1.00
H171   H     0.31880   0.70983   0.43157   0.00000  Uiso   1.00
H172   H     0.47753   0.89885   0.54461   0.00000  Uiso   1.00
H173   H     0.90346   0.94424   0.08493   0.00000  Uiso   1.00
H174   H     0.32807   0.57494   0.40599   0.00000  Uiso   1.00
H175   H     0.66277   0.97353   0.64435   0.00000  Uiso   1.00
O176   O     0.75235   0.97829   0.82067   0.00000  Uiso   1.00
O177   O     0.30943   0.49379   0.24190   0.00000  Uiso   1.00
O178   O     0.74855   0.01672   0.55462   0.00000  Uiso   1.00
N179   N     0.88610   0.93490   0.83841   0.00000  Uiso   1.00
N180   N     0.28306   0.58962   0.13857   0.00000  Uiso   1.00
N181   N     0.59600   0.96225   0.36143   0.00000  Uiso   1.00
N182   N     0.91623   0.93628   0.02426   0.00000  Uiso   1.00
N183   N     0.31318   0.59101   0.32442   0.00000  Uiso   1.00
N184   N     0.62612   0.96364   0.54728   0.00000  Uiso   1.00
