data_job_05776
_audit_creation_date              2018-12-19
_audit_creation_method            'Materials Studio'
_symmetry_space_group_name_H-M    'P1'
_symmetry_Int_Tables_number       1
_symmetry_cell_setting            triclinic
loop_
_symmetry_equiv_pos_as_xyz
  x,y,z
_cell_length_a                    30.8976
_cell_length_b                    11.4164
_cell_length_c                    17.2719
_cell_angle_alpha                 90.0000
_cell_angle_beta                  56.6828
_cell_angle_gamma                 90.0000
loop_
_atom_site_label
_atom_site_type_symbol
_atom_site_fract_x
_atom_site_fract_y
_atom_site_fract_z
_atom_site_U_iso_or_equiv
_atom_site_adp_type
_atom_site_occupancy
C1     C     0.90983   0.46669   0.81867   0.00000  Uiso   1.00
C2     C     0.86638   0.53128   0.90325   0.00000  Uiso   1.00
C3     C     0.86999   0.58278   0.97228   0.00000  Uiso   1.00
C4     C     0.82589   0.63767   0.04388   0.00000  Uiso   1.00
C5     C     0.76542   0.73742   0.17487   0.00000  Uiso   1.00
C6     C     0.88881   0.34489   0.82127   0.00000  Uiso   1.00
C7     C     0.91128   0.23967   0.82136   0.00000  Uiso   1.00
C8     C     0.88606   0.13765   0.82394   0.00000  Uiso   1.00
C9     C     0.86044   0.94802   0.82758   0.00000  Uiso   1.00
C10    C     0.91621   0.52793   0.73452   0.00000  Uiso   1.00
C11    C     0.96173   0.57660   0.66165   0.00000  Uiso   1.00
C12    C     0.95959   0.62866   0.59118   0.00000  Uiso   1.00
C13    C     0.97651   0.72324   0.46013   0.00000  Uiso   1.00
C14    C     0.82508   0.47258   0.82307   0.00000  Uiso   1.00
C15    C     0.82035   0.53448   0.90563   0.00000  Uiso   1.00
C16    C     0.77623   0.58930   0.97715   0.00000  Uiso   1.00
C17    C     0.77978   0.64088   0.04627   0.00000  Uiso   1.00
C18    C     0.84278   0.34808   0.82366   0.00000  Uiso   1.00
C19    C     0.81752   0.24619   0.82623   0.00000  Uiso   1.00
C20    C     0.83995   0.14085   0.82633   0.00000  Uiso   1.00
C21    C     0.87019   0.53114   0.73691   0.00000  Uiso   1.00
C22    C     0.86797   0.58312   0.66653   0.00000  Uiso   1.00
C23    C     0.91347   0.63187   0.59358   0.00000  Uiso   1.00
H24    H     0.94566   0.46419   0.81681   0.00000  Uiso   1.00
H25    H     0.90562   0.58028   0.97041   0.00000  Uiso   1.00
H26    H     0.94691   0.23722   0.81950   0.00000  Uiso   1.00
H27    H     0.99734   0.57411   0.65983   0.00000  Uiso   1.00
H28    H     0.84092   0.71036   0.14178   0.00000  Uiso   1.00
H29    H     0.92798   0.98701   0.82354   0.00000  Uiso   1.00
H30    H     0.03435   0.69738   0.48684   0.00000  Uiso   1.00
H31    H     0.78925   0.47507   0.82493   0.00000  Uiso   1.00
H32    H     0.74062   0.59176   0.97898   0.00000  Uiso   1.00
H33    H     0.78191   0.24870   0.82807   0.00000  Uiso   1.00
H34    H     0.83234   0.58558   0.66840   0.00000  Uiso   1.00
H35    H     0.70700   0.71967   0.14874   0.00000  Uiso   1.00
H36    H     0.79406   0.99632   0.83050   0.00000  Uiso   1.00
H37    H     0.90042   0.70670   0.49380   0.00000  Uiso   1.00
O38    O     0.74479   0.79154   0.24646   0.00000  Uiso   1.00
O39    O     0.85902   0.84254   0.82894   0.00000  Uiso   1.00
O40    O     0.99856   0.77454   0.38719   0.00000  Uiso   1.00
N41    N     0.81608   0.69655   0.12226   0.00000  Uiso   1.00
N42    N     0.89747   0.02026   0.82475   0.00000  Uiso   1.00
N43    N     0.99692   0.68438   0.50995   0.00000  Uiso   1.00
N44    N     0.74402   0.70157   0.12601   0.00000  Uiso   1.00
N45    N     0.82541   0.02528   0.82849   0.00000  Uiso   1.00
N46    N     0.92485   0.68939   0.51369   0.00000  Uiso   1.00
C47    C     0.40983   0.96669   0.81867   0.00000  Uiso   1.00
C48    C     0.36638   0.03128   0.90325   0.00000  Uiso   1.00
C49    C     0.36999   0.08278   0.97228   0.00000  Uiso   1.00
C50    C     0.32589   0.13767   0.04388   0.00000  Uiso   1.00
C51    C     0.26542   0.23742   0.17487   0.00000  Uiso   1.00
C52    C     0.38881   0.84489   0.82127   0.00000  Uiso   1.00
C53    C     0.41128   0.73967   0.82136   0.00000  Uiso   1.00
C54    C     0.38606   0.63765   0.82394   0.00000  Uiso   1.00
C55    C     0.36044   0.44802   0.82758   0.00000  Uiso   1.00
C56    C     0.41621   0.02793   0.73452   0.00000  Uiso   1.00
C57    C     0.46173   0.07660   0.66165   0.00000  Uiso   1.00
C58    C     0.45959   0.12866   0.59118   0.00000  Uiso   1.00
C59    C     0.47651   0.22324   0.46013   0.00000  Uiso   1.00
C60    C     0.32508   0.97258   0.82307   0.00000  Uiso   1.00
C61    C     0.32035   0.03448   0.90563   0.00000  Uiso   1.00
C62    C     0.27623   0.08930   0.97715   0.00000  Uiso   1.00
C63    C     0.27978   0.14088   0.04627   0.00000  Uiso   1.00
C64    C     0.34278   0.84808   0.82366   0.00000  Uiso   1.00
C65    C     0.31752   0.74619   0.82623   0.00000  Uiso   1.00
C66    C     0.33995   0.64085   0.82633   0.00000  Uiso   1.00
C67    C     0.37019   0.03114   0.73691   0.00000  Uiso   1.00
C68    C     0.36797   0.08312   0.66653   0.00000  Uiso   1.00
C69    C     0.41347   0.13187   0.59358   0.00000  Uiso   1.00
H70    H     0.44566   0.96419   0.81681   0.00000  Uiso   1.00
H71    H     0.40562   0.08028   0.97041   0.00000  Uiso   1.00
H72    H     0.44691   0.73722   0.81950   0.00000  Uiso   1.00
H73    H     0.49734   0.07411   0.65983   0.00000  Uiso   1.00
H74    H     0.34092   0.21036   0.14178   0.00000  Uiso   1.00
H75    H     0.42798   0.48701   0.82354   0.00000  Uiso   1.00
H76    H     0.53435   0.19738   0.48684   0.00000  Uiso   1.00
H77    H     0.28925   0.97507   0.82493   0.00000  Uiso   1.00
H78    H     0.24062   0.09176   0.97898   0.00000  Uiso   1.00
H79    H     0.28191   0.74870   0.82807   0.00000  Uiso   1.00
H80    H     0.33234   0.08558   0.66840   0.00000  Uiso   1.00
H81    H     0.20700   0.21967   0.14874   0.00000  Uiso   1.00
H82    H     0.29406   0.49632   0.83050   0.00000  Uiso   1.00
H83    H     0.40042   0.20670   0.49380   0.00000  Uiso   1.00
O84    O     0.24479   0.29154   0.24646   0.00000  Uiso   1.00
O85    O     0.35902   0.34254   0.82894   0.00000  Uiso   1.00
O86    O     0.49856   0.27454   0.38719   0.00000  Uiso   1.00
N87    N     0.31608   0.19655   0.12226   0.00000  Uiso   1.00
N88    N     0.39747   0.52026   0.82475   0.00000  Uiso   1.00
N89    N     0.49692   0.18438   0.50995   0.00000  Uiso   1.00
N90    N     0.24402   0.20157   0.12601   0.00000  Uiso   1.00
N91    N     0.32541   0.52528   0.82849   0.00000  Uiso   1.00
N92    N     0.42485   0.18939   0.51369   0.00000  Uiso   1.00
C93    C     0.09017   0.46669   0.68133   0.00000  Uiso   1.00
C94    C     0.13362   0.53128   0.59675   0.00000  Uiso   1.00
C95    C     0.13001   0.58278   0.52772   0.00000  Uiso   1.00
C96    C     0.17411   0.63767   0.45612   0.00000  Uiso   1.00
C97    C     0.23458   0.73742   0.32513   0.00000  Uiso   1.00
C98    C     0.11119   0.34489   0.67873   0.00000  Uiso   1.00
C99    C     0.08872   0.23967   0.67864   0.00000  Uiso   1.00
C100   C     0.11394   0.13765   0.67606   0.00000  Uiso   1.00
C101   C     0.13956   0.94802   0.67242   0.00000  Uiso   1.00
C102   C     0.08379   0.52793   0.76548   0.00000  Uiso   1.00
C103   C     0.03827   0.57660   0.83835   0.00000  Uiso   1.00
C104   C     0.04041   0.62866   0.90882   0.00000  Uiso   1.00
C105   C     0.02349   0.72324   0.03987   0.00000  Uiso   1.00
C106   C     0.17492   0.47258   0.67693   0.00000  Uiso   1.00
C107   C     0.17965   0.53448   0.59437   0.00000  Uiso   1.00
C108   C     0.22377   0.58930   0.52285   0.00000  Uiso   1.00
C109   C     0.22022   0.64088   0.45373   0.00000  Uiso   1.00
C110   C     0.15722   0.34808   0.67634   0.00000  Uiso   1.00
C111   C     0.18248   0.24619   0.67377   0.00000  Uiso   1.00
C112   C     0.16005   0.14085   0.67367   0.00000  Uiso   1.00
C113   C     0.12981   0.53114   0.76309   0.00000  Uiso   1.00
C114   C     0.13203   0.58312   0.83347   0.00000  Uiso   1.00
C115   C     0.08653   0.63187   0.90642   0.00000  Uiso   1.00
H116   H     0.05434   0.46419   0.68319   0.00000  Uiso   1.00
H117   H     0.09438   0.58028   0.52959   0.00000  Uiso   1.00
H118   H     0.05309   0.23722   0.68050   0.00000  Uiso   1.00
H119   H     0.00266   0.57411   0.84017   0.00000  Uiso   1.00
H120   H     0.15908   0.71036   0.35822   0.00000  Uiso   1.00
H121   H     0.07202   0.98701   0.67646   0.00000  Uiso   1.00
H122   H     0.96565   0.69738   0.01316   0.00000  Uiso   1.00
H123   H     0.21075   0.47507   0.67507   0.00000  Uiso   1.00
H124   H     0.25938   0.59176   0.52102   0.00000  Uiso   1.00
H125   H     0.21809   0.24870   0.67193   0.00000  Uiso   1.00
H126   H     0.16766   0.58558   0.83160   0.00000  Uiso   1.00
H127   H     0.29300   0.71967   0.35126   0.00000  Uiso   1.00
H128   H     0.20594   0.99632   0.66950   0.00000  Uiso   1.00
H129   H     0.09958   0.70670   0.00620   0.00000  Uiso   1.00
O130   O     0.25521   0.79154   0.25354   0.00000  Uiso   1.00
O131   O     0.14098   0.84254   0.67106   0.00000  Uiso   1.00
O132   O     0.00144   0.77454   0.11281   0.00000  Uiso   1.00
N133   N     0.18392   0.69655   0.37774   0.00000  Uiso   1.00
N134   N     0.10253   0.02026   0.67525   0.00000  Uiso   1.00
N135   N     0.00308   0.68438   0.99005   0.00000  Uiso   1.00
N136   N     0.25598   0.70157   0.37399   0.00000  Uiso   1.00
N137   N     0.17459   0.02528   0.67151   0.00000  Uiso   1.00
N138   N     0.07515   0.68939   0.98631   0.00000  Uiso   1.00
C139   C     0.59017   0.96669   0.68133   0.00000  Uiso   1.00
C140   C     0.63362   0.03128   0.59675   0.00000  Uiso   1.00
C141   C     0.63001   0.08278   0.52772   0.00000  Uiso   1.00
C142   C     0.67411   0.13767   0.45612   0.00000  Uiso   1.00
C143   C     0.73458   0.23742   0.32513   0.00000  Uiso   1.00
C144   C     0.61119   0.84489   0.67873   0.00000  Uiso   1.00
C145   C     0.58872   0.73967   0.67864   0.00000  Uiso   1.00
C146   C     0.61394   0.63765   0.67606   0.00000  Uiso   1.00
C147   C     0.63956   0.44802   0.67242   0.00000  Uiso   1.00
C148   C     0.58379   0.02793   0.76548   0.00000  Uiso   1.00
C149   C     0.53827   0.07660   0.83835   0.00000  Uiso   1.00
C150   C     0.54041   0.12866   0.90882   0.00000  Uiso   1.00
C151   C     0.52349   0.22324   0.03987   0.00000  Uiso   1.00
C152   C     0.67492   0.97258   0.67693   0.00000  Uiso   1.00
C153   C     0.67965   0.03448   0.59437   0.00000  Uiso   1.00
C154   C     0.72377   0.08930   0.52285   0.00000  Uiso   1.00
C155   C     0.72022   0.14088   0.45373   0.00000  Uiso   1.00
C156   C     0.65722   0.84808   0.67634   0.00000  Uiso   1.00
C157   C     0.68248   0.74619   0.67377   0.00000  Uiso   1.00
C158   C     0.66005   0.64085   0.67367   0.00000  Uiso   1.00
C159   C     0.62981   0.03114   0.76309   0.00000  Uiso   1.00
C160   C     0.63203   0.08312   0.83347   0.00000  Uiso   1.00
C161   C     0.58653   0.13187   0.90642   0.00000  Uiso   1.00
H162   H     0.55434   0.96419   0.68319   0.00000  Uiso   1.00
H163   H     0.59438   0.08028   0.52959   0.00000  Uiso   1.00
H164   H     0.55309   0.73722   0.68050   0.00000  Uiso   1.00
H165   H     0.50266   0.07411   0.84017   0.00000  Uiso   1.00
H166   H     0.65908   0.21036   0.35822   0.00000  Uiso   1.00
H167   H     0.57202   0.48701   0.67646   0.00000  Uiso   1.00
H168   H     0.46565   0.19738   0.01316   0.00000  Uiso   1.00
H169   H     0.71075   0.97507   0.67507   0.00000  Uiso   1.00
H170   H     0.75938   0.09176   0.52102   0.00000  Uiso   1.00
H171   H     0.71809   0.74870   0.67193   0.00000  Uiso   1.00
H172   H     0.66766   0.08558   0.83160   0.00000  Uiso   1.00
H173   H     0.79300   0.21967   0.35126   0.00000  Uiso   1.00
H174   H     0.70594   0.49632   0.66950   0.00000  Uiso   1.00
H175   H     0.59958   0.20670   0.00620   0.00000  Uiso   1.00
O176   O     0.75521   0.29154   0.25354   0.00000  Uiso   1.00
O177   O     0.64098   0.34254   0.67106   0.00000  Uiso   1.00
O178   O     0.50144   0.27454   0.11281   0.00000  Uiso   1.00
N179   N     0.68392   0.19655   0.37774   0.00000  Uiso   1.00
N180   N     0.60253   0.52026   0.67525   0.00000  Uiso   1.00
N181   N     0.50308   0.18438   0.99005   0.00000  Uiso   1.00
N182   N     0.75598   0.20157   0.37399   0.00000  Uiso   1.00
N183   N     0.67459   0.52528   0.67151   0.00000  Uiso   1.00
N184   N     0.57515   0.18939   0.98631   0.00000  Uiso   1.00
C185   C     0.09017   0.53331   0.18133   0.00000  Uiso   1.00
C186   C     0.13362   0.46872   0.09675   0.00000  Uiso   1.00
C187   C     0.13001   0.41722   0.02772   0.00000  Uiso   1.00
C188   C     0.17411   0.36233   0.95612   0.00000  Uiso   1.00
C189   C     0.23458   0.26258   0.82513   0.00000  Uiso   1.00
C190   C     0.11119   0.65511   0.17873   0.00000  Uiso   1.00
C191   C     0.08872   0.76033   0.17864   0.00000  Uiso   1.00
C192   C     0.11394   0.86235   0.17606   0.00000  Uiso   1.00
C193   C     0.13956   0.05198   0.17242   0.00000  Uiso   1.00
C194   C     0.08379   0.47207   0.26548   0.00000  Uiso   1.00
C195   C     0.03827   0.42340   0.33835   0.00000  Uiso   1.00
C196   C     0.04041   0.37134   0.40882   0.00000  Uiso   1.00
C197   C     0.02349   0.27676   0.53987   0.00000  Uiso   1.00
C198   C     0.17492   0.52742   0.17693   0.00000  Uiso   1.00
C199   C     0.17965   0.46552   0.09437   0.00000  Uiso   1.00
C200   C     0.22377   0.41070   0.02285   0.00000  Uiso   1.00
C201   C     0.22022   0.35912   0.95373   0.00000  Uiso   1.00
C202   C     0.15722   0.65192   0.17634   0.00000  Uiso   1.00
C203   C     0.18248   0.75381   0.17377   0.00000  Uiso   1.00
C204   C     0.16005   0.85915   0.17367   0.00000  Uiso   1.00
C205   C     0.12981   0.46886   0.26309   0.00000  Uiso   1.00
C206   C     0.13203   0.41688   0.33347   0.00000  Uiso   1.00
C207   C     0.08653   0.36813   0.40642   0.00000  Uiso   1.00
H208   H     0.05434   0.53581   0.18319   0.00000  Uiso   1.00
H209   H     0.09438   0.41972   0.02959   0.00000  Uiso   1.00
H210   H     0.05309   0.76278   0.18050   0.00000  Uiso   1.00
H211   H     0.00266   0.42589   0.34017   0.00000  Uiso   1.00
H212   H     0.15908   0.28964   0.85822   0.00000  Uiso   1.00
H213   H     0.07202   0.01299   0.17646   0.00000  Uiso   1.00
H214   H     0.96565   0.30262   0.51316   0.00000  Uiso   1.00
H215   H     0.21075   0.52493   0.17507   0.00000  Uiso   1.00
H216   H     0.25938   0.40824   0.02102   0.00000  Uiso   1.00
H217   H     0.21809   0.75130   0.17193   0.00000  Uiso   1.00
H218   H     0.16766   0.41442   0.33160   0.00000  Uiso   1.00
H219   H     0.29300   0.28033   0.85126   0.00000  Uiso   1.00
H220   H     0.20594   0.00368   0.16950   0.00000  Uiso   1.00
H221   H     0.09958   0.29330   0.50620   0.00000  Uiso   1.00
O222   O     0.25521   0.20846   0.75354   0.00000  Uiso   1.00
O223   O     0.14098   0.15746   0.17106   0.00000  Uiso   1.00
O224   O     0.00144   0.22546   0.61281   0.00000  Uiso   1.00
N225   N     0.18392   0.30345   0.87774   0.00000  Uiso   1.00
N226   N     0.10253   0.97974   0.17525   0.00000  Uiso   1.00
N227   N     0.00308   0.31562   0.49005   0.00000  Uiso   1.00
N228   N     0.25598   0.29843   0.87399   0.00000  Uiso   1.00
N229   N     0.17459   0.97472   0.17151   0.00000  Uiso   1.00
N230   N     0.07515   0.31061   0.48631   0.00000  Uiso   1.00
C231   C     0.59017   0.03331   0.18133   0.00000  Uiso   1.00
C232   C     0.63362   0.96872   0.09675   0.00000  Uiso   1.00
C233   C     0.63001   0.91722   0.02772   0.00000  Uiso   1.00
C234   C     0.67411   0.86233   0.95612   0.00000  Uiso   1.00
C235   C     0.73458   0.76258   0.82513   0.00000  Uiso   1.00
C236   C     0.61119   0.15511   0.17873   0.00000  Uiso   1.00
C237   C     0.58872   0.26033   0.17864   0.00000  Uiso   1.00
C238   C     0.61394   0.36235   0.17606   0.00000  Uiso   1.00
C239   C     0.63956   0.55198   0.17242   0.00000  Uiso   1.00
C240   C     0.58379   0.97207   0.26548   0.00000  Uiso   1.00
C241   C     0.53827   0.92340   0.33835   0.00000  Uiso   1.00
C242   C     0.54041   0.87134   0.40882   0.00000  Uiso   1.00
C243   C     0.52349   0.77676   0.53987   0.00000  Uiso   1.00
C244   C     0.67492   0.02742   0.17693   0.00000  Uiso   1.00
C245   C     0.67965   0.96552   0.09437   0.00000  Uiso   1.00
C246   C     0.72377   0.91070   0.02285   0.00000  Uiso   1.00
C247   C     0.72022   0.85912   0.95373   0.00000  Uiso   1.00
C248   C     0.65722   0.15192   0.17634   0.00000  Uiso   1.00
C249   C     0.68248   0.25381   0.17377   0.00000  Uiso   1.00
C250   C     0.66005   0.35915   0.17367   0.00000  Uiso   1.00
C251   C     0.62981   0.96886   0.26309   0.00000  Uiso   1.00
C252   C     0.63203   0.91688   0.33347   0.00000  Uiso   1.00
C253   C     0.58653   0.86813   0.40642   0.00000  Uiso   1.00
H254   H     0.55434   0.03581   0.18319   0.00000  Uiso   1.00
H255   H     0.59438   0.91972   0.02959   0.00000  Uiso   1.00
H256   H     0.55309   0.26278   0.18050   0.00000  Uiso   1.00
H257   H     0.50266   0.92589   0.34017   0.00000  Uiso   1.00
H258   H     0.65908   0.78964   0.85822   0.00000  Uiso   1.00
H259   H     0.57202   0.51299   0.17646   0.00000  Uiso   1.00
H260   H     0.46565   0.80262   0.51316   0.00000  Uiso   1.00
H261   H     0.71075   0.02493   0.17507   0.00000  Uiso   1.00
H262   H     0.75938   0.90824   0.02102   0.00000  Uiso   1.00
H263   H     0.71809   0.25130   0.17193   0.00000  Uiso   1.00
H264   H     0.66766   0.91442   0.33160   0.00000  Uiso   1.00
H265   H     0.79300   0.78033   0.85126   0.00000  Uiso   1.00
H266   H     0.70594   0.50368   0.16950   0.00000  Uiso   1.00
H267   H     0.59958   0.79330   0.50620   0.00000  Uiso   1.00
O268   O     0.75521   0.70846   0.75354   0.00000  Uiso   1.00
O269   O     0.64098   0.65746   0.17106   0.00000  Uiso   1.00
O270   O     0.50144   0.72546   0.61281   0.00000  Uiso   1.00
N271   N     0.68392   0.80345   0.87774   0.00000  Uiso   1.00
N272   N     0.60253   0.47974   0.17525   0.00000  Uiso   1.00
N273   N     0.50308   0.81562   0.49005   0.00000  Uiso   1.00
N274   N     0.75598   0.79843   0.87399   0.00000  Uiso   1.00
N275   N     0.67459   0.47472   0.17151   0.00000  Uiso   1.00
N276   N     0.57515   0.81061   0.48631   0.00000  Uiso   1.00
C277   C     0.90983   0.53331   0.31867   0.00000  Uiso   1.00
C278   C     0.86638   0.46872   0.40325   0.00000  Uiso   1.00
C279   C     0.86999   0.41722   0.47228   0.00000  Uiso   1.00
C280   C     0.82589   0.36233   0.54388   0.00000  Uiso   1.00
C281   C     0.76542   0.26258   0.67487   0.00000  Uiso   1.00
C282   C     0.88881   0.65511   0.32127   0.00000  Uiso   1.00
C283   C     0.91128   0.76033   0.32136   0.00000  Uiso   1.00
C284   C     0.88606   0.86235   0.32394   0.00000  Uiso   1.00
C285   C     0.86044   0.05198   0.32758   0.00000  Uiso   1.00
C286   C     0.91621   0.47207   0.23452   0.00000  Uiso   1.00
C287   C     0.96173   0.42340   0.16165   0.00000  Uiso   1.00
C288   C     0.95959   0.37134   0.09118   0.00000  Uiso   1.00
C289   C     0.97651   0.27676   0.96013   0.00000  Uiso   1.00
C290   C     0.82508   0.52742   0.32307   0.00000  Uiso   1.00
C291   C     0.82035   0.46552   0.40563   0.00000  Uiso   1.00
C292   C     0.77623   0.41070   0.47715   0.00000  Uiso   1.00
C293   C     0.77978   0.35912   0.54627   0.00000  Uiso   1.00
C294   C     0.84278   0.65192   0.32366   0.00000  Uiso   1.00
C295   C     0.81752   0.75381   0.32623   0.00000  Uiso   1.00
C296   C     0.83995   0.85915   0.32633   0.00000  Uiso   1.00
C297   C     0.87019   0.46886   0.23691   0.00000  Uiso   1.00
C298   C     0.86797   0.41688   0.16653   0.00000  Uiso   1.00
C299   C     0.91347   0.36813   0.09358   0.00000  Uiso   1.00
H300   H     0.94566   0.53581   0.31681   0.00000  Uiso   1.00
H301   H     0.90562   0.41972   0.47041   0.00000  Uiso   1.00
H302   H     0.94691   0.76278   0.31950   0.00000  Uiso   1.00
H303   H     0.99734   0.42589   0.15983   0.00000  Uiso   1.00
H304   H     0.84092   0.28964   0.64178   0.00000  Uiso   1.00
H305   H     0.92798   0.01299   0.32354   0.00000  Uiso   1.00
H306   H     0.03435   0.30262   0.98684   0.00000  Uiso   1.00
H307   H     0.78925   0.52493   0.32493   0.00000  Uiso   1.00
H308   H     0.74062   0.40824   0.47898   0.00000  Uiso   1.00
H309   H     0.78191   0.75130   0.32807   0.00000  Uiso   1.00
H310   H     0.83234   0.41442   0.16840   0.00000  Uiso   1.00
H311   H     0.70700   0.28033   0.64874   0.00000  Uiso   1.00
H312   H     0.79406   0.00368   0.33050   0.00000  Uiso   1.00
H313   H     0.90042   0.29330   0.99380   0.00000  Uiso   1.00
O314   O     0.74479   0.20846   0.74646   0.00000  Uiso   1.00
O315   O     0.85902   0.15746   0.32894   0.00000  Uiso   1.00
O316   O     0.99856   0.22546   0.88719   0.00000  Uiso   1.00
N317   N     0.81608   0.30345   0.62226   0.00000  Uiso   1.00
N318   N     0.89747   0.97974   0.32475   0.00000  Uiso   1.00
N319   N     0.99692   0.31562   0.00995   0.00000  Uiso   1.00
N320   N     0.74402   0.29843   0.62601   0.00000  Uiso   1.00
N321   N     0.82541   0.97472   0.32849   0.00000  Uiso   1.00
N322   N     0.92485   0.31061   0.01369   0.00000  Uiso   1.00
C323   C     0.40983   0.03331   0.31867   0.00000  Uiso   1.00
C324   C     0.36638   0.96872   0.40325   0.00000  Uiso   1.00
C325   C     0.36999   0.91722   0.47228   0.00000  Uiso   1.00
C326   C     0.32589   0.86233   0.54388   0.00000  Uiso   1.00
C327   C     0.26542   0.76258   0.67487   0.00000  Uiso   1.00
C328   C     0.38881   0.15511   0.32127   0.00000  Uiso   1.00
C329   C     0.41128   0.26033   0.32136   0.00000  Uiso   1.00
C330   C     0.38606   0.36235   0.32394   0.00000  Uiso   1.00
C331   C     0.36044   0.55198   0.32758   0.00000  Uiso   1.00
C332   C     0.41621   0.97207   0.23452   0.00000  Uiso   1.00
C333   C     0.46173   0.92340   0.16165   0.00000  Uiso   1.00
C334   C     0.45959   0.87134   0.09118   0.00000  Uiso   1.00
C335   C     0.47651   0.77676   0.96013   0.00000  Uiso   1.00
C336   C     0.32508   0.02742   0.32307   0.00000  Uiso   1.00
C337   C     0.32035   0.96552   0.40563   0.00000  Uiso   1.00
C338   C     0.27623   0.91070   0.47715   0.00000  Uiso   1.00
C339   C     0.27978   0.85912   0.54627   0.00000  Uiso   1.00
C340   C     0.34278   0.15192   0.32366   0.00000  Uiso   1.00
C341   C     0.31752   0.25381   0.32623   0.00000  Uiso   1.00
C342   C     0.33995   0.35915   0.32633   0.00000  Uiso   1.00
C343   C     0.37019   0.96886   0.23691   0.00000  Uiso   1.00
C344   C     0.36797   0.91688   0.16653   0.00000  Uiso   1.00
C345   C     0.41347   0.86813   0.09358   0.00000  Uiso   1.00
H346   H     0.44566   0.03581   0.31681   0.00000  Uiso   1.00
H347   H     0.40562   0.91972   0.47041   0.00000  Uiso   1.00
H348   H     0.44691   0.26278   0.31950   0.00000  Uiso   1.00
H349   H     0.49734   0.92589   0.15983   0.00000  Uiso   1.00
H350   H     0.34092   0.78964   0.64178   0.00000  Uiso   1.00
H351   H     0.42798   0.51299   0.32354   0.00000  Uiso   1.00
H352   H     0.53435   0.80262   0.98684   0.00000  Uiso   1.00
H353   H     0.28925   0.02493   0.32493   0.00000  Uiso   1.00
H354   H     0.24062   0.90824   0.47898   0.00000  Uiso   1.00
H355   H     0.28191   0.25130   0.32807   0.00000  Uiso   1.00
H356   H     0.33234   0.91442   0.16840   0.00000  Uiso   1.00
H357   H     0.20700   0.78033   0.64874   0.00000  Uiso   1.00
H358   H     0.29406   0.50368   0.33050   0.00000  Uiso   1.00
H359   H     0.40042   0.79330   0.99380   0.00000  Uiso   1.00
O360   O     0.24479   0.70846   0.74646   0.00000  Uiso   1.00
O361   O     0.35902   0.65746   0.32894   0.00000  Uiso   1.00
O362   O     0.49856   0.72546   0.88719   0.00000  Uiso   1.00
N363   N     0.31608   0.80345   0.62226   0.00000  Uiso   1.00
N364   N     0.39747   0.47974   0.32475   0.00000  Uiso   1.00
N365   N     0.49692   0.81562   0.00995   0.00000  Uiso   1.00
N366   N     0.24402   0.79843   0.62601   0.00000  Uiso   1.00
N367   N     0.32541   0.47472   0.32849   0.00000  Uiso   1.00
N368   N     0.42485   0.81061   0.01369   0.00000  Uiso   1.00
