data_job_01648
_audit_creation_date              2018-12-19
_audit_creation_method            'Materials Studio'
_symmetry_space_group_name_H-M    'P1'
_symmetry_Int_Tables_number       1
_symmetry_cell_setting            triclinic
loop_
_symmetry_equiv_pos_as_xyz
  x,y,z
_cell_length_a                    9.5847
_cell_length_b                    19.0802
_cell_length_c                    13.1109
_cell_angle_alpha                 90.0000
_cell_angle_beta                  90.0000
_cell_angle_gamma                 90.0000
loop_
_atom_site_label
_atom_site_type_symbol
_atom_site_fract_x
_atom_site_fract_y
_atom_site_fract_z
_atom_site_U_iso_or_equiv
_atom_site_adp_type
_atom_site_occupancy
C1     C     0.52527   0.10037   0.79915   0.00000  Uiso   1.00
C2     C     0.62900   0.11695   0.71432   0.00000  Uiso   1.00
C3     C     0.77322   0.11663   0.72368   0.00000  Uiso   1.00
C4     C     0.84986   0.13327   0.63714   0.00000  Uiso   1.00
C5     C     0.02087   0.15655   0.51951   0.00000  Uiso   1.00
C6     C     0.42981   0.16407   0.80717   0.00000  Uiso   1.00
C7     C     0.40655   0.20338   0.89460   0.00000  Uiso   1.00
C8     C     0.31549   0.25968   0.88623   0.00000  Uiso   1.00
C9     C     0.17718   0.35610   0.91277   0.00000  Uiso   1.00
C10    C     0.43452   0.04074   0.75923   0.00000  Uiso   1.00
C11    C     0.41518   0.97634   0.80637   0.00000  Uiso   1.00
C12    C     0.32806   0.92881   0.75764   0.00000  Uiso   1.00
C13    C     0.19706   0.83372   0.70975   0.00000  Uiso   1.00
C14    C     0.40491   0.13048   0.62882   0.00000  Uiso   1.00
C15    C     0.56362   0.13330   0.62180   0.00000  Uiso   1.00
C16    C     0.64007   0.14994   0.53523   0.00000  Uiso   1.00
C17    C     0.78438   0.14965   0.54446   0.00000  Uiso   1.00
C18    C     0.36444   0.18043   0.71466   0.00000  Uiso   1.00
C19    C     0.27339   0.23668   0.70615   0.00000  Uiso   1.00
C20    C     0.25000   0.27606   0.79355   0.00000  Uiso   1.00
C21    C     0.36915   0.05709   0.66671   0.00000  Uiso   1.00
C22    C     0.28203   0.00965   0.61791   0.00000  Uiso   1.00
C23    C     0.26257   0.94519   0.66496   0.00000  Uiso   1.00
H24    H     0.57616   0.08765   0.87118   0.00000  Uiso   1.00
H25    H     0.82377   0.10398   0.79529   0.00000  Uiso   1.00
H26    H     0.45714   0.19071   0.96619   0.00000  Uiso   1.00
H27    H     0.46578   0.96370   0.87796   0.00000  Uiso   1.00
H28    H     0.06947   0.12933   0.67037   0.00000  Uiso   1.00
H29    H     0.29637   0.31218   0.03073   0.00000  Uiso   1.00
H30    H     0.31458   0.83350   0.84469   0.00000  Uiso   1.00
H31    H     0.35402   0.14321   0.55679   0.00000  Uiso   1.00
H32    H     0.58945   0.16259   0.46364   0.00000  Uiso   1.00
H33    H     0.22282   0.24932   0.63455   0.00000  Uiso   1.00
H34    H     0.23146   0.02232   0.54632   0.00000  Uiso   1.00
H35    H     0.87928   0.17690   0.40119   0.00000  Uiso   1.00
H36    H     0.10618   0.35975   0.76156   0.00000  Uiso   1.00
H37    H     0.12440   0.88107   0.57551   0.00000  Uiso   1.00
O38    O     0.13326   0.16489   0.48019   0.00000  Uiso   1.00
O39    O     0.11896   0.40476   0.95297   0.00000  Uiso   1.00
O40    O     0.14287   0.77675   0.70889   0.00000  Uiso   1.00
N41    N     0.99240   0.13785   0.61979   0.00000  Uiso   1.00
N42    N     0.26962   0.30881   0.95670   0.00000  Uiso   1.00
N43    N     0.28662   0.86129   0.78279   0.00000  Uiso   1.00
N44    N     0.89006   0.16345   0.47495   0.00000  Uiso   1.00
N45    N     0.16728   0.33441   0.81186   0.00000  Uiso   1.00
N46    N     0.18428   0.88689   0.63794   0.00000  Uiso   1.00
C47    C     0.97473   0.89963   0.29915   0.00000  Uiso   1.00
C48    C     0.87100   0.88305   0.21432   0.00000  Uiso   1.00
C49    C     0.72678   0.88337   0.22368   0.00000  Uiso   1.00
C50    C     0.65014   0.86673   0.13714   0.00000  Uiso   1.00
C51    C     0.47913   0.84345   0.01951   0.00000  Uiso   1.00
C52    C     0.07019   0.83593   0.30717   0.00000  Uiso   1.00
C53    C     0.09345   0.79662   0.39460   0.00000  Uiso   1.00
C54    C     0.18451   0.74032   0.38623   0.00000  Uiso   1.00
C55    C     0.32282   0.64390   0.41277   0.00000  Uiso   1.00
C56    C     0.06548   0.95926   0.25923   0.00000  Uiso   1.00
C57    C     0.08482   0.02366   0.30637   0.00000  Uiso   1.00
C58    C     0.17194   0.07119   0.25764   0.00000  Uiso   1.00
C59    C     0.30294   0.16628   0.20975   0.00000  Uiso   1.00
C60    C     0.09509   0.86952   0.12882   0.00000  Uiso   1.00
C61    C     0.93638   0.86670   0.12180   0.00000  Uiso   1.00
C62    C     0.85993   0.85006   0.03523   0.00000  Uiso   1.00
C63    C     0.71562   0.85035   0.04446   0.00000  Uiso   1.00
C64    C     0.13556   0.81957   0.21466   0.00000  Uiso   1.00
C65    C     0.22661   0.76332   0.20615   0.00000  Uiso   1.00
C66    C     0.25000   0.72394   0.29355   0.00000  Uiso   1.00
C67    C     0.13085   0.94291   0.16671   0.00000  Uiso   1.00
C68    C     0.21797   0.99035   0.11791   0.00000  Uiso   1.00
C69    C     0.23743   0.05481   0.16496   0.00000  Uiso   1.00
H70    H     0.92384   0.91235   0.37118   0.00000  Uiso   1.00
H71    H     0.67623   0.89602   0.29529   0.00000  Uiso   1.00
H72    H     0.04286   0.80929   0.46619   0.00000  Uiso   1.00
H73    H     0.03422   0.03630   0.37796   0.00000  Uiso   1.00
H74    H     0.43053   0.87067   0.17037   0.00000  Uiso   1.00
H75    H     0.20363   0.68782   0.53073   0.00000  Uiso   1.00
H76    H     0.18542   0.16650   0.34469   0.00000  Uiso   1.00
H77    H     0.14598   0.85679   0.05679   0.00000  Uiso   1.00
H78    H     0.91055   0.83741   0.96364   0.00000  Uiso   1.00
H79    H     0.27718   0.75068   0.13455   0.00000  Uiso   1.00
H80    H     0.26854   0.97768   0.04632   0.00000  Uiso   1.00
H81    H     0.62072   0.82310   0.90119   0.00000  Uiso   1.00
H82    H     0.39382   0.64025   0.26156   0.00000  Uiso   1.00
H83    H     0.37560   0.11893   0.07551   0.00000  Uiso   1.00
O84    O     0.36674   0.83511   0.98019   0.00000  Uiso   1.00
O85    O     0.38104   0.59524   0.45297   0.00000  Uiso   1.00
O86    O     0.35713   0.22325   0.20889   0.00000  Uiso   1.00
N87    N     0.50760   0.86215   0.11979   0.00000  Uiso   1.00
N88    N     0.23038   0.69119   0.45670   0.00000  Uiso   1.00
N89    N     0.21338   0.13871   0.28279   0.00000  Uiso   1.00
N90    N     0.60994   0.83655   0.97495   0.00000  Uiso   1.00
N91    N     0.33272   0.66559   0.31186   0.00000  Uiso   1.00
N92    N     0.31572   0.11311   0.13794   0.00000  Uiso   1.00
C93    C     0.47473   0.60037   0.70085   0.00000  Uiso   1.00
C94    C     0.37100   0.61695   0.78568   0.00000  Uiso   1.00
C95    C     0.22678   0.61663   0.77632   0.00000  Uiso   1.00
C96    C     0.15014   0.63327   0.86286   0.00000  Uiso   1.00
C97    C     0.97913   0.65655   0.98049   0.00000  Uiso   1.00
C98    C     0.57019   0.66407   0.69283   0.00000  Uiso   1.00
C99    C     0.59345   0.70338   0.60540   0.00000  Uiso   1.00
C100   C     0.68451   0.75968   0.61377   0.00000  Uiso   1.00
C101   C     0.82282   0.85610   0.58723   0.00000  Uiso   1.00
C102   C     0.56548   0.54074   0.74077   0.00000  Uiso   1.00
C103   C     0.58482   0.47634   0.69363   0.00000  Uiso   1.00
C104   C     0.67194   0.42881   0.74236   0.00000  Uiso   1.00
C105   C     0.80294   0.33372   0.79025   0.00000  Uiso   1.00
C106   C     0.59509   0.63048   0.87118   0.00000  Uiso   1.00
C107   C     0.43638   0.63330   0.87820   0.00000  Uiso   1.00
C108   C     0.35993   0.64994   0.96477   0.00000  Uiso   1.00
C109   C     0.21562   0.64965   0.95554   0.00000  Uiso   1.00
C110   C     0.63556   0.68043   0.78534   0.00000  Uiso   1.00
C111   C     0.72661   0.73668   0.79385   0.00000  Uiso   1.00
C112   C     0.75000   0.77606   0.70645   0.00000  Uiso   1.00
C113   C     0.63085   0.55709   0.83329   0.00000  Uiso   1.00
C114   C     0.71797   0.50965   0.88209   0.00000  Uiso   1.00
C115   C     0.73743   0.44519   0.83504   0.00000  Uiso   1.00
H116   H     0.42384   0.58765   0.62882   0.00000  Uiso   1.00
H117   H     0.17623   0.60398   0.70471   0.00000  Uiso   1.00
H118   H     0.54286   0.69071   0.53381   0.00000  Uiso   1.00
H119   H     0.53422   0.46370   0.62204   0.00000  Uiso   1.00
H120   H     0.93053   0.62933   0.82963   0.00000  Uiso   1.00
H121   H     0.70363   0.81218   0.46927   0.00000  Uiso   1.00
H122   H     0.68542   0.33350   0.65531   0.00000  Uiso   1.00
H123   H     0.64598   0.64321   0.94321   0.00000  Uiso   1.00
H124   H     0.41055   0.66259   0.03636   0.00000  Uiso   1.00
H125   H     0.77718   0.74932   0.86545   0.00000  Uiso   1.00
H126   H     0.76854   0.52232   0.95368   0.00000  Uiso   1.00
H127   H     0.12072   0.67690   0.09881   0.00000  Uiso   1.00
H128   H     0.89382   0.85975   0.73844   0.00000  Uiso   1.00
H129   H     0.87560   0.38107   0.92449   0.00000  Uiso   1.00
O130   O     0.86674   0.66489   0.01981   0.00000  Uiso   1.00
O131   O     0.88104   0.90476   0.54703   0.00000  Uiso   1.00
O132   O     0.85713   0.27675   0.79111   0.00000  Uiso   1.00
N133   N     0.00760   0.63785   0.88021   0.00000  Uiso   1.00
N134   N     0.73038   0.80881   0.54330   0.00000  Uiso   1.00
N135   N     0.71338   0.36129   0.71721   0.00000  Uiso   1.00
N136   N     0.10994   0.66345   0.02505   0.00000  Uiso   1.00
N137   N     0.83272   0.83441   0.68814   0.00000  Uiso   1.00
N138   N     0.81572   0.38689   0.86206   0.00000  Uiso   1.00
C139   C     0.02527   0.39963   0.20085   0.00000  Uiso   1.00
C140   C     0.12900   0.38305   0.28568   0.00000  Uiso   1.00
C141   C     0.27322   0.38337   0.27632   0.00000  Uiso   1.00
C142   C     0.34986   0.36673   0.36286   0.00000  Uiso   1.00
C143   C     0.52087   0.34345   0.48049   0.00000  Uiso   1.00
C144   C     0.92981   0.33593   0.19283   0.00000  Uiso   1.00
C145   C     0.90655   0.29662   0.10540   0.00000  Uiso   1.00
C146   C     0.81549   0.24032   0.11377   0.00000  Uiso   1.00
C147   C     0.67718   0.14390   0.08723   0.00000  Uiso   1.00
C148   C     0.93452   0.45926   0.24077   0.00000  Uiso   1.00
C149   C     0.91518   0.52366   0.19363   0.00000  Uiso   1.00
C150   C     0.82806   0.57119   0.24236   0.00000  Uiso   1.00
C151   C     0.69706   0.66628   0.29025   0.00000  Uiso   1.00
C152   C     0.90491   0.36952   0.37118   0.00000  Uiso   1.00
C153   C     0.06362   0.36670   0.37820   0.00000  Uiso   1.00
C154   C     0.14007   0.35006   0.46477   0.00000  Uiso   1.00
C155   C     0.28438   0.35035   0.45554   0.00000  Uiso   1.00
C156   C     0.86444   0.31957   0.28534   0.00000  Uiso   1.00
C157   C     0.77339   0.26332   0.29385   0.00000  Uiso   1.00
C158   C     0.75000   0.22394   0.20645   0.00000  Uiso   1.00
C159   C     0.86915   0.44291   0.33329   0.00000  Uiso   1.00
C160   C     0.78203   0.49035   0.38209   0.00000  Uiso   1.00
C161   C     0.76257   0.55481   0.33504   0.00000  Uiso   1.00
H162   H     0.07616   0.41235   0.12882   0.00000  Uiso   1.00
H163   H     0.32377   0.39602   0.20471   0.00000  Uiso   1.00
H164   H     0.95714   0.30929   0.03381   0.00000  Uiso   1.00
H165   H     0.96578   0.53630   0.12204   0.00000  Uiso   1.00
H166   H     0.56947   0.37067   0.32963   0.00000  Uiso   1.00
H167   H     0.79637   0.18782   0.96927   0.00000  Uiso   1.00
H168   H     0.81458   0.66650   0.15531   0.00000  Uiso   1.00
H169   H     0.85402   0.35679   0.44321   0.00000  Uiso   1.00
H170   H     0.08945   0.33741   0.53636   0.00000  Uiso   1.00
H171   H     0.72282   0.25068   0.36545   0.00000  Uiso   1.00
H172   H     0.73146   0.47768   0.45368   0.00000  Uiso   1.00
H173   H     0.37928   0.32310   0.59881   0.00000  Uiso   1.00
H174   H     0.60618   0.14025   0.23844   0.00000  Uiso   1.00
H175   H     0.62440   0.61893   0.42449   0.00000  Uiso   1.00
O176   O     0.63326   0.33511   0.51981   0.00000  Uiso   1.00
O177   O     0.61896   0.09524   0.04703   0.00000  Uiso   1.00
O178   O     0.64287   0.72325   0.29111   0.00000  Uiso   1.00
N179   N     0.49240   0.36215   0.38021   0.00000  Uiso   1.00
N180   N     0.76962   0.19119   0.04330   0.00000  Uiso   1.00
N181   N     0.78662   0.63871   0.21721   0.00000  Uiso   1.00
N182   N     0.39006   0.33655   0.52505   0.00000  Uiso   1.00
N183   N     0.66728   0.16559   0.18814   0.00000  Uiso   1.00
N184   N     0.68428   0.61311   0.36206   0.00000  Uiso   1.00
