data_job_03829
_audit_creation_date              2018-12-19
_audit_creation_method            'Materials Studio'
_symmetry_space_group_name_H-M    'P1'
_symmetry_Int_Tables_number       1
_symmetry_cell_setting            triclinic
loop_
_symmetry_equiv_pos_as_xyz
  x,y,z
_cell_length_a                    28.3107
_cell_length_b                    11.7735
_cell_length_c                    15.1546
_cell_angle_alpha                 90.0000
_cell_angle_beta                  77.7892
_cell_angle_gamma                 90.0000
loop_
_atom_site_label
_atom_site_type_symbol
_atom_site_fract_x
_atom_site_fract_y
_atom_site_fract_z
_atom_site_U_iso_or_equiv
_atom_site_adp_type
_atom_site_occupancy
C1     C     0.61661   0.69325   0.48604   0.00000  Uiso   1.00
C2     C     0.56746   0.73094   0.47057   0.00000  Uiso   1.00
C3     C     0.52434   0.72864   0.53434   0.00000  Uiso   1.00
C4     C     0.48331   0.76673   0.50691   0.00000  Uiso   1.00
C5     C     0.40669   0.81927   0.49627   0.00000  Uiso   1.00
C6     C     0.63479   0.60298   0.41478   0.00000  Uiso   1.00
C7     C     0.64828   0.49310   0.43166   0.00000  Uiso   1.00
C8     C     0.66392   0.42347   0.35727   0.00000  Uiso   1.00
C9     C     0.69185   0.27737   0.26002   0.00000  Uiso   1.00
C10    C     0.65017   0.79497   0.46168   0.00000  Uiso   1.00
C11    C     0.67661   0.84650   0.51796   0.00000  Uiso   1.00
C12    C     0.70522   0.93850   0.48305   0.00000  Uiso   1.00
C13    C     0.75704   0.09051   0.45860   0.00000  Uiso   1.00
C14    C     0.62041   0.76497   0.32394   0.00000  Uiso   1.00
C15    C     0.56953   0.76990   0.38252   0.00000  Uiso   1.00
C16    C     0.52855   0.80800   0.35499   0.00000  Uiso   1.00
C17    C     0.48538   0.80576   0.41871   0.00000  Uiso   1.00
C18    C     0.63685   0.64193   0.32674   0.00000  Uiso   1.00
C19    C     0.65248   0.57245   0.25231   0.00000  Uiso   1.00
C20    C     0.66599   0.46249   0.26907   0.00000  Uiso   1.00
C21    C     0.65224   0.83393   0.37363   0.00000  Uiso   1.00
C22    C     0.68082   0.92586   0.33862   0.00000  Uiso   1.00
C23    C     0.70729   0.97753   0.39484   0.00000  Uiso   1.00
H24    H     0.61500   0.66291   0.55458   0.00000  Uiso   1.00
H25    H     0.52276   0.69848   0.60247   0.00000  Uiso   1.00
H26    H     0.64668   0.46298   0.49980   0.00000  Uiso   1.00
H27    H     0.67500   0.81633   0.58609   0.00000  Uiso   1.00
H28    H     0.42140   0.75505   0.61671   0.00000  Uiso   1.00
H29    H     0.68270   0.25849   0.40024   0.00000  Uiso   1.00
H30    H     0.74244   0.00361   0.58220   0.00000  Uiso   1.00
H31    H     0.62202   0.79530   0.25538   0.00000  Uiso   1.00
H32    H     0.53016   0.83814   0.28685   0.00000  Uiso   1.00
H33    H     0.65408   0.60263   0.18418   0.00000  Uiso   1.00
H34    H     0.68241   0.95599   0.27048   0.00000  Uiso   1.00
H35    H     0.42741   0.86840   0.36054   0.00000  Uiso   1.00
H36    H     0.68872   0.37184   0.14407   0.00000  Uiso   1.00
H37    H     0.74845   0.11696   0.32603   0.00000  Uiso   1.00
O38    O     0.36385   0.83748   0.51472   0.00000  Uiso   1.00
O39    O     0.70668   0.18602   0.23071   0.00000  Uiso   1.00
O40    O     0.78504   0.16360   0.46945   0.00000  Uiso   1.00
N41    N     0.43542   0.77587   0.55211   0.00000  Uiso   1.00
N42    N     0.67972   0.31161   0.34972   0.00000  Uiso   1.00
N43    N     0.73558   0.00821   0.51983   0.00000  Uiso   1.00
N44    N     0.43866   0.83686   0.41427   0.00000  Uiso   1.00
N45    N     0.68295   0.37260   0.21188   0.00000  Uiso   1.00
N46    N     0.73881   0.06921   0.38199   0.00000  Uiso   1.00
C47    C     0.11661   0.19325   0.48604   0.00000  Uiso   1.00
C48    C     0.06746   0.23094   0.47057   0.00000  Uiso   1.00
C49    C     0.02434   0.22864   0.53434   0.00000  Uiso   1.00
C50    C     0.98331   0.26673   0.50691   0.00000  Uiso   1.00
C51    C     0.90669   0.31927   0.49627   0.00000  Uiso   1.00
C52    C     0.13479   0.10298   0.41478   0.00000  Uiso   1.00
C53    C     0.14828   0.99310   0.43166   0.00000  Uiso   1.00
C54    C     0.16392   0.92347   0.35727   0.00000  Uiso   1.00
C55    C     0.19185   0.77737   0.26002   0.00000  Uiso   1.00
C56    C     0.15017   0.29497   0.46168   0.00000  Uiso   1.00
C57    C     0.17661   0.34650   0.51796   0.00000  Uiso   1.00
C58    C     0.20522   0.43850   0.48305   0.00000  Uiso   1.00
C59    C     0.25704   0.59051   0.45860   0.00000  Uiso   1.00
C60    C     0.12041   0.26497   0.32394   0.00000  Uiso   1.00
C61    C     0.06953   0.26990   0.38252   0.00000  Uiso   1.00
C62    C     0.02855   0.30800   0.35499   0.00000  Uiso   1.00
C63    C     0.98538   0.30576   0.41871   0.00000  Uiso   1.00
C64    C     0.13685   0.14193   0.32674   0.00000  Uiso   1.00
C65    C     0.15248   0.07245   0.25231   0.00000  Uiso   1.00
C66    C     0.16599   0.96249   0.26907   0.00000  Uiso   1.00
C67    C     0.15224   0.33393   0.37363   0.00000  Uiso   1.00
C68    C     0.18082   0.42586   0.33862   0.00000  Uiso   1.00
C69    C     0.20729   0.47753   0.39484   0.00000  Uiso   1.00
H70    H     0.11500   0.16291   0.55458   0.00000  Uiso   1.00
H71    H     0.02276   0.19848   0.60247   0.00000  Uiso   1.00
H72    H     0.14668   0.96298   0.49980   0.00000  Uiso   1.00
H73    H     0.17500   0.31633   0.58609   0.00000  Uiso   1.00
H74    H     0.92140   0.25505   0.61671   0.00000  Uiso   1.00
H75    H     0.18270   0.75849   0.40024   0.00000  Uiso   1.00
H76    H     0.24244   0.50361   0.58220   0.00000  Uiso   1.00
H77    H     0.12202   0.29530   0.25538   0.00000  Uiso   1.00
H78    H     0.03016   0.33814   0.28685   0.00000  Uiso   1.00
H79    H     0.15408   0.10263   0.18418   0.00000  Uiso   1.00
H80    H     0.18241   0.45599   0.27048   0.00000  Uiso   1.00
H81    H     0.92741   0.36840   0.36054   0.00000  Uiso   1.00
H82    H     0.18872   0.87184   0.14407   0.00000  Uiso   1.00
H83    H     0.24845   0.61696   0.32603   0.00000  Uiso   1.00
O84    O     0.86385   0.33748   0.51472   0.00000  Uiso   1.00
O85    O     0.20668   0.68602   0.23071   0.00000  Uiso   1.00
O86    O     0.28504   0.66360   0.46945   0.00000  Uiso   1.00
N87    N     0.93542   0.27587   0.55211   0.00000  Uiso   1.00
N88    N     0.17972   0.81161   0.34972   0.00000  Uiso   1.00
N89    N     0.23558   0.50821   0.51983   0.00000  Uiso   1.00
N90    N     0.93866   0.33686   0.41427   0.00000  Uiso   1.00
N91    N     0.18295   0.87260   0.21188   0.00000  Uiso   1.00
N92    N     0.23881   0.56921   0.38199   0.00000  Uiso   1.00
C93    C     0.38339   0.69325   0.01396   0.00000  Uiso   1.00
C94    C     0.43254   0.73094   0.02943   0.00000  Uiso   1.00
C95    C     0.47566   0.72864   0.96566   0.00000  Uiso   1.00
C96    C     0.51669   0.76673   0.99309   0.00000  Uiso   1.00
C97    C     0.59331   0.81927   0.00373   0.00000  Uiso   1.00
C98    C     0.36521   0.60298   0.08522   0.00000  Uiso   1.00
C99    C     0.35172   0.49310   0.06834   0.00000  Uiso   1.00
C100   C     0.33608   0.42347   0.14273   0.00000  Uiso   1.00
C101   C     0.30815   0.27737   0.23998   0.00000  Uiso   1.00
C102   C     0.34983   0.79497   0.03832   0.00000  Uiso   1.00
C103   C     0.32339   0.84650   0.98204   0.00000  Uiso   1.00
C104   C     0.29478   0.93850   0.01695   0.00000  Uiso   1.00
C105   C     0.24296   0.09051   0.04140   0.00000  Uiso   1.00
C106   C     0.37959   0.76497   0.17606   0.00000  Uiso   1.00
C107   C     0.43047   0.76990   0.11748   0.00000  Uiso   1.00
C108   C     0.47145   0.80800   0.14501   0.00000  Uiso   1.00
C109   C     0.51462   0.80576   0.08129   0.00000  Uiso   1.00
C110   C     0.36315   0.64193   0.17326   0.00000  Uiso   1.00
C111   C     0.34752   0.57245   0.24769   0.00000  Uiso   1.00
C112   C     0.33401   0.46249   0.23093   0.00000  Uiso   1.00
C113   C     0.34776   0.83393   0.12637   0.00000  Uiso   1.00
C114   C     0.31918   0.92586   0.16138   0.00000  Uiso   1.00
C115   C     0.29271   0.97753   0.10516   0.00000  Uiso   1.00
H116   H     0.38500   0.66291   0.94542   0.00000  Uiso   1.00
H117   H     0.47724   0.69848   0.89753   0.00000  Uiso   1.00
H118   H     0.35332   0.46298   0.00020   0.00000  Uiso   1.00
H119   H     0.32500   0.81633   0.91391   0.00000  Uiso   1.00
H120   H     0.57860   0.75505   0.88329   0.00000  Uiso   1.00
H121   H     0.31730   0.25849   0.09976   0.00000  Uiso   1.00
H122   H     0.25756   0.00361   0.91780   0.00000  Uiso   1.00
H123   H     0.37798   0.79530   0.24462   0.00000  Uiso   1.00
H124   H     0.46984   0.83814   0.21315   0.00000  Uiso   1.00
H125   H     0.34592   0.60263   0.31582   0.00000  Uiso   1.00
H126   H     0.31759   0.95599   0.22952   0.00000  Uiso   1.00
H127   H     0.57259   0.86840   0.13946   0.00000  Uiso   1.00
H128   H     0.31128   0.37184   0.35593   0.00000  Uiso   1.00
H129   H     0.25155   0.11696   0.17397   0.00000  Uiso   1.00
O130   O     0.63615   0.83748   0.98528   0.00000  Uiso   1.00
O131   O     0.29332   0.18602   0.26929   0.00000  Uiso   1.00
O132   O     0.21496   0.16360   0.03055   0.00000  Uiso   1.00
N133   N     0.56458   0.77587   0.94789   0.00000  Uiso   1.00
N134   N     0.32028   0.31161   0.15028   0.00000  Uiso   1.00
N135   N     0.26442   0.00821   0.98017   0.00000  Uiso   1.00
N136   N     0.56134   0.83686   0.08573   0.00000  Uiso   1.00
N137   N     0.31705   0.37260   0.28812   0.00000  Uiso   1.00
N138   N     0.26119   0.06921   0.11801   0.00000  Uiso   1.00
C139   C     0.88339   0.19325   0.01396   0.00000  Uiso   1.00
C140   C     0.93254   0.23094   0.02943   0.00000  Uiso   1.00
C141   C     0.97566   0.22864   0.96566   0.00000  Uiso   1.00
C142   C     0.01669   0.26673   0.99309   0.00000  Uiso   1.00
C143   C     0.09331   0.31927   0.00373   0.00000  Uiso   1.00
C144   C     0.86521   0.10298   0.08522   0.00000  Uiso   1.00
C145   C     0.85172   0.99310   0.06834   0.00000  Uiso   1.00
C146   C     0.83608   0.92347   0.14273   0.00000  Uiso   1.00
C147   C     0.80815   0.77737   0.23998   0.00000  Uiso   1.00
C148   C     0.84983   0.29497   0.03832   0.00000  Uiso   1.00
C149   C     0.82339   0.34650   0.98204   0.00000  Uiso   1.00
C150   C     0.79478   0.43850   0.01695   0.00000  Uiso   1.00
C151   C     0.74296   0.59051   0.04140   0.00000  Uiso   1.00
C152   C     0.87959   0.26497   0.17606   0.00000  Uiso   1.00
C153   C     0.93047   0.26990   0.11748   0.00000  Uiso   1.00
C154   C     0.97145   0.30800   0.14501   0.00000  Uiso   1.00
C155   C     0.01462   0.30576   0.08129   0.00000  Uiso   1.00
C156   C     0.86315   0.14193   0.17326   0.00000  Uiso   1.00
C157   C     0.84752   0.07245   0.24769   0.00000  Uiso   1.00
C158   C     0.83401   0.96249   0.23093   0.00000  Uiso   1.00
C159   C     0.84776   0.33393   0.12637   0.00000  Uiso   1.00
C160   C     0.81918   0.42586   0.16138   0.00000  Uiso   1.00
C161   C     0.79271   0.47753   0.10516   0.00000  Uiso   1.00
H162   H     0.88500   0.16291   0.94542   0.00000  Uiso   1.00
H163   H     0.97724   0.19848   0.89753   0.00000  Uiso   1.00
H164   H     0.85332   0.96298   0.00020   0.00000  Uiso   1.00
H165   H     0.82500   0.31633   0.91391   0.00000  Uiso   1.00
H166   H     0.07860   0.25505   0.88329   0.00000  Uiso   1.00
H167   H     0.81730   0.75849   0.09976   0.00000  Uiso   1.00
H168   H     0.75756   0.50361   0.91780   0.00000  Uiso   1.00
H169   H     0.87798   0.29530   0.24462   0.00000  Uiso   1.00
H170   H     0.96984   0.33814   0.21315   0.00000  Uiso   1.00
H171   H     0.84592   0.10263   0.31582   0.00000  Uiso   1.00
H172   H     0.81759   0.45599   0.22952   0.00000  Uiso   1.00
H173   H     0.07259   0.36840   0.13946   0.00000  Uiso   1.00
H174   H     0.81128   0.87184   0.35593   0.00000  Uiso   1.00
H175   H     0.75155   0.61696   0.17397   0.00000  Uiso   1.00
O176   O     0.13615   0.33748   0.98528   0.00000  Uiso   1.00
O177   O     0.79332   0.68602   0.26929   0.00000  Uiso   1.00
O178   O     0.71496   0.66360   0.03055   0.00000  Uiso   1.00
N179   N     0.06458   0.27587   0.94789   0.00000  Uiso   1.00
N180   N     0.82028   0.81161   0.15028   0.00000  Uiso   1.00
N181   N     0.76442   0.50821   0.98017   0.00000  Uiso   1.00
N182   N     0.06134   0.33686   0.08573   0.00000  Uiso   1.00
N183   N     0.81705   0.87260   0.28812   0.00000  Uiso   1.00
N184   N     0.76119   0.56921   0.11801   0.00000  Uiso   1.00
C185   C     0.38339   0.30675   0.51396   0.00000  Uiso   1.00
C186   C     0.43254   0.26906   0.52943   0.00000  Uiso   1.00
C187   C     0.47566   0.27136   0.46566   0.00000  Uiso   1.00
C188   C     0.51669   0.23327   0.49309   0.00000  Uiso   1.00
C189   C     0.59331   0.18073   0.50373   0.00000  Uiso   1.00
C190   C     0.36521   0.39702   0.58522   0.00000  Uiso   1.00
C191   C     0.35172   0.50690   0.56834   0.00000  Uiso   1.00
C192   C     0.33608   0.57653   0.64273   0.00000  Uiso   1.00
C193   C     0.30815   0.72263   0.73998   0.00000  Uiso   1.00
C194   C     0.34983   0.20503   0.53832   0.00000  Uiso   1.00
C195   C     0.32339   0.15350   0.48204   0.00000  Uiso   1.00
C196   C     0.29478   0.06150   0.51695   0.00000  Uiso   1.00
C197   C     0.24296   0.90949   0.54140   0.00000  Uiso   1.00
C198   C     0.37959   0.23503   0.67606   0.00000  Uiso   1.00
C199   C     0.43047   0.23010   0.61748   0.00000  Uiso   1.00
C200   C     0.47145   0.19200   0.64501   0.00000  Uiso   1.00
C201   C     0.51462   0.19424   0.58129   0.00000  Uiso   1.00
C202   C     0.36315   0.35807   0.67326   0.00000  Uiso   1.00
C203   C     0.34752   0.42755   0.74769   0.00000  Uiso   1.00
C204   C     0.33401   0.53751   0.73093   0.00000  Uiso   1.00
C205   C     0.34776   0.16607   0.62637   0.00000  Uiso   1.00
C206   C     0.31918   0.07414   0.66138   0.00000  Uiso   1.00
C207   C     0.29271   0.02247   0.60516   0.00000  Uiso   1.00
H208   H     0.38500   0.33709   0.44542   0.00000  Uiso   1.00
H209   H     0.47724   0.30152   0.39753   0.00000  Uiso   1.00
H210   H     0.35332   0.53702   0.50020   0.00000  Uiso   1.00
H211   H     0.32500   0.18367   0.41391   0.00000  Uiso   1.00
H212   H     0.57860   0.24495   0.38329   0.00000  Uiso   1.00
H213   H     0.31730   0.74151   0.59976   0.00000  Uiso   1.00
H214   H     0.25756   0.99639   0.41780   0.00000  Uiso   1.00
H215   H     0.37798   0.20470   0.74462   0.00000  Uiso   1.00
H216   H     0.46984   0.16186   0.71315   0.00000  Uiso   1.00
H217   H     0.34592   0.39737   0.81582   0.00000  Uiso   1.00
H218   H     0.31759   0.04401   0.72952   0.00000  Uiso   1.00
H219   H     0.57259   0.13160   0.63946   0.00000  Uiso   1.00
H220   H     0.31128   0.62816   0.85593   0.00000  Uiso   1.00
H221   H     0.25155   0.88304   0.67397   0.00000  Uiso   1.00
O222   O     0.63615   0.16252   0.48528   0.00000  Uiso   1.00
O223   O     0.29332   0.81398   0.76929   0.00000  Uiso   1.00
O224   O     0.21496   0.83640   0.53055   0.00000  Uiso   1.00
N225   N     0.56458   0.22413   0.44789   0.00000  Uiso   1.00
N226   N     0.32028   0.68839   0.65028   0.00000  Uiso   1.00
N227   N     0.26442   0.99179   0.48017   0.00000  Uiso   1.00
N228   N     0.56134   0.16314   0.58573   0.00000  Uiso   1.00
N229   N     0.31705   0.62740   0.78812   0.00000  Uiso   1.00
N230   N     0.26119   0.93079   0.61801   0.00000  Uiso   1.00
C231   C     0.88339   0.80675   0.51396   0.00000  Uiso   1.00
C232   C     0.93254   0.76906   0.52943   0.00000  Uiso   1.00
C233   C     0.97566   0.77136   0.46566   0.00000  Uiso   1.00
C234   C     0.01669   0.73327   0.49309   0.00000  Uiso   1.00
C235   C     0.09331   0.68073   0.50373   0.00000  Uiso   1.00
C236   C     0.86521   0.89702   0.58522   0.00000  Uiso   1.00
C237   C     0.85172   0.00690   0.56834   0.00000  Uiso   1.00
C238   C     0.83608   0.07653   0.64273   0.00000  Uiso   1.00
C239   C     0.80815   0.22263   0.73998   0.00000  Uiso   1.00
C240   C     0.84983   0.70503   0.53832   0.00000  Uiso   1.00
C241   C     0.82339   0.65350   0.48204   0.00000  Uiso   1.00
C242   C     0.79478   0.56150   0.51695   0.00000  Uiso   1.00
C243   C     0.74296   0.40949   0.54140   0.00000  Uiso   1.00
C244   C     0.87959   0.73503   0.67606   0.00000  Uiso   1.00
C245   C     0.93047   0.73010   0.61748   0.00000  Uiso   1.00
C246   C     0.97145   0.69200   0.64501   0.00000  Uiso   1.00
C247   C     0.01462   0.69424   0.58129   0.00000  Uiso   1.00
C248   C     0.86315   0.85807   0.67326   0.00000  Uiso   1.00
C249   C     0.84752   0.92755   0.74769   0.00000  Uiso   1.00
C250   C     0.83401   0.03751   0.73093   0.00000  Uiso   1.00
C251   C     0.84776   0.66607   0.62637   0.00000  Uiso   1.00
C252   C     0.81918   0.57414   0.66138   0.00000  Uiso   1.00
C253   C     0.79271   0.52247   0.60516   0.00000  Uiso   1.00
H254   H     0.88500   0.83709   0.44542   0.00000  Uiso   1.00
H255   H     0.97724   0.80152   0.39753   0.00000  Uiso   1.00
H256   H     0.85332   0.03702   0.50020   0.00000  Uiso   1.00
H257   H     0.82500   0.68367   0.41391   0.00000  Uiso   1.00
H258   H     0.07860   0.74495   0.38329   0.00000  Uiso   1.00
H259   H     0.81730   0.24151   0.59976   0.00000  Uiso   1.00
H260   H     0.75756   0.49639   0.41780   0.00000  Uiso   1.00
H261   H     0.87798   0.70470   0.74462   0.00000  Uiso   1.00
H262   H     0.96984   0.66186   0.71315   0.00000  Uiso   1.00
H263   H     0.84592   0.89737   0.81582   0.00000  Uiso   1.00
H264   H     0.81759   0.54401   0.72952   0.00000  Uiso   1.00
H265   H     0.07259   0.63160   0.63946   0.00000  Uiso   1.00
H266   H     0.81128   0.12816   0.85593   0.00000  Uiso   1.00
H267   H     0.75155   0.38304   0.67397   0.00000  Uiso   1.00
O268   O     0.13615   0.66252   0.48528   0.00000  Uiso   1.00
O269   O     0.79332   0.31398   0.76929   0.00000  Uiso   1.00
O270   O     0.71496   0.33640   0.53055   0.00000  Uiso   1.00
N271   N     0.06458   0.72413   0.44789   0.00000  Uiso   1.00
N272   N     0.82028   0.18839   0.65028   0.00000  Uiso   1.00
N273   N     0.76442   0.49179   0.48017   0.00000  Uiso   1.00
N274   N     0.06134   0.66314   0.58573   0.00000  Uiso   1.00
N275   N     0.81705   0.12740   0.78812   0.00000  Uiso   1.00
N276   N     0.76119   0.43079   0.61801   0.00000  Uiso   1.00
C277   C     0.61661   0.30675   0.98604   0.00000  Uiso   1.00
C278   C     0.56746   0.26906   0.97057   0.00000  Uiso   1.00
C279   C     0.52434   0.27136   0.03434   0.00000  Uiso   1.00
C280   C     0.48331   0.23327   0.00691   0.00000  Uiso   1.00
C281   C     0.40669   0.18073   0.99627   0.00000  Uiso   1.00
C282   C     0.63479   0.39702   0.91478   0.00000  Uiso   1.00
C283   C     0.64828   0.50690   0.93166   0.00000  Uiso   1.00
C284   C     0.66392   0.57653   0.85727   0.00000  Uiso   1.00
C285   C     0.69185   0.72263   0.76002   0.00000  Uiso   1.00
C286   C     0.65017   0.20503   0.96168   0.00000  Uiso   1.00
C287   C     0.67661   0.15350   0.01796   0.00000  Uiso   1.00
C288   C     0.70522   0.06150   0.98305   0.00000  Uiso   1.00
C289   C     0.75704   0.90949   0.95860   0.00000  Uiso   1.00
C290   C     0.62041   0.23503   0.82394   0.00000  Uiso   1.00
C291   C     0.56953   0.23010   0.88252   0.00000  Uiso   1.00
C292   C     0.52855   0.19200   0.85499   0.00000  Uiso   1.00
C293   C     0.48538   0.19424   0.91871   0.00000  Uiso   1.00
C294   C     0.63685   0.35807   0.82674   0.00000  Uiso   1.00
C295   C     0.65248   0.42755   0.75231   0.00000  Uiso   1.00
C296   C     0.66599   0.53751   0.76907   0.00000  Uiso   1.00
C297   C     0.65224   0.16607   0.87363   0.00000  Uiso   1.00
C298   C     0.68082   0.07414   0.83862   0.00000  Uiso   1.00
C299   C     0.70729   0.02247   0.89484   0.00000  Uiso   1.00
H300   H     0.61500   0.33709   0.05458   0.00000  Uiso   1.00
H301   H     0.52276   0.30152   0.10247   0.00000  Uiso   1.00
H302   H     0.64668   0.53702   0.99980   0.00000  Uiso   1.00
H303   H     0.67500   0.18367   0.08609   0.00000  Uiso   1.00
H304   H     0.42140   0.24495   0.11671   0.00000  Uiso   1.00
H305   H     0.68270   0.74151   0.90024   0.00000  Uiso   1.00
H306   H     0.74244   0.99639   0.08220   0.00000  Uiso   1.00
H307   H     0.62202   0.20470   0.75538   0.00000  Uiso   1.00
H308   H     0.53016   0.16186   0.78685   0.00000  Uiso   1.00
H309   H     0.65408   0.39737   0.68418   0.00000  Uiso   1.00
H310   H     0.68241   0.04401   0.77048   0.00000  Uiso   1.00
H311   H     0.42741   0.13160   0.86054   0.00000  Uiso   1.00
H312   H     0.68872   0.62816   0.64407   0.00000  Uiso   1.00
H313   H     0.74845   0.88304   0.82603   0.00000  Uiso   1.00
O314   O     0.36385   0.16252   0.01472   0.00000  Uiso   1.00
O315   O     0.70668   0.81398   0.73071   0.00000  Uiso   1.00
O316   O     0.78504   0.83640   0.96945   0.00000  Uiso   1.00
N317   N     0.43542   0.22413   0.05211   0.00000  Uiso   1.00
N318   N     0.67972   0.68839   0.84972   0.00000  Uiso   1.00
N319   N     0.73558   0.99179   0.01983   0.00000  Uiso   1.00
N320   N     0.43866   0.16314   0.91427   0.00000  Uiso   1.00
N321   N     0.68295   0.62740   0.71188   0.00000  Uiso   1.00
N322   N     0.73881   0.93079   0.88199   0.00000  Uiso   1.00
C323   C     0.11661   0.80675   0.98604   0.00000  Uiso   1.00
C324   C     0.06746   0.76906   0.97057   0.00000  Uiso   1.00
C325   C     0.02434   0.77136   0.03434   0.00000  Uiso   1.00
C326   C     0.98331   0.73327   0.00691   0.00000  Uiso   1.00
C327   C     0.90669   0.68073   0.99627   0.00000  Uiso   1.00
C328   C     0.13479   0.89702   0.91478   0.00000  Uiso   1.00
C329   C     0.14828   0.00690   0.93166   0.00000  Uiso   1.00
C330   C     0.16392   0.07653   0.85727   0.00000  Uiso   1.00
C331   C     0.19185   0.22263   0.76002   0.00000  Uiso   1.00
C332   C     0.15017   0.70503   0.96168   0.00000  Uiso   1.00
C333   C     0.17661   0.65350   0.01796   0.00000  Uiso   1.00
C334   C     0.20522   0.56150   0.98305   0.00000  Uiso   1.00
C335   C     0.25704   0.40949   0.95860   0.00000  Uiso   1.00
C336   C     0.12041   0.73503   0.82394   0.00000  Uiso   1.00
C337   C     0.06953   0.73010   0.88252   0.00000  Uiso   1.00
C338   C     0.02855   0.69200   0.85499   0.00000  Uiso   1.00
C339   C     0.98538   0.69424   0.91871   0.00000  Uiso   1.00
C340   C     0.13685   0.85807   0.82674   0.00000  Uiso   1.00
C341   C     0.15248   0.92755   0.75231   0.00000  Uiso   1.00
C342   C     0.16599   0.03751   0.76907   0.00000  Uiso   1.00
C343   C     0.15224   0.66607   0.87363   0.00000  Uiso   1.00
C344   C     0.18082   0.57414   0.83862   0.00000  Uiso   1.00
C345   C     0.20729   0.52247   0.89484   0.00000  Uiso   1.00
H346   H     0.11500   0.83709   0.05458   0.00000  Uiso   1.00
H347   H     0.02276   0.80152   0.10247   0.00000  Uiso   1.00
H348   H     0.14668   0.03702   0.99980   0.00000  Uiso   1.00
H349   H     0.17500   0.68367   0.08609   0.00000  Uiso   1.00
H350   H     0.92140   0.74495   0.11671   0.00000  Uiso   1.00
H351   H     0.18270   0.24151   0.90024   0.00000  Uiso   1.00
H352   H     0.24244   0.49639   0.08220   0.00000  Uiso   1.00
H353   H     0.12202   0.70470   0.75538   0.00000  Uiso   1.00
H354   H     0.03016   0.66186   0.78685   0.00000  Uiso   1.00
H355   H     0.15408   0.89737   0.68418   0.00000  Uiso   1.00
H356   H     0.18241   0.54401   0.77048   0.00000  Uiso   1.00
H357   H     0.92741   0.63160   0.86054   0.00000  Uiso   1.00
H358   H     0.18872   0.12816   0.64407   0.00000  Uiso   1.00
H359   H     0.24845   0.38304   0.82603   0.00000  Uiso   1.00
O360   O     0.86385   0.66252   0.01472   0.00000  Uiso   1.00
O361   O     0.20668   0.31398   0.73071   0.00000  Uiso   1.00
O362   O     0.28504   0.33640   0.96945   0.00000  Uiso   1.00
N363   N     0.93542   0.72413   0.05211   0.00000  Uiso   1.00
N364   N     0.17972   0.18839   0.84972   0.00000  Uiso   1.00
N365   N     0.23558   0.49179   0.01983   0.00000  Uiso   1.00
N366   N     0.93866   0.66314   0.91427   0.00000  Uiso   1.00
N367   N     0.18295   0.12740   0.71188   0.00000  Uiso   1.00
N368   N     0.23881   0.43079   0.88199   0.00000  Uiso   1.00
