data_job_00191
_audit_creation_date              2018-12-19
_audit_creation_method            'Materials Studio'
_symmetry_space_group_name_H-M    'P1'
_symmetry_Int_Tables_number       1
_symmetry_cell_setting            triclinic
loop_
_symmetry_equiv_pos_as_xyz
  x,y,z
_cell_length_a                    21.8429
_cell_length_b                    21.8429
_cell_length_c                    10.6243
_cell_angle_alpha                 90.0000
_cell_angle_beta                  90.0000
_cell_angle_gamma                 90.0000
loop_
_atom_site_label
_atom_site_type_symbol
_atom_site_fract_x
_atom_site_fract_y
_atom_site_fract_z
_atom_site_U_iso_or_equiv
_atom_site_adp_type
_atom_site_occupancy
C1     C     0.71539   0.94301   0.44472   0.00000  Uiso   1.00
C2     C     0.73667   0.96653   0.31684   0.00000  Uiso   1.00
C3     C     0.75900   0.02479   0.29221   0.00000  Uiso   1.00
C4     C     0.77607   0.03737   0.16901   0.00000  Uiso   1.00
C5     C     0.80985   0.08061   0.98490   0.00000  Uiso   1.00
C6     C     0.64977   0.92100   0.42595   0.00000  Uiso   1.00
C7     C     0.59905   0.94097   0.49307   0.00000  Uiso   1.00
C8     C     0.54297   0.91521   0.46173   0.00000  Uiso   1.00
C9     C     0.44186   0.88773   0.44709   0.00000  Uiso   1.00
C10    C     0.75328   0.88584   0.47144   0.00000  Uiso   1.00
C11    C     0.78958   0.87624   0.57681   0.00000  Uiso   1.00
C12    C     0.82064   0.82088   0.58378   0.00000  Uiso   1.00
C13    C     0.88024   0.73880   0.63976   0.00000  Uiso   1.00
C14    C     0.70598   0.86176   0.26974   0.00000  Uiso   1.00
C15    C     0.73155   0.92240   0.22180   0.00000  Uiso   1.00
C16    C     0.74859   0.93490   0.09862   0.00000  Uiso   1.00
C17    C     0.77095   0.99316   0.07380   0.00000  Uiso   1.00
C18    C     0.64466   0.87687   0.33092   0.00000  Uiso   1.00
C19    C     0.58864   0.85108   0.29948   0.00000  Uiso   1.00
C20    C     0.53785   0.87100   0.36652   0.00000  Uiso   1.00
C21    C     0.74817   0.84171   0.37640   0.00000  Uiso   1.00
C22    C     0.77917   0.78635   0.38321   0.00000  Uiso   1.00
C23    C     0.81552   0.77667   0.48857   0.00000  Uiso   1.00
H24    H     0.71937   0.97737   0.51871   0.00000  Uiso   1.00
H25    H     0.76294   0.05893   0.36578   0.00000  Uiso   1.00
H26    H     0.60302   0.97511   0.56662   0.00000  Uiso   1.00
H27    H     0.79353   0.91040   0.65034   0.00000  Uiso   1.00
H28    H     0.80898   0.12990   0.15431   0.00000  Uiso   1.00
H29    H     0.47178   0.95316   0.57782   0.00000  Uiso   1.00
H30    H     0.87349   0.81669   0.75437   0.00000  Uiso   1.00
H31    H     0.70200   0.82740   0.19574   0.00000  Uiso   1.00
H32    H     0.74463   0.90074   0.02509   0.00000  Uiso   1.00
H33    H     0.58471   0.81692   0.22593   0.00000  Uiso   1.00
H34    H     0.77521   0.75221   0.30965   0.00000  Uiso   1.00
H35    H     0.79412   0.00150   0.87779   0.00000  Uiso   1.00
H36    H     0.45691   0.82476   0.30131   0.00000  Uiso   1.00
H37    H     0.85863   0.68829   0.47785   0.00000  Uiso   1.00
O38    O     0.82989   0.11665   0.90961   0.00000  Uiso   1.00
O39    O     0.38749   0.88477   0.46526   0.00000  Uiso   1.00
O40    O     0.91453   0.70573   0.69687   0.00000  Uiso   1.00
N41    N     0.79965   0.08961   0.11265   0.00000  Uiso   1.00
N42    N     0.48438   0.92438   0.50860   0.00000  Uiso   1.00
N43    N     0.85993   0.79678   0.67367   0.00000  Uiso   1.00
N44    N     0.79165   0.02052   0.96386   0.00000  Uiso   1.00
N45    N     0.47638   0.85529   0.35981   0.00000  Uiso   1.00
N46    N     0.85193   0.72770   0.52488   0.00000  Uiso   1.00
C47    C     0.28461   0.05699   0.44472   0.00000  Uiso   1.00
C48    C     0.26333   0.03347   0.31684   0.00000  Uiso   1.00
C49    C     0.24100   0.97521   0.29221   0.00000  Uiso   1.00
C50    C     0.22393   0.96263   0.16901   0.00000  Uiso   1.00
C51    C     0.19015   0.91939   0.98490   0.00000  Uiso   1.00
C52    C     0.35023   0.07900   0.42595   0.00000  Uiso   1.00
C53    C     0.40095   0.05903   0.49307   0.00000  Uiso   1.00
C54    C     0.45703   0.08479   0.46173   0.00000  Uiso   1.00
C55    C     0.55814   0.11227   0.44709   0.00000  Uiso   1.00
C56    C     0.24672   0.11416   0.47144   0.00000  Uiso   1.00
C57    C     0.21042   0.12376   0.57681   0.00000  Uiso   1.00
C58    C     0.17936   0.17912   0.58378   0.00000  Uiso   1.00
C59    C     0.11976   0.26120   0.63976   0.00000  Uiso   1.00
C60    C     0.29402   0.13824   0.26974   0.00000  Uiso   1.00
C61    C     0.26845   0.07760   0.22180   0.00000  Uiso   1.00
C62    C     0.25141   0.06510   0.09862   0.00000  Uiso   1.00
C63    C     0.22905   0.00684   0.07380   0.00000  Uiso   1.00
C64    C     0.35534   0.12313   0.33092   0.00000  Uiso   1.00
C65    C     0.41136   0.14892   0.29948   0.00000  Uiso   1.00
C66    C     0.46215   0.12900   0.36652   0.00000  Uiso   1.00
C67    C     0.25183   0.15829   0.37640   0.00000  Uiso   1.00
C68    C     0.22083   0.21365   0.38321   0.00000  Uiso   1.00
C69    C     0.18448   0.22333   0.48857   0.00000  Uiso   1.00
H70    H     0.28063   0.02263   0.51871   0.00000  Uiso   1.00
H71    H     0.23706   0.94107   0.36578   0.00000  Uiso   1.00
H72    H     0.39698   0.02489   0.56662   0.00000  Uiso   1.00
H73    H     0.20647   0.08960   0.65034   0.00000  Uiso   1.00
H74    H     0.19102   0.87010   0.15431   0.00000  Uiso   1.00
H75    H     0.52822   0.04684   0.57782   0.00000  Uiso   1.00
H76    H     0.12651   0.18331   0.75437   0.00000  Uiso   1.00
H77    H     0.29800   0.17260   0.19574   0.00000  Uiso   1.00
H78    H     0.25537   0.09926   0.02509   0.00000  Uiso   1.00
H79    H     0.41529   0.18308   0.22593   0.00000  Uiso   1.00
H80    H     0.22479   0.24779   0.30965   0.00000  Uiso   1.00
H81    H     0.20588   0.99850   0.87779   0.00000  Uiso   1.00
H82    H     0.54309   0.17524   0.30131   0.00000  Uiso   1.00
H83    H     0.14137   0.31171   0.47785   0.00000  Uiso   1.00
O84    O     0.17011   0.88335   0.90961   0.00000  Uiso   1.00
O85    O     0.61251   0.11523   0.46526   0.00000  Uiso   1.00
O86    O     0.08547   0.29427   0.69687   0.00000  Uiso   1.00
N87    N     0.20035   0.91039   0.11265   0.00000  Uiso   1.00
N88    N     0.51562   0.07562   0.50860   0.00000  Uiso   1.00
N89    N     0.14007   0.20322   0.67367   0.00000  Uiso   1.00
N90    N     0.20835   0.97948   0.96386   0.00000  Uiso   1.00
N91    N     0.52362   0.14471   0.35981   0.00000  Uiso   1.00
N92    N     0.14807   0.27230   0.52488   0.00000  Uiso   1.00
C93    C     0.05699   0.71539   0.44472   0.00000  Uiso   1.00
C94    C     0.03347   0.73667   0.31684   0.00000  Uiso   1.00
C95    C     0.97521   0.75900   0.29221   0.00000  Uiso   1.00
C96    C     0.96263   0.77607   0.16901   0.00000  Uiso   1.00
C97    C     0.91939   0.80985   0.98490   0.00000  Uiso   1.00
C98    C     0.07900   0.64977   0.42595   0.00000  Uiso   1.00
C99    C     0.05903   0.59905   0.49307   0.00000  Uiso   1.00
C100   C     0.08479   0.54297   0.46173   0.00000  Uiso   1.00
C101   C     0.11227   0.44186   0.44709   0.00000  Uiso   1.00
C102   C     0.11416   0.75328   0.47144   0.00000  Uiso   1.00
C103   C     0.12376   0.78958   0.57681   0.00000  Uiso   1.00
C104   C     0.17912   0.82064   0.58378   0.00000  Uiso   1.00
C105   C     0.26120   0.88024   0.63976   0.00000  Uiso   1.00
C106   C     0.13824   0.70598   0.26974   0.00000  Uiso   1.00
C107   C     0.07760   0.73155   0.22180   0.00000  Uiso   1.00
C108   C     0.06510   0.74859   0.09862   0.00000  Uiso   1.00
C109   C     0.00684   0.77095   0.07380   0.00000  Uiso   1.00
C110   C     0.12313   0.64466   0.33092   0.00000  Uiso   1.00
C111   C     0.14892   0.58864   0.29948   0.00000  Uiso   1.00
C112   C     0.12900   0.53785   0.36652   0.00000  Uiso   1.00
C113   C     0.15829   0.74817   0.37640   0.00000  Uiso   1.00
C114   C     0.21365   0.77917   0.38321   0.00000  Uiso   1.00
C115   C     0.22333   0.81552   0.48857   0.00000  Uiso   1.00
H116   H     0.02263   0.71937   0.51871   0.00000  Uiso   1.00
H117   H     0.94107   0.76294   0.36578   0.00000  Uiso   1.00
H118   H     0.02489   0.60302   0.56662   0.00000  Uiso   1.00
H119   H     0.08960   0.79353   0.65034   0.00000  Uiso   1.00
H120   H     0.87010   0.80898   0.15431   0.00000  Uiso   1.00
H121   H     0.04684   0.47178   0.57782   0.00000  Uiso   1.00
H122   H     0.18331   0.87349   0.75437   0.00000  Uiso   1.00
H123   H     0.17260   0.70200   0.19574   0.00000  Uiso   1.00
H124   H     0.09926   0.74463   0.02509   0.00000  Uiso   1.00
H125   H     0.18308   0.58471   0.22593   0.00000  Uiso   1.00
H126   H     0.24779   0.77521   0.30965   0.00000  Uiso   1.00
H127   H     0.99850   0.79412   0.87779   0.00000  Uiso   1.00
H128   H     0.17524   0.45691   0.30131   0.00000  Uiso   1.00
H129   H     0.31171   0.85863   0.47785   0.00000  Uiso   1.00
O130   O     0.88335   0.82989   0.90961   0.00000  Uiso   1.00
O131   O     0.11523   0.38749   0.46526   0.00000  Uiso   1.00
O132   O     0.29427   0.91453   0.69687   0.00000  Uiso   1.00
N133   N     0.91039   0.79965   0.11265   0.00000  Uiso   1.00
N134   N     0.07562   0.48438   0.50860   0.00000  Uiso   1.00
N135   N     0.20322   0.85993   0.67367   0.00000  Uiso   1.00
N136   N     0.97948   0.79165   0.96386   0.00000  Uiso   1.00
N137   N     0.14471   0.47638   0.35981   0.00000  Uiso   1.00
N138   N     0.27230   0.85193   0.52488   0.00000  Uiso   1.00
C139   C     0.94301   0.28461   0.44472   0.00000  Uiso   1.00
C140   C     0.96653   0.26333   0.31684   0.00000  Uiso   1.00
C141   C     0.02479   0.24100   0.29221   0.00000  Uiso   1.00
C142   C     0.03737   0.22393   0.16901   0.00000  Uiso   1.00
C143   C     0.08061   0.19015   0.98490   0.00000  Uiso   1.00
C144   C     0.92100   0.35023   0.42595   0.00000  Uiso   1.00
C145   C     0.94097   0.40095   0.49307   0.00000  Uiso   1.00
C146   C     0.91521   0.45703   0.46173   0.00000  Uiso   1.00
C147   C     0.88773   0.55814   0.44709   0.00000  Uiso   1.00
C148   C     0.88584   0.24672   0.47144   0.00000  Uiso   1.00
C149   C     0.87624   0.21042   0.57681   0.00000  Uiso   1.00
C150   C     0.82088   0.17936   0.58378   0.00000  Uiso   1.00
C151   C     0.73880   0.11976   0.63976   0.00000  Uiso   1.00
C152   C     0.86176   0.29402   0.26974   0.00000  Uiso   1.00
C153   C     0.92240   0.26845   0.22180   0.00000  Uiso   1.00
C154   C     0.93490   0.25141   0.09862   0.00000  Uiso   1.00
C155   C     0.99316   0.22905   0.07380   0.00000  Uiso   1.00
C156   C     0.87687   0.35534   0.33092   0.00000  Uiso   1.00
C157   C     0.85108   0.41136   0.29948   0.00000  Uiso   1.00
C158   C     0.87100   0.46215   0.36652   0.00000  Uiso   1.00
C159   C     0.84171   0.25183   0.37640   0.00000  Uiso   1.00
C160   C     0.78635   0.22083   0.38321   0.00000  Uiso   1.00
C161   C     0.77667   0.18448   0.48857   0.00000  Uiso   1.00
H162   H     0.97737   0.28063   0.51871   0.00000  Uiso   1.00
H163   H     0.05893   0.23706   0.36578   0.00000  Uiso   1.00
H164   H     0.97511   0.39698   0.56662   0.00000  Uiso   1.00
H165   H     0.91040   0.20647   0.65034   0.00000  Uiso   1.00
H166   H     0.12990   0.19102   0.15431   0.00000  Uiso   1.00
H167   H     0.95316   0.52822   0.57782   0.00000  Uiso   1.00
H168   H     0.81669   0.12651   0.75437   0.00000  Uiso   1.00
H169   H     0.82740   0.29800   0.19574   0.00000  Uiso   1.00
H170   H     0.90074   0.25537   0.02509   0.00000  Uiso   1.00
H171   H     0.81692   0.41529   0.22593   0.00000  Uiso   1.00
H172   H     0.75221   0.22479   0.30965   0.00000  Uiso   1.00
H173   H     0.00150   0.20588   0.87779   0.00000  Uiso   1.00
H174   H     0.82476   0.54309   0.30131   0.00000  Uiso   1.00
H175   H     0.68829   0.14137   0.47785   0.00000  Uiso   1.00
O176   O     0.11665   0.17011   0.90961   0.00000  Uiso   1.00
O177   O     0.88477   0.61251   0.46526   0.00000  Uiso   1.00
O178   O     0.70573   0.08547   0.69687   0.00000  Uiso   1.00
N179   N     0.08961   0.20035   0.11265   0.00000  Uiso   1.00
N180   N     0.92438   0.51562   0.50860   0.00000  Uiso   1.00
N181   N     0.79678   0.14007   0.67367   0.00000  Uiso   1.00
N182   N     0.02052   0.20835   0.96386   0.00000  Uiso   1.00
N183   N     0.85529   0.52362   0.35981   0.00000  Uiso   1.00
N184   N     0.72770   0.14807   0.52488   0.00000  Uiso   1.00
C185   C     0.21539   0.55699   0.94472   0.00000  Uiso   1.00
C186   C     0.23667   0.53347   0.81684   0.00000  Uiso   1.00
C187   C     0.25900   0.47521   0.79221   0.00000  Uiso   1.00
C188   C     0.27607   0.46263   0.66901   0.00000  Uiso   1.00
C189   C     0.30985   0.41939   0.48490   0.00000  Uiso   1.00
C190   C     0.14977   0.57900   0.92595   0.00000  Uiso   1.00
C191   C     0.09905   0.55903   0.99307   0.00000  Uiso   1.00
C192   C     0.04297   0.58479   0.96173   0.00000  Uiso   1.00
C193   C     0.94186   0.61227   0.94709   0.00000  Uiso   1.00
C194   C     0.25328   0.61416   0.97144   0.00000  Uiso   1.00
C195   C     0.28958   0.62376   0.07681   0.00000  Uiso   1.00
C196   C     0.32064   0.67912   0.08378   0.00000  Uiso   1.00
C197   C     0.38024   0.76120   0.13976   0.00000  Uiso   1.00
C198   C     0.20598   0.63824   0.76974   0.00000  Uiso   1.00
C199   C     0.23155   0.57760   0.72180   0.00000  Uiso   1.00
C200   C     0.24859   0.56510   0.59862   0.00000  Uiso   1.00
C201   C     0.27095   0.50684   0.57380   0.00000  Uiso   1.00
C202   C     0.14466   0.62313   0.83092   0.00000  Uiso   1.00
C203   C     0.08864   0.64892   0.79948   0.00000  Uiso   1.00
C204   C     0.03785   0.62900   0.86652   0.00000  Uiso   1.00
C205   C     0.24817   0.65829   0.87640   0.00000  Uiso   1.00
C206   C     0.27917   0.71365   0.88321   0.00000  Uiso   1.00
C207   C     0.31552   0.72333   0.98857   0.00000  Uiso   1.00
H208   H     0.21937   0.52263   0.01871   0.00000  Uiso   1.00
H209   H     0.26294   0.44107   0.86578   0.00000  Uiso   1.00
H210   H     0.10302   0.52489   0.06662   0.00000  Uiso   1.00
H211   H     0.29353   0.58960   0.15034   0.00000  Uiso   1.00
H212   H     0.30898   0.37010   0.65431   0.00000  Uiso   1.00
H213   H     0.97178   0.54684   0.07782   0.00000  Uiso   1.00
H214   H     0.37349   0.68331   0.25437   0.00000  Uiso   1.00
H215   H     0.20200   0.67260   0.69574   0.00000  Uiso   1.00
H216   H     0.24463   0.59926   0.52509   0.00000  Uiso   1.00
H217   H     0.08471   0.68308   0.72593   0.00000  Uiso   1.00
H218   H     0.27521   0.74779   0.80965   0.00000  Uiso   1.00
H219   H     0.29412   0.49850   0.37779   0.00000  Uiso   1.00
H220   H     0.95691   0.67524   0.80131   0.00000  Uiso   1.00
H221   H     0.35863   0.81171   0.97785   0.00000  Uiso   1.00
O222   O     0.32989   0.38335   0.40961   0.00000  Uiso   1.00
O223   O     0.88749   0.61523   0.96526   0.00000  Uiso   1.00
O224   O     0.41453   0.79427   0.19687   0.00000  Uiso   1.00
N225   N     0.29965   0.41039   0.61265   0.00000  Uiso   1.00
N226   N     0.98438   0.57562   0.00860   0.00000  Uiso   1.00
N227   N     0.35993   0.70322   0.17367   0.00000  Uiso   1.00
N228   N     0.29165   0.47948   0.46386   0.00000  Uiso   1.00
N229   N     0.97638   0.64471   0.85981   0.00000  Uiso   1.00
N230   N     0.35193   0.77230   0.02488   0.00000  Uiso   1.00
C231   C     0.78461   0.44301   0.94472   0.00000  Uiso   1.00
C232   C     0.76333   0.46653   0.81684   0.00000  Uiso   1.00
C233   C     0.74100   0.52479   0.79221   0.00000  Uiso   1.00
C234   C     0.72393   0.53737   0.66901   0.00000  Uiso   1.00
C235   C     0.69015   0.58061   0.48490   0.00000  Uiso   1.00
C236   C     0.85023   0.42100   0.92595   0.00000  Uiso   1.00
C237   C     0.90095   0.44097   0.99307   0.00000  Uiso   1.00
C238   C     0.95703   0.41521   0.96173   0.00000  Uiso   1.00
C239   C     0.05814   0.38773   0.94709   0.00000  Uiso   1.00
C240   C     0.74672   0.38584   0.97144   0.00000  Uiso   1.00
C241   C     0.71042   0.37624   0.07681   0.00000  Uiso   1.00
C242   C     0.67936   0.32088   0.08378   0.00000  Uiso   1.00
C243   C     0.61976   0.23880   0.13976   0.00000  Uiso   1.00
C244   C     0.79402   0.36176   0.76974   0.00000  Uiso   1.00
C245   C     0.76845   0.42240   0.72180   0.00000  Uiso   1.00
C246   C     0.75141   0.43490   0.59862   0.00000  Uiso   1.00
C247   C     0.72905   0.49316   0.57380   0.00000  Uiso   1.00
C248   C     0.85534   0.37687   0.83092   0.00000  Uiso   1.00
C249   C     0.91136   0.35108   0.79948   0.00000  Uiso   1.00
C250   C     0.96215   0.37100   0.86652   0.00000  Uiso   1.00
C251   C     0.75183   0.34171   0.87640   0.00000  Uiso   1.00
C252   C     0.72083   0.28635   0.88321   0.00000  Uiso   1.00
C253   C     0.68448   0.27667   0.98857   0.00000  Uiso   1.00
H254   H     0.78063   0.47737   0.01871   0.00000  Uiso   1.00
H255   H     0.73706   0.55893   0.86578   0.00000  Uiso   1.00
H256   H     0.89698   0.47511   0.06662   0.00000  Uiso   1.00
H257   H     0.70647   0.41040   0.15034   0.00000  Uiso   1.00
H258   H     0.69102   0.62990   0.65431   0.00000  Uiso   1.00
H259   H     0.02822   0.45316   0.07782   0.00000  Uiso   1.00
H260   H     0.62651   0.31669   0.25437   0.00000  Uiso   1.00
H261   H     0.79800   0.32740   0.69574   0.00000  Uiso   1.00
H262   H     0.75537   0.40074   0.52509   0.00000  Uiso   1.00
H263   H     0.91529   0.31692   0.72593   0.00000  Uiso   1.00
H264   H     0.72479   0.25221   0.80965   0.00000  Uiso   1.00
H265   H     0.70588   0.50150   0.37779   0.00000  Uiso   1.00
H266   H     0.04309   0.32476   0.80131   0.00000  Uiso   1.00
H267   H     0.64137   0.18829   0.97785   0.00000  Uiso   1.00
O268   O     0.67011   0.61665   0.40961   0.00000  Uiso   1.00
O269   O     0.11251   0.38477   0.96526   0.00000  Uiso   1.00
O270   O     0.58547   0.20573   0.19687   0.00000  Uiso   1.00
N271   N     0.70035   0.58961   0.61265   0.00000  Uiso   1.00
N272   N     0.01562   0.42438   0.00860   0.00000  Uiso   1.00
N273   N     0.64007   0.29678   0.17367   0.00000  Uiso   1.00
N274   N     0.70835   0.52052   0.46386   0.00000  Uiso   1.00
N275   N     0.02362   0.35529   0.85981   0.00000  Uiso   1.00
N276   N     0.64807   0.22770   0.02488   0.00000  Uiso   1.00
C277   C     0.55699   0.78461   0.94472   0.00000  Uiso   1.00
C278   C     0.53347   0.76333   0.81684   0.00000  Uiso   1.00
C279   C     0.47521   0.74100   0.79221   0.00000  Uiso   1.00
C280   C     0.46263   0.72393   0.66901   0.00000  Uiso   1.00
C281   C     0.41939   0.69015   0.48490   0.00000  Uiso   1.00
C282   C     0.57900   0.85023   0.92595   0.00000  Uiso   1.00
C283   C     0.55903   0.90095   0.99307   0.00000  Uiso   1.00
C284   C     0.58479   0.95703   0.96173   0.00000  Uiso   1.00
C285   C     0.61227   0.05814   0.94709   0.00000  Uiso   1.00
C286   C     0.61416   0.74672   0.97144   0.00000  Uiso   1.00
C287   C     0.62376   0.71042   0.07681   0.00000  Uiso   1.00
C288   C     0.67912   0.67936   0.08378   0.00000  Uiso   1.00
C289   C     0.76120   0.61976   0.13976   0.00000  Uiso   1.00
C290   C     0.63824   0.79402   0.76974   0.00000  Uiso   1.00
C291   C     0.57760   0.76845   0.72180   0.00000  Uiso   1.00
C292   C     0.56510   0.75141   0.59862   0.00000  Uiso   1.00
C293   C     0.50684   0.72905   0.57380   0.00000  Uiso   1.00
C294   C     0.62313   0.85534   0.83092   0.00000  Uiso   1.00
C295   C     0.64892   0.91136   0.79948   0.00000  Uiso   1.00
C296   C     0.62900   0.96215   0.86652   0.00000  Uiso   1.00
C297   C     0.65829   0.75183   0.87640   0.00000  Uiso   1.00
C298   C     0.71365   0.72083   0.88321   0.00000  Uiso   1.00
C299   C     0.72333   0.68448   0.98857   0.00000  Uiso   1.00
H300   H     0.52263   0.78063   0.01871   0.00000  Uiso   1.00
H301   H     0.44107   0.73706   0.86578   0.00000  Uiso   1.00
H302   H     0.52489   0.89698   0.06662   0.00000  Uiso   1.00
H303   H     0.58960   0.70647   0.15034   0.00000  Uiso   1.00
H304   H     0.37010   0.69102   0.65431   0.00000  Uiso   1.00
H305   H     0.54684   0.02822   0.07782   0.00000  Uiso   1.00
H306   H     0.68331   0.62651   0.25437   0.00000  Uiso   1.00
H307   H     0.67260   0.79800   0.69574   0.00000  Uiso   1.00
H308   H     0.59926   0.75537   0.52509   0.00000  Uiso   1.00
H309   H     0.68308   0.91529   0.72593   0.00000  Uiso   1.00
H310   H     0.74779   0.72479   0.80965   0.00000  Uiso   1.00
H311   H     0.49850   0.70588   0.37779   0.00000  Uiso   1.00
H312   H     0.67524   0.04309   0.80131   0.00000  Uiso   1.00
H313   H     0.81171   0.64137   0.97785   0.00000  Uiso   1.00
O314   O     0.38335   0.67011   0.40961   0.00000  Uiso   1.00
O315   O     0.61523   0.11251   0.96526   0.00000  Uiso   1.00
O316   O     0.79427   0.58547   0.19687   0.00000  Uiso   1.00
N317   N     0.41039   0.70035   0.61265   0.00000  Uiso   1.00
N318   N     0.57562   0.01562   0.00860   0.00000  Uiso   1.00
N319   N     0.70322   0.64007   0.17367   0.00000  Uiso   1.00
N320   N     0.47948   0.70835   0.46386   0.00000  Uiso   1.00
N321   N     0.64471   0.02362   0.85981   0.00000  Uiso   1.00
N322   N     0.77230   0.64807   0.02488   0.00000  Uiso   1.00
C323   C     0.44301   0.21539   0.94472   0.00000  Uiso   1.00
C324   C     0.46653   0.23667   0.81684   0.00000  Uiso   1.00
C325   C     0.52479   0.25900   0.79221   0.00000  Uiso   1.00
C326   C     0.53737   0.27607   0.66901   0.00000  Uiso   1.00
C327   C     0.58061   0.30985   0.48490   0.00000  Uiso   1.00
C328   C     0.42100   0.14977   0.92595   0.00000  Uiso   1.00
C329   C     0.44097   0.09905   0.99307   0.00000  Uiso   1.00
C330   C     0.41521   0.04297   0.96173   0.00000  Uiso   1.00
C331   C     0.38773   0.94186   0.94709   0.00000  Uiso   1.00
C332   C     0.38584   0.25328   0.97144   0.00000  Uiso   1.00
C333   C     0.37624   0.28958   0.07681   0.00000  Uiso   1.00
C334   C     0.32088   0.32064   0.08378   0.00000  Uiso   1.00
C335   C     0.23880   0.38024   0.13976   0.00000  Uiso   1.00
C336   C     0.36176   0.20598   0.76974   0.00000  Uiso   1.00
C337   C     0.42240   0.23155   0.72180   0.00000  Uiso   1.00
C338   C     0.43490   0.24859   0.59862   0.00000  Uiso   1.00
C339   C     0.49316   0.27095   0.57380   0.00000  Uiso   1.00
C340   C     0.37687   0.14466   0.83092   0.00000  Uiso   1.00
C341   C     0.35108   0.08864   0.79948   0.00000  Uiso   1.00
C342   C     0.37100   0.03785   0.86652   0.00000  Uiso   1.00
C343   C     0.34171   0.24817   0.87640   0.00000  Uiso   1.00
C344   C     0.28635   0.27917   0.88321   0.00000  Uiso   1.00
C345   C     0.27667   0.31552   0.98857   0.00000  Uiso   1.00
H346   H     0.47737   0.21937   0.01871   0.00000  Uiso   1.00
H347   H     0.55893   0.26294   0.86578   0.00000  Uiso   1.00
H348   H     0.47511   0.10302   0.06662   0.00000  Uiso   1.00
H349   H     0.41040   0.29353   0.15034   0.00000  Uiso   1.00
H350   H     0.62990   0.30898   0.65431   0.00000  Uiso   1.00
H351   H     0.45316   0.97178   0.07782   0.00000  Uiso   1.00
H352   H     0.31669   0.37349   0.25437   0.00000  Uiso   1.00
H353   H     0.32740   0.20200   0.69574   0.00000  Uiso   1.00
H354   H     0.40074   0.24463   0.52509   0.00000  Uiso   1.00
H355   H     0.31692   0.08471   0.72593   0.00000  Uiso   1.00
H356   H     0.25221   0.27521   0.80965   0.00000  Uiso   1.00
H357   H     0.50150   0.29412   0.37779   0.00000  Uiso   1.00
H358   H     0.32476   0.95691   0.80131   0.00000  Uiso   1.00
H359   H     0.18829   0.35863   0.97785   0.00000  Uiso   1.00
O360   O     0.61665   0.32989   0.40961   0.00000  Uiso   1.00
O361   O     0.38477   0.88749   0.96526   0.00000  Uiso   1.00
O362   O     0.20573   0.41453   0.19687   0.00000  Uiso   1.00
N363   N     0.58961   0.29965   0.61265   0.00000  Uiso   1.00
N364   N     0.42438   0.98438   0.00860   0.00000  Uiso   1.00
N365   N     0.29678   0.35993   0.17367   0.00000  Uiso   1.00
N366   N     0.52052   0.29165   0.46386   0.00000  Uiso   1.00
N367   N     0.35529   0.97638   0.85981   0.00000  Uiso   1.00
N368   N     0.22770   0.35193   0.02488   0.00000  Uiso   1.00
