data_job_02898
_audit_creation_date              2018-12-19
_audit_creation_method            'Materials Studio'
_symmetry_space_group_name_H-M    'P1'
_symmetry_Int_Tables_number       1
_symmetry_cell_setting            triclinic
loop_
_symmetry_equiv_pos_as_xyz
  x,y,z
_cell_length_a                    12.4173
_cell_length_b                    14.9243
_cell_length_c                    34.5820
_cell_angle_alpha                 90.0000
_cell_angle_beta                  108.8496
_cell_angle_gamma                 90.0000
loop_
_atom_site_label
_atom_site_type_symbol
_atom_site_fract_x
_atom_site_fract_y
_atom_site_fract_z
_atom_site_U_iso_or_equiv
_atom_site_adp_type
_atom_site_occupancy
C1     C     0.21176   0.23307   0.87024   0.00000  Uiso   1.00
C2     C     0.13197   0.15991   0.87556   0.00000  Uiso   1.00
C3     C     0.05071   0.16982   0.89493   0.00000  Uiso   1.00
C4     C     0.98621   0.09483   0.89663   0.00000  Uiso   1.00
C5     C     0.85989   0.99368   0.90751   0.00000  Uiso   1.00
C6     C     0.33203   0.19649   0.88917   0.00000  Uiso   1.00
C7     C     0.41898   0.23717   0.91998   0.00000  Uiso   1.00
C8     C     0.52290   0.19298   0.93312   0.00000  Uiso   1.00
C9     C     0.70720   0.14865   0.96510   0.00000  Uiso   1.00
C10    C     0.19181   0.23947   0.82444   0.00000  Uiso   1.00
C11    C     0.16088   0.31629   0.80083   0.00000  Uiso   1.00
C12    C     0.14677   0.30829   0.75948   0.00000  Uiso   1.00
C13    C     0.11335   0.33070   0.69097   0.00000  Uiso   1.00
C14    C     0.24172   0.08227   0.83879   0.00000  Uiso   1.00
C15    C     0.14825   0.07800   0.85848   0.00000  Uiso   1.00
C16    C     0.08386   0.00298   0.86014   0.00000  Uiso   1.00
C17    C     0.00251   0.01278   0.87952   0.00000  Uiso   1.00
C18    C     0.34831   0.11458   0.87209   0.00000  Uiso   1.00
C19    C     0.45213   0.07032   0.88519   0.00000  Uiso   1.00
C20    C     0.53921   0.11092   0.91601   0.00000  Uiso   1.00
C21    C     0.20808   0.15756   0.80736   0.00000  Uiso   1.00
C22    C     0.19403   0.14944   0.76604   0.00000  Uiso   1.00
C23    C     0.16308   0.22623   0.74237   0.00000  Uiso   1.00
H24    H     0.19909   0.29684   0.88353   0.00000  Uiso   1.00
H25    H     0.03815   0.23322   0.90815   0.00000  Uiso   1.00
H26    H     0.40636   0.30056   0.93318   0.00000  Uiso   1.00
H27    H     0.14830   0.37966   0.81406   0.00000  Uiso   1.00
H28    H     0.86691   0.12655   0.92792   0.00000  Uiso   1.00
H29    H     0.64332   0.26855   0.98070   0.00000  Uiso   1.00
H30    H     0.09915   0.43537   0.72949   0.00000  Uiso   1.00
H31    H     0.25440   0.01850   0.82549   0.00000  Uiso   1.00
H32    H     0.09648   0.93960   0.84692   0.00000  Uiso   1.00
H33    H     0.46470   0.00694   0.87196   0.00000  Uiso   1.00
H34    H     0.20663   0.08605   0.75283   0.00000  Uiso   1.00
H35    H     0.91426   0.88824   0.87823   0.00000  Uiso   1.00
H36    H     0.69068   0.03024   0.93101   0.00000  Uiso   1.00
H37    H     0.14649   0.19706   0.67980   0.00000  Uiso   1.00
O38    O     0.78573   0.96051   0.91823   0.00000  Uiso   1.00
O39    O     0.80436   0.14682   0.98747   0.00000  Uiso   1.00
O40    O     0.09040   0.36568   0.65789   0.00000  Uiso   1.00
N41    N     0.89971   0.08130   0.91328   0.00000  Uiso   1.00
N42    N     0.62561   0.21405   0.96263   0.00000  Uiso   1.00
N43    N     0.11688   0.37002   0.72777   0.00000  Uiso   1.00
N44    N     0.92519   0.95306   0.88654   0.00000  Uiso   1.00
N45    N     0.65108   0.08582   0.93589   0.00000  Uiso   1.00
N46    N     0.14235   0.24179   0.70103   0.00000  Uiso   1.00
C47    C     0.71176   0.73307   0.87024   0.00000  Uiso   1.00
C48    C     0.63197   0.65991   0.87556   0.00000  Uiso   1.00
C49    C     0.55071   0.66982   0.89493   0.00000  Uiso   1.00
C50    C     0.48621   0.59483   0.89663   0.00000  Uiso   1.00
C51    C     0.35989   0.49368   0.90751   0.00000  Uiso   1.00
C52    C     0.83203   0.69649   0.88917   0.00000  Uiso   1.00
C53    C     0.91898   0.73717   0.91998   0.00000  Uiso   1.00
C54    C     0.02290   0.69298   0.93312   0.00000  Uiso   1.00
C55    C     0.20720   0.64865   0.96510   0.00000  Uiso   1.00
C56    C     0.69181   0.73947   0.82444   0.00000  Uiso   1.00
C57    C     0.66088   0.81629   0.80083   0.00000  Uiso   1.00
C58    C     0.64677   0.80829   0.75948   0.00000  Uiso   1.00
C59    C     0.61335   0.83070   0.69097   0.00000  Uiso   1.00
C60    C     0.74172   0.58227   0.83879   0.00000  Uiso   1.00
C61    C     0.64825   0.57800   0.85848   0.00000  Uiso   1.00
C62    C     0.58386   0.50298   0.86014   0.00000  Uiso   1.00
C63    C     0.50251   0.51278   0.87952   0.00000  Uiso   1.00
C64    C     0.84831   0.61458   0.87209   0.00000  Uiso   1.00
C65    C     0.95213   0.57032   0.88519   0.00000  Uiso   1.00
C66    C     0.03921   0.61092   0.91601   0.00000  Uiso   1.00
C67    C     0.70808   0.65756   0.80736   0.00000  Uiso   1.00
C68    C     0.69403   0.64944   0.76604   0.00000  Uiso   1.00
C69    C     0.66308   0.72623   0.74237   0.00000  Uiso   1.00
H70    H     0.69909   0.79684   0.88353   0.00000  Uiso   1.00
H71    H     0.53815   0.73322   0.90815   0.00000  Uiso   1.00
H72    H     0.90636   0.80056   0.93318   0.00000  Uiso   1.00
H73    H     0.64830   0.87966   0.81406   0.00000  Uiso   1.00
H74    H     0.36691   0.62655   0.92792   0.00000  Uiso   1.00
H75    H     0.14332   0.76855   0.98070   0.00000  Uiso   1.00
H76    H     0.59915   0.93537   0.72949   0.00000  Uiso   1.00
H77    H     0.75440   0.51850   0.82549   0.00000  Uiso   1.00
H78    H     0.59648   0.43960   0.84692   0.00000  Uiso   1.00
H79    H     0.96470   0.50694   0.87196   0.00000  Uiso   1.00
H80    H     0.70663   0.58605   0.75283   0.00000  Uiso   1.00
H81    H     0.41426   0.38824   0.87823   0.00000  Uiso   1.00
H82    H     0.19068   0.53024   0.93101   0.00000  Uiso   1.00
H83    H     0.64649   0.69706   0.67980   0.00000  Uiso   1.00
O84    O     0.28573   0.46051   0.91823   0.00000  Uiso   1.00
O85    O     0.30436   0.64682   0.98747   0.00000  Uiso   1.00
O86    O     0.59040   0.86568   0.65789   0.00000  Uiso   1.00
N87    N     0.39971   0.58130   0.91328   0.00000  Uiso   1.00
N88    N     0.12561   0.71405   0.96263   0.00000  Uiso   1.00
N89    N     0.61688   0.87002   0.72777   0.00000  Uiso   1.00
N90    N     0.42519   0.45306   0.88654   0.00000  Uiso   1.00
N91    N     0.15108   0.58582   0.93589   0.00000  Uiso   1.00
N92    N     0.64235   0.74179   0.70103   0.00000  Uiso   1.00
C93    C     0.78824   0.23307   0.62976   0.00000  Uiso   1.00
C94    C     0.86803   0.15991   0.62444   0.00000  Uiso   1.00
C95    C     0.94929   0.16982   0.60507   0.00000  Uiso   1.00
C96    C     0.01379   0.09483   0.60337   0.00000  Uiso   1.00
C97    C     0.14011   0.99368   0.59249   0.00000  Uiso   1.00
C98    C     0.66797   0.19649   0.61083   0.00000  Uiso   1.00
C99    C     0.58102   0.23717   0.58002   0.00000  Uiso   1.00
C100   C     0.47710   0.19298   0.56688   0.00000  Uiso   1.00
C101   C     0.29280   0.14865   0.53490   0.00000  Uiso   1.00
C102   C     0.80819   0.23947   0.67556   0.00000  Uiso   1.00
C103   C     0.83912   0.31629   0.69917   0.00000  Uiso   1.00
C104   C     0.85323   0.30829   0.74052   0.00000  Uiso   1.00
C105   C     0.88665   0.33070   0.80903   0.00000  Uiso   1.00
C106   C     0.75828   0.08227   0.66121   0.00000  Uiso   1.00
C107   C     0.85175   0.07800   0.64152   0.00000  Uiso   1.00
C108   C     0.91614   0.00298   0.63986   0.00000  Uiso   1.00
C109   C     0.99749   0.01278   0.62048   0.00000  Uiso   1.00
C110   C     0.65169   0.11458   0.62791   0.00000  Uiso   1.00
C111   C     0.54787   0.07032   0.61481   0.00000  Uiso   1.00
C112   C     0.46079   0.11092   0.58399   0.00000  Uiso   1.00
C113   C     0.79192   0.15756   0.69264   0.00000  Uiso   1.00
C114   C     0.80597   0.14944   0.73396   0.00000  Uiso   1.00
C115   C     0.83692   0.22623   0.75763   0.00000  Uiso   1.00
H116   H     0.80091   0.29684   0.61647   0.00000  Uiso   1.00
H117   H     0.96185   0.23322   0.59185   0.00000  Uiso   1.00
H118   H     0.59364   0.30056   0.56682   0.00000  Uiso   1.00
H119   H     0.85170   0.37966   0.68594   0.00000  Uiso   1.00
H120   H     0.13309   0.12655   0.57208   0.00000  Uiso   1.00
H121   H     0.35668   0.26855   0.51930   0.00000  Uiso   1.00
H122   H     0.90085   0.43537   0.77051   0.00000  Uiso   1.00
H123   H     0.74560   0.01850   0.67451   0.00000  Uiso   1.00
H124   H     0.90352   0.93960   0.65308   0.00000  Uiso   1.00
H125   H     0.53530   0.00694   0.62804   0.00000  Uiso   1.00
H126   H     0.79337   0.08605   0.74717   0.00000  Uiso   1.00
H127   H     0.08574   0.88824   0.62177   0.00000  Uiso   1.00
H128   H     0.30932   0.03024   0.56899   0.00000  Uiso   1.00
H129   H     0.85351   0.19706   0.82020   0.00000  Uiso   1.00
O130   O     0.21427   0.96051   0.58177   0.00000  Uiso   1.00
O131   O     0.19564   0.14682   0.51253   0.00000  Uiso   1.00
O132   O     0.90960   0.36568   0.84211   0.00000  Uiso   1.00
N133   N     0.10029   0.08130   0.58672   0.00000  Uiso   1.00
N134   N     0.37439   0.21405   0.53737   0.00000  Uiso   1.00
N135   N     0.88312   0.37002   0.77223   0.00000  Uiso   1.00
N136   N     0.07481   0.95306   0.61346   0.00000  Uiso   1.00
N137   N     0.34892   0.08582   0.56411   0.00000  Uiso   1.00
N138   N     0.85765   0.24179   0.79897   0.00000  Uiso   1.00
C139   C     0.28824   0.73307   0.62976   0.00000  Uiso   1.00
C140   C     0.36803   0.65991   0.62444   0.00000  Uiso   1.00
C141   C     0.44929   0.66982   0.60507   0.00000  Uiso   1.00
C142   C     0.51379   0.59483   0.60337   0.00000  Uiso   1.00
C143   C     0.64011   0.49368   0.59249   0.00000  Uiso   1.00
C144   C     0.16797   0.69649   0.61083   0.00000  Uiso   1.00
C145   C     0.08102   0.73717   0.58002   0.00000  Uiso   1.00
C146   C     0.97710   0.69298   0.56688   0.00000  Uiso   1.00
C147   C     0.79280   0.64865   0.53490   0.00000  Uiso   1.00
C148   C     0.30819   0.73947   0.67556   0.00000  Uiso   1.00
C149   C     0.33912   0.81629   0.69917   0.00000  Uiso   1.00
C150   C     0.35323   0.80829   0.74052   0.00000  Uiso   1.00
C151   C     0.38665   0.83070   0.80903   0.00000  Uiso   1.00
C152   C     0.25828   0.58227   0.66121   0.00000  Uiso   1.00
C153   C     0.35175   0.57800   0.64152   0.00000  Uiso   1.00
C154   C     0.41614   0.50298   0.63986   0.00000  Uiso   1.00
C155   C     0.49749   0.51278   0.62048   0.00000  Uiso   1.00
C156   C     0.15169   0.61458   0.62791   0.00000  Uiso   1.00
C157   C     0.04787   0.57032   0.61481   0.00000  Uiso   1.00
C158   C     0.96079   0.61092   0.58399   0.00000  Uiso   1.00
C159   C     0.29192   0.65756   0.69264   0.00000  Uiso   1.00
C160   C     0.30597   0.64944   0.73396   0.00000  Uiso   1.00
C161   C     0.33692   0.72623   0.75763   0.00000  Uiso   1.00
H162   H     0.30091   0.79684   0.61647   0.00000  Uiso   1.00
H163   H     0.46185   0.73322   0.59185   0.00000  Uiso   1.00
H164   H     0.09364   0.80056   0.56682   0.00000  Uiso   1.00
H165   H     0.35170   0.87966   0.68594   0.00000  Uiso   1.00
H166   H     0.63309   0.62655   0.57208   0.00000  Uiso   1.00
H167   H     0.85668   0.76855   0.51930   0.00000  Uiso   1.00
H168   H     0.40085   0.93537   0.77051   0.00000  Uiso   1.00
H169   H     0.24560   0.51850   0.67451   0.00000  Uiso   1.00
H170   H     0.40352   0.43960   0.65308   0.00000  Uiso   1.00
H171   H     0.03530   0.50694   0.62804   0.00000  Uiso   1.00
H172   H     0.29337   0.58605   0.74717   0.00000  Uiso   1.00
H173   H     0.58574   0.38824   0.62177   0.00000  Uiso   1.00
H174   H     0.80932   0.53024   0.56899   0.00000  Uiso   1.00
H175   H     0.35351   0.69706   0.82020   0.00000  Uiso   1.00
O176   O     0.71427   0.46051   0.58177   0.00000  Uiso   1.00
O177   O     0.69564   0.64682   0.51253   0.00000  Uiso   1.00
O178   O     0.40960   0.86568   0.84211   0.00000  Uiso   1.00
N179   N     0.60029   0.58130   0.58672   0.00000  Uiso   1.00
N180   N     0.87439   0.71405   0.53737   0.00000  Uiso   1.00
N181   N     0.38312   0.87002   0.77223   0.00000  Uiso   1.00
N182   N     0.57481   0.45306   0.61346   0.00000  Uiso   1.00
N183   N     0.84892   0.58582   0.56411   0.00000  Uiso   1.00
N184   N     0.35765   0.74179   0.79897   0.00000  Uiso   1.00
C185   C     0.78824   0.76693   0.12976   0.00000  Uiso   1.00
C186   C     0.86803   0.84009   0.12444   0.00000  Uiso   1.00
C187   C     0.94929   0.83018   0.10507   0.00000  Uiso   1.00
C188   C     0.01379   0.90517   0.10337   0.00000  Uiso   1.00
C189   C     0.14011   0.00632   0.09249   0.00000  Uiso   1.00
C190   C     0.66797   0.80351   0.11083   0.00000  Uiso   1.00
C191   C     0.58102   0.76283   0.08002   0.00000  Uiso   1.00
C192   C     0.47710   0.80702   0.06688   0.00000  Uiso   1.00
C193   C     0.29280   0.85135   0.03490   0.00000  Uiso   1.00
C194   C     0.80819   0.76053   0.17556   0.00000  Uiso   1.00
C195   C     0.83912   0.68371   0.19917   0.00000  Uiso   1.00
C196   C     0.85323   0.69171   0.24052   0.00000  Uiso   1.00
C197   C     0.88665   0.66930   0.30903   0.00000  Uiso   1.00
C198   C     0.75828   0.91773   0.16121   0.00000  Uiso   1.00
C199   C     0.85175   0.92200   0.14152   0.00000  Uiso   1.00
C200   C     0.91614   0.99702   0.13986   0.00000  Uiso   1.00
C201   C     0.99749   0.98722   0.12048   0.00000  Uiso   1.00
C202   C     0.65169   0.88542   0.12791   0.00000  Uiso   1.00
C203   C     0.54787   0.92968   0.11481   0.00000  Uiso   1.00
C204   C     0.46079   0.88908   0.08399   0.00000  Uiso   1.00
C205   C     0.79192   0.84244   0.19264   0.00000  Uiso   1.00
C206   C     0.80597   0.85056   0.23396   0.00000  Uiso   1.00
C207   C     0.83692   0.77377   0.25763   0.00000  Uiso   1.00
H208   H     0.80091   0.70316   0.11647   0.00000  Uiso   1.00
H209   H     0.96185   0.76678   0.09185   0.00000  Uiso   1.00
H210   H     0.59364   0.69944   0.06682   0.00000  Uiso   1.00
H211   H     0.85170   0.62034   0.18594   0.00000  Uiso   1.00
H212   H     0.13309   0.87345   0.07208   0.00000  Uiso   1.00
H213   H     0.35668   0.73145   0.01930   0.00000  Uiso   1.00
H214   H     0.90085   0.56463   0.27051   0.00000  Uiso   1.00
H215   H     0.74560   0.98150   0.17451   0.00000  Uiso   1.00
H216   H     0.90352   0.06040   0.15308   0.00000  Uiso   1.00
H217   H     0.53530   0.99306   0.12804   0.00000  Uiso   1.00
H218   H     0.79337   0.91395   0.24717   0.00000  Uiso   1.00
H219   H     0.08574   0.11176   0.12177   0.00000  Uiso   1.00
H220   H     0.30932   0.96976   0.06899   0.00000  Uiso   1.00
H221   H     0.85351   0.80294   0.32020   0.00000  Uiso   1.00
O222   O     0.21427   0.03949   0.08177   0.00000  Uiso   1.00
O223   O     0.19564   0.85318   0.01253   0.00000  Uiso   1.00
O224   O     0.90960   0.63432   0.34211   0.00000  Uiso   1.00
N225   N     0.10029   0.91870   0.08672   0.00000  Uiso   1.00
N226   N     0.37439   0.78595   0.03737   0.00000  Uiso   1.00
N227   N     0.88312   0.62998   0.27223   0.00000  Uiso   1.00
N228   N     0.07481   0.04694   0.11346   0.00000  Uiso   1.00
N229   N     0.34892   0.91418   0.06411   0.00000  Uiso   1.00
N230   N     0.85765   0.75821   0.29897   0.00000  Uiso   1.00
C231   C     0.28824   0.26693   0.12976   0.00000  Uiso   1.00
C232   C     0.36803   0.34009   0.12444   0.00000  Uiso   1.00
C233   C     0.44929   0.33018   0.10507   0.00000  Uiso   1.00
C234   C     0.51379   0.40517   0.10337   0.00000  Uiso   1.00
C235   C     0.64011   0.50632   0.09249   0.00000  Uiso   1.00
C236   C     0.16797   0.30351   0.11083   0.00000  Uiso   1.00
C237   C     0.08102   0.26283   0.08002   0.00000  Uiso   1.00
C238   C     0.97710   0.30702   0.06688   0.00000  Uiso   1.00
C239   C     0.79280   0.35135   0.03490   0.00000  Uiso   1.00
C240   C     0.30819   0.26053   0.17556   0.00000  Uiso   1.00
C241   C     0.33912   0.18371   0.19917   0.00000  Uiso   1.00
C242   C     0.35323   0.19171   0.24052   0.00000  Uiso   1.00
C243   C     0.38665   0.16930   0.30903   0.00000  Uiso   1.00
C244   C     0.25828   0.41773   0.16121   0.00000  Uiso   1.00
C245   C     0.35175   0.42200   0.14152   0.00000  Uiso   1.00
C246   C     0.41614   0.49702   0.13986   0.00000  Uiso   1.00
C247   C     0.49749   0.48722   0.12048   0.00000  Uiso   1.00
C248   C     0.15169   0.38542   0.12791   0.00000  Uiso   1.00
C249   C     0.04787   0.42968   0.11481   0.00000  Uiso   1.00
C250   C     0.96079   0.38908   0.08399   0.00000  Uiso   1.00
C251   C     0.29192   0.34244   0.19264   0.00000  Uiso   1.00
C252   C     0.30597   0.35056   0.23396   0.00000  Uiso   1.00
C253   C     0.33692   0.27377   0.25763   0.00000  Uiso   1.00
H254   H     0.30091   0.20316   0.11647   0.00000  Uiso   1.00
H255   H     0.46185   0.26678   0.09185   0.00000  Uiso   1.00
H256   H     0.09364   0.19944   0.06682   0.00000  Uiso   1.00
H257   H     0.35170   0.12034   0.18594   0.00000  Uiso   1.00
H258   H     0.63309   0.37345   0.07208   0.00000  Uiso   1.00
H259   H     0.85668   0.23145   0.01930   0.00000  Uiso   1.00
H260   H     0.40085   0.06463   0.27051   0.00000  Uiso   1.00
H261   H     0.24560   0.48150   0.17451   0.00000  Uiso   1.00
H262   H     0.40352   0.56040   0.15308   0.00000  Uiso   1.00
H263   H     0.03530   0.49306   0.12804   0.00000  Uiso   1.00
H264   H     0.29337   0.41395   0.24717   0.00000  Uiso   1.00
H265   H     0.58574   0.61176   0.12177   0.00000  Uiso   1.00
H266   H     0.80932   0.46976   0.06899   0.00000  Uiso   1.00
H267   H     0.35351   0.30294   0.32020   0.00000  Uiso   1.00
O268   O     0.71427   0.53949   0.08177   0.00000  Uiso   1.00
O269   O     0.69564   0.35318   0.01253   0.00000  Uiso   1.00
O270   O     0.40960   0.13432   0.34211   0.00000  Uiso   1.00
N271   N     0.60029   0.41870   0.08672   0.00000  Uiso   1.00
N272   N     0.87439   0.28595   0.03737   0.00000  Uiso   1.00
N273   N     0.38312   0.12998   0.27223   0.00000  Uiso   1.00
N274   N     0.57481   0.54694   0.11346   0.00000  Uiso   1.00
N275   N     0.84892   0.41418   0.06411   0.00000  Uiso   1.00
N276   N     0.35765   0.25821   0.29897   0.00000  Uiso   1.00
C277   C     0.21176   0.76693   0.37024   0.00000  Uiso   1.00
C278   C     0.13197   0.84009   0.37556   0.00000  Uiso   1.00
C279   C     0.05071   0.83018   0.39493   0.00000  Uiso   1.00
C280   C     0.98621   0.90517   0.39663   0.00000  Uiso   1.00
C281   C     0.85989   0.00632   0.40751   0.00000  Uiso   1.00
C282   C     0.33203   0.80351   0.38917   0.00000  Uiso   1.00
C283   C     0.41898   0.76283   0.41998   0.00000  Uiso   1.00
C284   C     0.52290   0.80702   0.43312   0.00000  Uiso   1.00
C285   C     0.70720   0.85135   0.46510   0.00000  Uiso   1.00
C286   C     0.19181   0.76053   0.32444   0.00000  Uiso   1.00
C287   C     0.16088   0.68371   0.30083   0.00000  Uiso   1.00
C288   C     0.14677   0.69171   0.25948   0.00000  Uiso   1.00
C289   C     0.11335   0.66930   0.19097   0.00000  Uiso   1.00
C290   C     0.24172   0.91773   0.33879   0.00000  Uiso   1.00
C291   C     0.14825   0.92200   0.35848   0.00000  Uiso   1.00
C292   C     0.08386   0.99702   0.36014   0.00000  Uiso   1.00
C293   C     0.00251   0.98722   0.37952   0.00000  Uiso   1.00
C294   C     0.34831   0.88542   0.37209   0.00000  Uiso   1.00
C295   C     0.45213   0.92968   0.38519   0.00000  Uiso   1.00
C296   C     0.53921   0.88908   0.41601   0.00000  Uiso   1.00
C297   C     0.20808   0.84244   0.30736   0.00000  Uiso   1.00
C298   C     0.19403   0.85056   0.26604   0.00000  Uiso   1.00
C299   C     0.16308   0.77377   0.24237   0.00000  Uiso   1.00
H300   H     0.19909   0.70316   0.38353   0.00000  Uiso   1.00
H301   H     0.03815   0.76678   0.40815   0.00000  Uiso   1.00
H302   H     0.40636   0.69944   0.43318   0.00000  Uiso   1.00
H303   H     0.14830   0.62034   0.31406   0.00000  Uiso   1.00
H304   H     0.86691   0.87345   0.42792   0.00000  Uiso   1.00
H305   H     0.64332   0.73145   0.48070   0.00000  Uiso   1.00
H306   H     0.09915   0.56463   0.22949   0.00000  Uiso   1.00
H307   H     0.25440   0.98150   0.32549   0.00000  Uiso   1.00
H308   H     0.09648   0.06040   0.34692   0.00000  Uiso   1.00
H309   H     0.46470   0.99306   0.37196   0.00000  Uiso   1.00
H310   H     0.20663   0.91395   0.25283   0.00000  Uiso   1.00
H311   H     0.91426   0.11176   0.37823   0.00000  Uiso   1.00
H312   H     0.69068   0.96976   0.43101   0.00000  Uiso   1.00
H313   H     0.14649   0.80294   0.17980   0.00000  Uiso   1.00
O314   O     0.78573   0.03949   0.41823   0.00000  Uiso   1.00
O315   O     0.80436   0.85318   0.48747   0.00000  Uiso   1.00
O316   O     0.09040   0.63432   0.15789   0.00000  Uiso   1.00
N317   N     0.89971   0.91870   0.41328   0.00000  Uiso   1.00
N318   N     0.62561   0.78595   0.46263   0.00000  Uiso   1.00
N319   N     0.11688   0.62998   0.22777   0.00000  Uiso   1.00
N320   N     0.92519   0.04694   0.38654   0.00000  Uiso   1.00
N321   N     0.65108   0.91418   0.43589   0.00000  Uiso   1.00
N322   N     0.14235   0.75821   0.20103   0.00000  Uiso   1.00
C323   C     0.71176   0.26693   0.37024   0.00000  Uiso   1.00
C324   C     0.63197   0.34009   0.37556   0.00000  Uiso   1.00
C325   C     0.55071   0.33018   0.39493   0.00000  Uiso   1.00
C326   C     0.48621   0.40517   0.39663   0.00000  Uiso   1.00
C327   C     0.35989   0.50632   0.40751   0.00000  Uiso   1.00
C328   C     0.83203   0.30351   0.38917   0.00000  Uiso   1.00
C329   C     0.91898   0.26283   0.41998   0.00000  Uiso   1.00
C330   C     0.02290   0.30702   0.43312   0.00000  Uiso   1.00
C331   C     0.20720   0.35135   0.46510   0.00000  Uiso   1.00
C332   C     0.69181   0.26053   0.32444   0.00000  Uiso   1.00
C333   C     0.66088   0.18371   0.30083   0.00000  Uiso   1.00
C334   C     0.64677   0.19171   0.25948   0.00000  Uiso   1.00
C335   C     0.61335   0.16930   0.19097   0.00000  Uiso   1.00
C336   C     0.74172   0.41773   0.33879   0.00000  Uiso   1.00
C337   C     0.64825   0.42200   0.35848   0.00000  Uiso   1.00
C338   C     0.58386   0.49702   0.36014   0.00000  Uiso   1.00
C339   C     0.50251   0.48722   0.37952   0.00000  Uiso   1.00
C340   C     0.84831   0.38542   0.37209   0.00000  Uiso   1.00
C341   C     0.95213   0.42968   0.38519   0.00000  Uiso   1.00
C342   C     0.03921   0.38908   0.41601   0.00000  Uiso   1.00
C343   C     0.70808   0.34244   0.30736   0.00000  Uiso   1.00
C344   C     0.69403   0.35056   0.26604   0.00000  Uiso   1.00
C345   C     0.66308   0.27377   0.24237   0.00000  Uiso   1.00
H346   H     0.69909   0.20316   0.38353   0.00000  Uiso   1.00
H347   H     0.53815   0.26678   0.40815   0.00000  Uiso   1.00
H348   H     0.90636   0.19944   0.43318   0.00000  Uiso   1.00
H349   H     0.64830   0.12034   0.31406   0.00000  Uiso   1.00
H350   H     0.36691   0.37345   0.42792   0.00000  Uiso   1.00
H351   H     0.14332   0.23145   0.48070   0.00000  Uiso   1.00
H352   H     0.59915   0.06463   0.22949   0.00000  Uiso   1.00
H353   H     0.75440   0.48150   0.32549   0.00000  Uiso   1.00
H354   H     0.59648   0.56040   0.34692   0.00000  Uiso   1.00
H355   H     0.96470   0.49306   0.37196   0.00000  Uiso   1.00
H356   H     0.70663   0.41395   0.25283   0.00000  Uiso   1.00
H357   H     0.41426   0.61176   0.37823   0.00000  Uiso   1.00
H358   H     0.19068   0.46976   0.43101   0.00000  Uiso   1.00
H359   H     0.64649   0.30294   0.17980   0.00000  Uiso   1.00
O360   O     0.28573   0.53949   0.41823   0.00000  Uiso   1.00
O361   O     0.30436   0.35318   0.48747   0.00000  Uiso   1.00
O362   O     0.59040   0.13432   0.15789   0.00000  Uiso   1.00
N363   N     0.39971   0.41870   0.41328   0.00000  Uiso   1.00
N364   N     0.12561   0.28595   0.46263   0.00000  Uiso   1.00
N365   N     0.61688   0.12998   0.22777   0.00000  Uiso   1.00
N366   N     0.42519   0.54694   0.38654   0.00000  Uiso   1.00
N367   N     0.15108   0.41418   0.43589   0.00000  Uiso   1.00
N368   N     0.64235   0.25821   0.20103   0.00000  Uiso   1.00
