data_job_02321
_audit_creation_date              2018-12-19
_audit_creation_method            'Materials Studio'
_symmetry_space_group_name_H-M    'P1'
_symmetry_Int_Tables_number       1
_symmetry_cell_setting            triclinic
loop_
_symmetry_equiv_pos_as_xyz
  x,y,z
_cell_length_a                    11.9770
_cell_length_b                    22.6451
_cell_length_c                    14.7121
_cell_angle_alpha                 90.0000
_cell_angle_beta                  124.0457
_cell_angle_gamma                 90.0000
loop_
_atom_site_label
_atom_site_type_symbol
_atom_site_fract_x
_atom_site_fract_y
_atom_site_fract_z
_atom_site_U_iso_or_equiv
_atom_site_adp_type
_atom_site_occupancy
C1     C     0.20269   0.19575   0.21843   0.00000  Uiso   1.00
C2     C     0.26260   0.25457   0.27593   0.00000  Uiso   1.00
C3     C     0.27181   0.30519   0.22731   0.00000  Uiso   1.00
C4     C     0.32998   0.35449   0.29390   0.00000  Uiso   1.00
C5     C     0.41588   0.44603   0.36628   0.00000  Uiso   1.00
C6     C     0.31289   0.14977   0.28313   0.00000  Uiso   1.00
C7     C     0.36435   0.11225   0.24055   0.00000  Uiso   1.00
C8     C     0.46484   0.07333   0.31321   0.00000  Uiso   1.00
C9     C     0.62874   0.00212   0.39676   0.00000  Uiso   1.00
C10    C     0.09219   0.18122   0.23652   0.00000  Uiso   1.00
C11    C     0.95809   0.17015   0.15476   0.00000  Uiso   1.00
C12    C     0.87278   0.15769   0.18818   0.00000  Uiso   1.00
C13    C     0.69401   0.13533   0.19936   0.00000  Uiso   1.00
C14    C     0.28963   0.19330   0.42315   0.00000  Uiso   1.00
C15    C     0.30983   0.25324   0.38713   0.00000  Uiso   1.00
C16    C     0.36799   0.30249   0.45381   0.00000  Uiso   1.00
C17    C     0.37728   0.35317   0.40530   0.00000  Uiso   1.00
C18    C     0.36011   0.14844   0.39433   0.00000  Uiso   1.00
C19    C     0.46054   0.10955   0.46706   0.00000  Uiso   1.00
C20    C     0.51215   0.07200   0.42461   0.00000  Uiso   1.00
C21    C     0.13941   0.17990   0.34772   0.00000  Uiso   1.00
C22    C     0.05428   0.16745   0.38127   0.00000  Uiso   1.00
C23    C     0.92009   0.15636   0.29958   0.00000  Uiso   1.00
H24    H     0.16594   0.19678   0.13185   0.00000  Uiso   1.00
H25    H     0.23526   0.30619   0.14125   0.00000  Uiso   1.00
H26    H     0.32778   0.11329   0.15450   0.00000  Uiso   1.00
H27    H     0.92159   0.17118   0.06872   0.00000  Uiso   1.00
H28    H     0.33300   0.42691   0.20072   0.00000  Uiso   1.00
H29    H     0.52804   0.02015   0.22864   0.00000  Uiso   1.00
H30    H     0.67151   0.14222   0.04775   0.00000  Uiso   1.00
H31    H     0.32640   0.19227   0.50973   0.00000  Uiso   1.00
H32    H     0.40453   0.30145   0.53986   0.00000  Uiso   1.00
H33    H     0.49705   0.10854   0.55311   0.00000  Uiso   1.00
H34    H     0.09086   0.16643   0.46733   0.00000  Uiso   1.00
H35    H     0.47038   0.42306   0.52425   0.00000  Uiso   1.00
H36    H     0.66543   0.01629   0.55217   0.00000  Uiso   1.00
H37    H     0.80890   0.13836   0.37129   0.00000  Uiso   1.00
O38    O     0.45023   0.49688   0.37549   0.00000  Uiso   1.00
O39    O     0.70610   0.96321   0.41212   0.00000  Uiso   1.00
O40    O     0.58235   0.12337   0.17481   0.00000  Uiso   1.00
N41    N     0.35458   0.41103   0.27272   0.00000  Uiso   1.00
N42    N     0.53696   0.03073   0.29883   0.00000  Uiso   1.00
N43    N     0.73617   0.14484   0.12972   0.00000  Uiso   1.00
N44    N     0.42851   0.40895   0.44681   0.00000  Uiso   1.00
N45    N     0.61088   0.02866   0.47291   0.00000  Uiso   1.00
N46    N     0.81010   0.14277   0.30381   0.00000  Uiso   1.00
C47    C     0.79731   0.69575   0.28157   0.00000  Uiso   1.00
C48    C     0.73740   0.75457   0.22407   0.00000  Uiso   1.00
C49    C     0.72819   0.80519   0.27269   0.00000  Uiso   1.00
C50    C     0.67002   0.85449   0.20610   0.00000  Uiso   1.00
C51    C     0.58412   0.94603   0.13372   0.00000  Uiso   1.00
C52    C     0.68711   0.64977   0.21687   0.00000  Uiso   1.00
C53    C     0.63565   0.61225   0.25945   0.00000  Uiso   1.00
C54    C     0.53516   0.57333   0.18679   0.00000  Uiso   1.00
C55    C     0.37126   0.50212   0.10324   0.00000  Uiso   1.00
C56    C     0.90781   0.68122   0.26348   0.00000  Uiso   1.00
C57    C     0.04191   0.67015   0.34524   0.00000  Uiso   1.00
C58    C     0.12722   0.65769   0.31182   0.00000  Uiso   1.00
C59    C     0.30599   0.63533   0.30064   0.00000  Uiso   1.00
C60    C     0.71037   0.69330   0.07685   0.00000  Uiso   1.00
C61    C     0.69017   0.75324   0.11287   0.00000  Uiso   1.00
C62    C     0.63201   0.80249   0.04619   0.00000  Uiso   1.00
C63    C     0.62272   0.85317   0.09470   0.00000  Uiso   1.00
C64    C     0.63989   0.64844   0.10567   0.00000  Uiso   1.00
C65    C     0.53946   0.60955   0.03294   0.00000  Uiso   1.00
C66    C     0.48785   0.57200   0.07539   0.00000  Uiso   1.00
C67    C     0.86059   0.67990   0.15228   0.00000  Uiso   1.00
C68    C     0.94572   0.66745   0.11873   0.00000  Uiso   1.00
C69    C     0.07991   0.65636   0.20042   0.00000  Uiso   1.00
H70    H     0.83406   0.69678   0.36815   0.00000  Uiso   1.00
H71    H     0.76474   0.80619   0.35875   0.00000  Uiso   1.00
H72    H     0.67222   0.61329   0.34550   0.00000  Uiso   1.00
H73    H     0.07841   0.67118   0.43128   0.00000  Uiso   1.00
H74    H     0.66700   0.92691   0.29928   0.00000  Uiso   1.00
H75    H     0.47196   0.52015   0.27136   0.00000  Uiso   1.00
H76    H     0.32849   0.64222   0.45225   0.00000  Uiso   1.00
H77    H     0.67360   0.69227   0.99027   0.00000  Uiso   1.00
H78    H     0.59547   0.80145   0.96014   0.00000  Uiso   1.00
H79    H     0.50295   0.60854   0.94689   0.00000  Uiso   1.00
H80    H     0.90914   0.66643   0.03267   0.00000  Uiso   1.00
H81    H     0.52962   0.92306   0.97575   0.00000  Uiso   1.00
H82    H     0.33457   0.51629   0.94783   0.00000  Uiso   1.00
H83    H     0.19110   0.63836   0.12871   0.00000  Uiso   1.00
O84    O     0.54977   0.99688   0.12451   0.00000  Uiso   1.00
O85    O     0.29390   0.46321   0.08788   0.00000  Uiso   1.00
O86    O     0.41765   0.62337   0.32519   0.00000  Uiso   1.00
N87    N     0.64542   0.91103   0.22728   0.00000  Uiso   1.00
N88    N     0.46304   0.53073   0.20117   0.00000  Uiso   1.00
N89    N     0.26383   0.64484   0.37028   0.00000  Uiso   1.00
N90    N     0.57149   0.90895   0.05319   0.00000  Uiso   1.00
N91    N     0.38912   0.52866   0.02709   0.00000  Uiso   1.00
N92    N     0.18990   0.64277   0.19619   0.00000  Uiso   1.00
C93    C     0.79731   0.80425   0.78157   0.00000  Uiso   1.00
C94    C     0.73740   0.74543   0.72407   0.00000  Uiso   1.00
C95    C     0.72819   0.69481   0.77269   0.00000  Uiso   1.00
C96    C     0.67002   0.64551   0.70610   0.00000  Uiso   1.00
C97    C     0.58412   0.55397   0.63372   0.00000  Uiso   1.00
C98    C     0.68711   0.85023   0.71687   0.00000  Uiso   1.00
C99    C     0.63565   0.88775   0.75945   0.00000  Uiso   1.00
C100   C     0.53516   0.92667   0.68679   0.00000  Uiso   1.00
C101   C     0.37126   0.99788   0.60324   0.00000  Uiso   1.00
C102   C     0.90781   0.81878   0.76348   0.00000  Uiso   1.00
C103   C     0.04191   0.82985   0.84524   0.00000  Uiso   1.00
C104   C     0.12722   0.84231   0.81182   0.00000  Uiso   1.00
C105   C     0.30599   0.86467   0.80064   0.00000  Uiso   1.00
C106   C     0.71037   0.80670   0.57685   0.00000  Uiso   1.00
C107   C     0.69017   0.74676   0.61287   0.00000  Uiso   1.00
C108   C     0.63201   0.69751   0.54619   0.00000  Uiso   1.00
C109   C     0.62272   0.64683   0.59470   0.00000  Uiso   1.00
C110   C     0.63989   0.85156   0.60567   0.00000  Uiso   1.00
C111   C     0.53946   0.89045   0.53294   0.00000  Uiso   1.00
C112   C     0.48785   0.92800   0.57539   0.00000  Uiso   1.00
C113   C     0.86059   0.82010   0.65228   0.00000  Uiso   1.00
C114   C     0.94572   0.83255   0.61873   0.00000  Uiso   1.00
C115   C     0.07991   0.84364   0.70042   0.00000  Uiso   1.00
H116   H     0.83406   0.80322   0.86815   0.00000  Uiso   1.00
H117   H     0.76474   0.69381   0.85875   0.00000  Uiso   1.00
H118   H     0.67222   0.88671   0.84550   0.00000  Uiso   1.00
H119   H     0.07841   0.82882   0.93128   0.00000  Uiso   1.00
H120   H     0.66700   0.57309   0.79928   0.00000  Uiso   1.00
H121   H     0.47196   0.97985   0.77136   0.00000  Uiso   1.00
H122   H     0.32849   0.85778   0.95225   0.00000  Uiso   1.00
H123   H     0.67360   0.80773   0.49027   0.00000  Uiso   1.00
H124   H     0.59547   0.69855   0.46014   0.00000  Uiso   1.00
H125   H     0.50295   0.89146   0.44689   0.00000  Uiso   1.00
H126   H     0.90914   0.83357   0.53267   0.00000  Uiso   1.00
H127   H     0.52962   0.57694   0.47575   0.00000  Uiso   1.00
H128   H     0.33457   0.98371   0.44783   0.00000  Uiso   1.00
H129   H     0.19110   0.86164   0.62871   0.00000  Uiso   1.00
O130   O     0.54977   0.50312   0.62451   0.00000  Uiso   1.00
O131   O     0.29390   0.03679   0.58788   0.00000  Uiso   1.00
O132   O     0.41765   0.87663   0.82519   0.00000  Uiso   1.00
N133   N     0.64542   0.58897   0.72728   0.00000  Uiso   1.00
N134   N     0.46304   0.96927   0.70117   0.00000  Uiso   1.00
N135   N     0.26383   0.85516   0.87028   0.00000  Uiso   1.00
N136   N     0.57149   0.59105   0.55319   0.00000  Uiso   1.00
N137   N     0.38912   0.97134   0.52709   0.00000  Uiso   1.00
N138   N     0.18990   0.85723   0.69619   0.00000  Uiso   1.00
C139   C     0.20269   0.30425   0.71843   0.00000  Uiso   1.00
C140   C     0.26260   0.24543   0.77593   0.00000  Uiso   1.00
C141   C     0.27181   0.19481   0.72731   0.00000  Uiso   1.00
C142   C     0.32998   0.14551   0.79390   0.00000  Uiso   1.00
C143   C     0.41588   0.05397   0.86628   0.00000  Uiso   1.00
C144   C     0.31289   0.35023   0.78313   0.00000  Uiso   1.00
C145   C     0.36435   0.38775   0.74055   0.00000  Uiso   1.00
C146   C     0.46484   0.42667   0.81321   0.00000  Uiso   1.00
C147   C     0.62874   0.49788   0.89676   0.00000  Uiso   1.00
C148   C     0.09219   0.31878   0.73652   0.00000  Uiso   1.00
C149   C     0.95809   0.32985   0.65476   0.00000  Uiso   1.00
C150   C     0.87278   0.34231   0.68818   0.00000  Uiso   1.00
C151   C     0.69401   0.36467   0.69936   0.00000  Uiso   1.00
C152   C     0.28963   0.30670   0.92315   0.00000  Uiso   1.00
C153   C     0.30983   0.24676   0.88713   0.00000  Uiso   1.00
C154   C     0.36799   0.19751   0.95381   0.00000  Uiso   1.00
C155   C     0.37728   0.14683   0.90530   0.00000  Uiso   1.00
C156   C     0.36011   0.35156   0.89433   0.00000  Uiso   1.00
C157   C     0.46054   0.39045   0.96706   0.00000  Uiso   1.00
C158   C     0.51215   0.42800   0.92461   0.00000  Uiso   1.00
C159   C     0.13941   0.32010   0.84772   0.00000  Uiso   1.00
C160   C     0.05428   0.33255   0.88127   0.00000  Uiso   1.00
C161   C     0.92009   0.34364   0.79958   0.00000  Uiso   1.00
H162   H     0.16594   0.30322   0.63185   0.00000  Uiso   1.00
H163   H     0.23526   0.19381   0.64125   0.00000  Uiso   1.00
H164   H     0.32778   0.38671   0.65450   0.00000  Uiso   1.00
H165   H     0.92159   0.32882   0.56872   0.00000  Uiso   1.00
H166   H     0.33300   0.07309   0.70072   0.00000  Uiso   1.00
H167   H     0.52804   0.47985   0.72864   0.00000  Uiso   1.00
H168   H     0.67151   0.35778   0.54775   0.00000  Uiso   1.00
H169   H     0.32640   0.30773   0.00973   0.00000  Uiso   1.00
H170   H     0.40453   0.19855   0.03986   0.00000  Uiso   1.00
H171   H     0.49705   0.39146   0.05311   0.00000  Uiso   1.00
H172   H     0.09086   0.33357   0.96733   0.00000  Uiso   1.00
H173   H     0.47038   0.07694   0.02425   0.00000  Uiso   1.00
H174   H     0.66543   0.48371   0.05217   0.00000  Uiso   1.00
H175   H     0.80890   0.36164   0.87129   0.00000  Uiso   1.00
O176   O     0.45023   0.00312   0.87549   0.00000  Uiso   1.00
O177   O     0.70610   0.53679   0.91212   0.00000  Uiso   1.00
O178   O     0.58235   0.37663   0.67481   0.00000  Uiso   1.00
N179   N     0.35458   0.08897   0.77272   0.00000  Uiso   1.00
N180   N     0.53696   0.46927   0.79883   0.00000  Uiso   1.00
N181   N     0.73617   0.35516   0.62972   0.00000  Uiso   1.00
N182   N     0.42851   0.09105   0.94681   0.00000  Uiso   1.00
N183   N     0.61088   0.47134   0.97291   0.00000  Uiso   1.00
N184   N     0.81010   0.35723   0.80381   0.00000  Uiso   1.00
