data_job_06304
_audit_creation_date              2018-12-19
_audit_creation_method            'Materials Studio'
_symmetry_space_group_name_H-M    'P1'
_symmetry_Int_Tables_number       1
_symmetry_cell_setting            triclinic
loop_
_symmetry_equiv_pos_as_xyz
  x,y,z
_cell_length_a                    18.6855
_cell_length_b                    18.6981
_cell_length_c                    22.0372
_cell_angle_alpha                 64.9915
_cell_angle_beta                  64.9329
_cell_angle_gamma                 60.0542
loop_
_atom_site_label
_atom_site_type_symbol
_atom_site_fract_x
_atom_site_fract_y
_atom_site_fract_z
_atom_site_U_iso_or_equiv
_atom_site_adp_type
_atom_site_occupancy
C1     C     0.85032   0.37735   0.69166   0.00000  Uiso   1.00
C2     C     0.81798   0.34460   0.65981   0.00000  Uiso   1.00
C3     C     0.85932   0.26548   0.64574   0.00000  Uiso   1.00
C4     C     0.81925   0.24758   0.61653   0.00000  Uiso   1.00
C5     C     0.78100   0.18775   0.56926   0.00000  Uiso   1.00
C6     C     0.85479   0.46195   0.64044   0.00000  Uiso   1.00
C7     C     0.92709   0.48148   0.61009   0.00000  Uiso   1.00
C8     C     0.91800   0.56237   0.56458   0.00000  Uiso   1.00
C9     C     0.93689   0.68473   0.48727   0.00000  Uiso   1.00
C10    C     0.77905   0.40016   0.75633   0.00000  Uiso   1.00
C11    C     0.78767   0.36777   0.82343   0.00000  Uiso   1.00
C12    C     0.71481   0.39666   0.87549   0.00000  Uiso   1.00
C13    C     0.61610   0.42310   0.97813   0.00000  Uiso   1.00
C14    C     0.70563   0.48629   0.66482   0.00000  Uiso   1.00
C15    C     0.73938   0.40378   0.64523   0.00000  Uiso   1.00
C16    C     0.69923   0.38600   0.61604   0.00000  Uiso   1.00
C17    C     0.74051   0.30686   0.60192   0.00000  Uiso   1.00
C18    C     0.77620   0.52112   0.62586   0.00000  Uiso   1.00
C19    C     0.76700   0.60200   0.58039   0.00000  Uiso   1.00
C20    C     0.83926   0.62165   0.54997   0.00000  Uiso   1.00
C21    C     0.70045   0.45933   0.74175   0.00000  Uiso   1.00
C22    C     0.62757   0.48829   0.79372   0.00000  Uiso   1.00
C23    C     0.63608   0.45594   0.86088   0.00000  Uiso   1.00
H24    H     0.91152   0.33129   0.70301   0.00000  Uiso   1.00
H25    H     0.92015   0.21970   0.65703   0.00000  Uiso   1.00
H26    H     0.98790   0.43568   0.62139   0.00000  Uiso   1.00
H27    H     0.84850   0.32198   0.83469   0.00000  Uiso   1.00
H28    H     0.89508   0.12210   0.59959   0.00000  Uiso   1.00
H29    H     0.03793   0.57750   0.52446   0.00000  Uiso   1.00
H30    H     0.74397   0.33775   0.97425   0.00000  Uiso   1.00
H31    H     0.64443   0.53236   0.65346   0.00000  Uiso   1.00
H32    H     0.63841   0.43180   0.60476   0.00000  Uiso   1.00
H33    H     0.70617   0.64777   0.56912   0.00000  Uiso   1.00
H34    H     0.56676   0.53408   0.78242   0.00000  Uiso   1.00
H35    H     0.66641   0.29425   0.55716   0.00000  Uiso   1.00
H36    H     0.80926   0.74965   0.48203   0.00000  Uiso   1.00
H37    H     0.51530   0.50990   0.93182   0.00000  Uiso   1.00
O38    O     0.78161   0.13841   0.54720   0.00000  Uiso   1.00
O39    O     0.96903   0.73587   0.44865   0.00000  Uiso   1.00
O40    O     0.58336   0.42133   0.03877   0.00000  Uiso   1.00
N41    N     0.84208   0.17641   0.59630   0.00000  Uiso   1.00
N42    N     0.97564   0.60217   0.52605   0.00000  Uiso   1.00
N43    N     0.70082   0.37805   0.94657   0.00000  Uiso   1.00
N44    N     0.71903   0.26904   0.57347   0.00000  Uiso   1.00
N45    N     0.85260   0.69480   0.50322   0.00000  Uiso   1.00
N46    N     0.57778   0.47068   0.92374   0.00000  Uiso   1.00
C47    C     0.08068   0.85006   0.69208   0.00000  Uiso   1.00
C48    C     0.17758   0.81777   0.66024   0.00000  Uiso   1.00
C49    C     0.22945   0.85912   0.64625   0.00000  Uiso   1.00
C50    C     0.31658   0.81910   0.61703   0.00000  Uiso   1.00
C51    C     0.46187   0.78093   0.56979   0.00000  Uiso   1.00
C52    C     0.04283   0.85443   0.64080   0.00000  Uiso   1.00
C53    C     0.98140   0.92660   0.61048   0.00000  Uiso   1.00
C54    C     0.95509   0.91743   0.56491   0.00000  Uiso   1.00
C55    C     0.89114   0.93615   0.48753   0.00000  Uiso   1.00
C56    C     0.06444   0.77890   0.75670   0.00000  Uiso   1.00
C57    C     0.02116   0.78756   0.82381   0.00000  Uiso   1.00
C58    C     0.01302   0.71480   0.87581   0.00000  Uiso   1.00
C59    C     0.98262   0.61625   0.97837   0.00000  Uiso   1.00
C60    C     0.14315   0.70546   0.66509   0.00000  Uiso   1.00
C61    C     0.21151   0.73923   0.64558   0.00000  Uiso   1.00
C62    C     0.29857   0.69914   0.61638   0.00000  Uiso   1.00
C63    C     0.35057   0.74042   0.60235   0.00000  Uiso   1.00
C64    C     0.07676   0.77589   0.62614   0.00000  Uiso   1.00
C65    C     0.05053   0.76661   0.58061   0.00000  Uiso   1.00
C66    C     0.98908   0.83875   0.55021   0.00000  Uiso   1.00
C67    C     0.09837   0.70035   0.74203   0.00000  Uiso   1.00
C68    C     0.09029   0.62757   0.79394   0.00000  Uiso   1.00
C69    C     0.04701   0.63612   0.86112   0.00000  Uiso   1.00
H70    H     0.05426   0.91121   0.70350   0.00000  Uiso   1.00
H71    H     0.20317   0.91991   0.65760   0.00000  Uiso   1.00
H72    H     0.95515   0.98737   0.62184   0.00000  Uiso   1.00
H73    H     0.99491   0.84835   0.83514   0.00000  Uiso   1.00
H74    H     0.38322   0.89493   0.60022   0.00000  Uiso   1.00
H75    H     0.86025   0.03716   0.52484   0.00000  Uiso   1.00
H76    H     0.94408   0.74402   0.97463   0.00000  Uiso   1.00
H77    H     0.16957   0.64431   0.65367   0.00000  Uiso   1.00
H78    H     0.32481   0.63836   0.60504   0.00000  Uiso   1.00
H79    H     0.07680   0.70582   0.56928   0.00000  Uiso   1.00
H80    H     0.11655   0.56680   0.78258   0.00000  Uiso   1.00
H81    H     0.48196   0.66641   0.55755   0.00000  Uiso   1.00
H82    H     0.95897   0.80865   0.48218   0.00000  Uiso   1.00
H83    H     0.04281   0.51550   0.93196   0.00000  Uiso   1.00
O84    O     0.53263   0.78158   0.54777   0.00000  Uiso   1.00
O85    O     0.84649   0.96818   0.44889   0.00000  Uiso   1.00
O86    O     0.95649   0.58359   0.03900   0.00000  Uiso   1.00
N87    N     0.38516   0.84196   0.59686   0.00000  Uiso   1.00
N88    N     0.89622   0.97494   0.52638   0.00000  Uiso   1.00
N89    N     0.97457   0.70088   0.94689   0.00000  Uiso   1.00
N90    N     0.43829   0.71899   0.57391   0.00000  Uiso   1.00
N91    N     0.94934   0.85197   0.50342   0.00000  Uiso   1.00
N92    N     0.02770   0.57792   0.92394   0.00000  Uiso   1.00
C93    C     0.37725   0.08016   0.69210   0.00000  Uiso   1.00
C94    C     0.34456   0.17694   0.66033   0.00000  Uiso   1.00
C95    C     0.26537   0.22870   0.64633   0.00000  Uiso   1.00
C96    C     0.24754   0.31572   0.61719   0.00000  Uiso   1.00
C97    C     0.18777   0.46082   0.57005   0.00000  Uiso   1.00
C98    C     0.46195   0.04234   0.64080   0.00000  Uiso   1.00
C99    C     0.48148   0.98092   0.61039   0.00000  Uiso   1.00
C100   C     0.56248   0.95463   0.56482   0.00000  Uiso   1.00
C101   C     0.68499   0.89071   0.48740   0.00000  Uiso   1.00
C102   C     0.40006   0.06403   0.75675   0.00000  Uiso   1.00
C103   C     0.36755   0.02084   0.82383   0.00000  Uiso   1.00
C104   C     0.39645   0.01279   0.87588   0.00000  Uiso   1.00
C105   C     0.42285   0.98257   0.97849   0.00000  Uiso   1.00
C106   C     0.48641   0.14265   0.66524   0.00000  Uiso   1.00
C107   C     0.40385   0.21088   0.64574   0.00000  Uiso   1.00
C108   C     0.38613   0.29785   0.61662   0.00000  Uiso   1.00
C109   C     0.30693   0.34973   0.60258   0.00000  Uiso   1.00
C110   C     0.52124   0.07628   0.62621   0.00000  Uiso   1.00
C111   C     0.60224   0.05007   0.58068   0.00000  Uiso   1.00
C112   C     0.62187   0.98863   0.55020   0.00000  Uiso   1.00
C113   C     0.45934   0.09798   0.74216   0.00000  Uiso   1.00
C114   C     0.48831   0.08999   0.79412   0.00000  Uiso   1.00
C115   C     0.45585   0.04680   0.86126   0.00000  Uiso   1.00
H116   H     0.33110   0.05373   0.70345   0.00000  Uiso   1.00
H117   H     0.21951   0.20240   0.65762   0.00000  Uiso   1.00
H118   H     0.43558   0.95466   0.62170   0.00000  Uiso   1.00
H119   H     0.32167   0.99458   0.83510   0.00000  Uiso   1.00
H120   H     0.12194   0.38221   0.60036   0.00000  Uiso   1.00
H121   H     0.57756   0.85980   0.52462   0.00000  Uiso   1.00
H122   H     0.33735   0.94397   0.97463   0.00000  Uiso   1.00
H123   H     0.53257   0.16908   0.65388   0.00000  Uiso   1.00
H124   H     0.43203   0.32410   0.60533   0.00000  Uiso   1.00
H125   H     0.64810   0.07635   0.56940   0.00000  Uiso   1.00
H126   H     0.53419   0.11627   0.78281   0.00000  Uiso   1.00
H127   H     0.29443   0.48098   0.55791   0.00000  Uiso   1.00
H128   H     0.75006   0.95856   0.48218   0.00000  Uiso   1.00
H129   H     0.50984   0.04274   0.93218   0.00000  Uiso   1.00
O130   O     0.13843   0.53148   0.54807   0.00000  Uiso   1.00
O131   O     0.73618   0.84609   0.44872   0.00000  Uiso   1.00
O132   O     0.42103   0.95653   0.03912   0.00000  Uiso   1.00
N133   N     0.17633   0.38418   0.59704   0.00000  Uiso   1.00
N134   N     0.60230   0.89577   0.52622   0.00000  Uiso   1.00
N135   N     0.37774   0.97444   0.94694   0.00000  Uiso   1.00
N136   N     0.26915   0.43733   0.57421   0.00000  Uiso   1.00
N137   N     0.69512   0.94892   0.50339   0.00000  Uiso   1.00
N138   N     0.47056   0.02759   0.92410   0.00000  Uiso   1.00
C139   C     0.14968   0.62265   0.30834   0.00000  Uiso   1.00
C140   C     0.18202   0.65540   0.34019   0.00000  Uiso   1.00
C141   C     0.14068   0.73452   0.35426   0.00000  Uiso   1.00
C142   C     0.18075   0.75242   0.38347   0.00000  Uiso   1.00
C143   C     0.21900   0.81225   0.43074   0.00000  Uiso   1.00
C144   C     0.14521   0.53805   0.35956   0.00000  Uiso   1.00
C145   C     0.07291   0.51852   0.38991   0.00000  Uiso   1.00
C146   C     0.08200   0.43763   0.43542   0.00000  Uiso   1.00
C147   C     0.06311   0.31527   0.51273   0.00000  Uiso   1.00
C148   C     0.22095   0.59984   0.24367   0.00000  Uiso   1.00
C149   C     0.21233   0.63223   0.17657   0.00000  Uiso   1.00
C150   C     0.28519   0.60334   0.12451   0.00000  Uiso   1.00
C151   C     0.38390   0.57690   0.02187   0.00000  Uiso   1.00
C152   C     0.29437   0.51371   0.33518   0.00000  Uiso   1.00
C153   C     0.26062   0.59622   0.35477   0.00000  Uiso   1.00
C154   C     0.30077   0.61400   0.38396   0.00000  Uiso   1.00
C155   C     0.25949   0.69314   0.39808   0.00000  Uiso   1.00
C156   C     0.22380   0.47888   0.37414   0.00000  Uiso   1.00
C157   C     0.23300   0.39800   0.41961   0.00000  Uiso   1.00
C158   C     0.16073   0.37835   0.45003   0.00000  Uiso   1.00
C159   C     0.29955   0.54067   0.25825   0.00000  Uiso   1.00
C160   C     0.37243   0.51171   0.20628   0.00000  Uiso   1.00
C161   C     0.36392   0.54406   0.13912   0.00000  Uiso   1.00
H162   H     0.08848   0.66871   0.29699   0.00000  Uiso   1.00
H163   H     0.07985   0.78029   0.34297   0.00000  Uiso   1.00
H164   H     0.01210   0.56432   0.37861   0.00000  Uiso   1.00
H165   H     0.15150   0.67802   0.16531   0.00000  Uiso   1.00
H166   H     0.10492   0.87790   0.40041   0.00000  Uiso   1.00
H167   H     0.96207   0.42250   0.47554   0.00000  Uiso   1.00
H168   H     0.25603   0.66225   0.02575   0.00000  Uiso   1.00
H169   H     0.35557   0.46764   0.34654   0.00000  Uiso   1.00
H170   H     0.36159   0.56820   0.39524   0.00000  Uiso   1.00
H171   H     0.29383   0.35223   0.43088   0.00000  Uiso   1.00
H172   H     0.43324   0.46592   0.21758   0.00000  Uiso   1.00
H173   H     0.33359   0.70575   0.44284   0.00000  Uiso   1.00
H174   H     0.19074   0.25035   0.51797   0.00000  Uiso   1.00
H175   H     0.48469   0.49010   0.06818   0.00000  Uiso   1.00
O176   O     0.21839   0.86159   0.45280   0.00000  Uiso   1.00
O177   O     0.03097   0.26413   0.55135   0.00000  Uiso   1.00
O178   O     0.41664   0.57867   0.96123   0.00000  Uiso   1.00
N179   N     0.15792   0.82359   0.40370   0.00000  Uiso   1.00
N180   N     0.02436   0.39783   0.47395   0.00000  Uiso   1.00
N181   N     0.29918   0.62195   0.05343   0.00000  Uiso   1.00
N182   N     0.28097   0.73096   0.42653   0.00000  Uiso   1.00
N183   N     0.14740   0.30520   0.49678   0.00000  Uiso   1.00
N184   N     0.42222   0.52932   0.07626   0.00000  Uiso   1.00
C185   C     0.91932   0.14994   0.30792   0.00000  Uiso   1.00
C186   C     0.82242   0.18223   0.33976   0.00000  Uiso   1.00
C187   C     0.77055   0.14088   0.35375   0.00000  Uiso   1.00
C188   C     0.68342   0.18090   0.38297   0.00000  Uiso   1.00
C189   C     0.53813   0.21907   0.43021   0.00000  Uiso   1.00
C190   C     0.95717   0.14557   0.35920   0.00000  Uiso   1.00
C191   C     0.01860   0.07340   0.38952   0.00000  Uiso   1.00
C192   C     0.04491   0.08257   0.43509   0.00000  Uiso   1.00
C193   C     0.10886   0.06385   0.51247   0.00000  Uiso   1.00
C194   C     0.93556   0.22110   0.24330   0.00000  Uiso   1.00
C195   C     0.97884   0.21244   0.17619   0.00000  Uiso   1.00
C196   C     0.98698   0.28520   0.12419   0.00000  Uiso   1.00
C197   C     0.01738   0.38374   0.02163   0.00000  Uiso   1.00
C198   C     0.85685   0.29454   0.33491   0.00000  Uiso   1.00
C199   C     0.78849   0.26077   0.35442   0.00000  Uiso   1.00
C200   C     0.70143   0.30086   0.38362   0.00000  Uiso   1.00
C201   C     0.64943   0.25958   0.39765   0.00000  Uiso   1.00
C202   C     0.92324   0.22411   0.37386   0.00000  Uiso   1.00
C203   C     0.94947   0.23339   0.41939   0.00000  Uiso   1.00
C204   C     0.01092   0.16125   0.44979   0.00000  Uiso   1.00
C205   C     0.90163   0.29965   0.25797   0.00000  Uiso   1.00
C206   C     0.90971   0.37243   0.20606   0.00000  Uiso   1.00
C207   C     0.95299   0.36388   0.13888   0.00000  Uiso   1.00
H208   H     0.94574   0.08879   0.29650   0.00000  Uiso   1.00
H209   H     0.79683   0.08009   0.34240   0.00000  Uiso   1.00
H210   H     0.04485   0.01263   0.37816   0.00000  Uiso   1.00
H211   H     0.00509   0.15165   0.16486   0.00000  Uiso   1.00
H212   H     0.61678   0.10507   0.39978   0.00000  Uiso   1.00
H213   H     0.13975   0.96284   0.47516   0.00000  Uiso   1.00
H214   H     0.05592   0.25598   0.02537   0.00000  Uiso   1.00
H215   H     0.83043   0.35569   0.34633   0.00000  Uiso   1.00
H216   H     0.67519   0.36164   0.39496   0.00000  Uiso   1.00
H217   H     0.92320   0.29418   0.43072   0.00000  Uiso   1.00
H218   H     0.88344   0.43320   0.21742   0.00000  Uiso   1.00
H219   H     0.51804   0.33359   0.44245   0.00000  Uiso   1.00
H220   H     0.04103   0.19135   0.51782   0.00000  Uiso   1.00
H221   H     0.95718   0.48450   0.06804   0.00000  Uiso   1.00
O222   O     0.46737   0.21842   0.45223   0.00000  Uiso   1.00
O223   O     0.15351   0.03182   0.55111   0.00000  Uiso   1.00
O224   O     0.04351   0.41641   0.96100   0.00000  Uiso   1.00
N225   N     0.61484   0.15804   0.40314   0.00000  Uiso   1.00
N226   N     0.10378   0.02506   0.47362   0.00000  Uiso   1.00
N227   N     0.02543   0.29912   0.05311   0.00000  Uiso   1.00
N228   N     0.56171   0.28101   0.42609   0.00000  Uiso   1.00
N229   N     0.05066   0.14802   0.49658   0.00000  Uiso   1.00
N230   N     0.97230   0.42208   0.07606   0.00000  Uiso   1.00
C231   C     0.62275   0.91984   0.30790   0.00000  Uiso   1.00
C232   C     0.65544   0.82306   0.33967   0.00000  Uiso   1.00
C233   C     0.73463   0.77130   0.35367   0.00000  Uiso   1.00
C234   C     0.75246   0.68428   0.38281   0.00000  Uiso   1.00
C235   C     0.81223   0.53918   0.42995   0.00000  Uiso   1.00
C236   C     0.53804   0.95766   0.35920   0.00000  Uiso   1.00
C237   C     0.51852   0.01908   0.38961   0.00000  Uiso   1.00
C238   C     0.43752   0.04537   0.43518   0.00000  Uiso   1.00
C239   C     0.31501   0.10929   0.51260   0.00000  Uiso   1.00
C240   C     0.59994   0.93597   0.24325   0.00000  Uiso   1.00
C241   C     0.63245   0.97916   0.17617   0.00000  Uiso   1.00
C242   C     0.60355   0.98720   0.12412   0.00000  Uiso   1.00
C243   C     0.57714   0.01743   0.02151   0.00000  Uiso   1.00
C244   C     0.51359   0.85734   0.33476   0.00000  Uiso   1.00
C245   C     0.59615   0.78912   0.35426   0.00000  Uiso   1.00
C246   C     0.61387   0.70215   0.38338   0.00000  Uiso   1.00
C247   C     0.69307   0.65027   0.39742   0.00000  Uiso   1.00
C248   C     0.47876   0.92372   0.37379   0.00000  Uiso   1.00
C249   C     0.39776   0.94993   0.41932   0.00000  Uiso   1.00
C250   C     0.37813   0.01136   0.44980   0.00000  Uiso   1.00
C251   C     0.54066   0.90202   0.25784   0.00000  Uiso   1.00
C252   C     0.51169   0.91001   0.20588   0.00000  Uiso   1.00
C253   C     0.54415   0.95320   0.13874   0.00000  Uiso   1.00
H254   H     0.66890   0.94627   0.29655   0.00000  Uiso   1.00
H255   H     0.78049   0.79760   0.34238   0.00000  Uiso   1.00
H256   H     0.56442   0.04534   0.37831   0.00000  Uiso   1.00
H257   H     0.67833   0.00542   0.16490   0.00000  Uiso   1.00
H258   H     0.87806   0.61779   0.39964   0.00000  Uiso   1.00
H259   H     0.42244   0.14020   0.47538   0.00000  Uiso   1.00
H260   H     0.66265   0.05603   0.02537   0.00000  Uiso   1.00
H261   H     0.46743   0.83092   0.34612   0.00000  Uiso   1.00
H262   H     0.56797   0.67590   0.39467   0.00000  Uiso   1.00
H263   H     0.35190   0.92365   0.43060   0.00000  Uiso   1.00
H264   H     0.46581   0.88373   0.21719   0.00000  Uiso   1.00
H265   H     0.70556   0.51902   0.44209   0.00000  Uiso   1.00
H266   H     0.24994   0.04144   0.51782   0.00000  Uiso   1.00
H267   H     0.49016   0.95726   0.06782   0.00000  Uiso   1.00
O268   O     0.86157   0.46852   0.45193   0.00000  Uiso   1.00
O269   O     0.26382   0.15391   0.55128   0.00000  Uiso   1.00
O270   O     0.57897   0.04347   0.96088   0.00000  Uiso   1.00
N271   N     0.82367   0.61582   0.40296   0.00000  Uiso   1.00
N272   N     0.39770   0.10423   0.47378   0.00000  Uiso   1.00
N273   N     0.62226   0.02555   0.05306   0.00000  Uiso   1.00
N274   N     0.73085   0.56267   0.42580   0.00000  Uiso   1.00
N275   N     0.30488   0.05108   0.49661   0.00000  Uiso   1.00
N276   N     0.52944   0.97241   0.07590   0.00000  Uiso   1.00
