data_job_03707
_audit_creation_date              2018-12-19
_audit_creation_method            'Materials Studio'
_symmetry_space_group_name_H-M    'P1'
_symmetry_Int_Tables_number       1
_symmetry_cell_setting            triclinic
loop_
_symmetry_equiv_pos_as_xyz
  x,y,z
_cell_length_a                    15.2486
_cell_length_b                    18.0013
_cell_length_c                    8.6374
_cell_angle_alpha                 90.0000
_cell_angle_beta                  90.0000
_cell_angle_gamma                 90.0000
loop_
_atom_site_label
_atom_site_type_symbol
_atom_site_fract_x
_atom_site_fract_y
_atom_site_fract_z
_atom_site_U_iso_or_equiv
_atom_site_adp_type
_atom_site_occupancy
C1     C     0.75353   0.59433   0.02370   0.00000  Uiso   1.00
C2     C     0.72898   0.51296   0.00054   0.00000  Uiso   1.00
C3     C     0.68435   0.48403   0.87417   0.00000  Uiso   1.00
C4     C     0.66816   0.40813   0.87473   0.00000  Uiso   1.00
C5     C     0.62582   0.28868   0.82017   0.00000  Uiso   1.00
C6     C     0.71364   0.61719   0.17842   0.00000  Uiso   1.00
C7     C     0.65611   0.67589   0.20160   0.00000  Uiso   1.00
C8     C     0.62702   0.68774   0.35191   0.00000  Uiso   1.00
C9     C     0.56091   0.73013   0.57352   0.00000  Uiso   1.00
C10    C     0.85265   0.59572   0.04682   0.00000  Uiso   1.00
C11    C     0.91202   0.63640   0.95938   0.00000  Uiso   1.00
C12    C     0.99998   0.63018   0.99891   0.00000  Uiso   1.00
C13    C     0.14971   0.63925   0.01618   0.00000  Uiso   1.00
C14    C     0.80415   0.51099   0.24942   0.00000  Uiso   1.00
C15    C     0.75648   0.46770   0.12315   0.00000  Uiso   1.00
C16    C     0.74036   0.39182   0.12391   0.00000  Uiso   1.00
C17    C     0.69571   0.36278   0.99755   0.00000  Uiso   1.00
C18    C     0.74113   0.57192   0.30102   0.00000  Uiso   1.00
C19    C     0.71212   0.58369   0.45134   0.00000  Uiso   1.00
C20    C     0.65457   0.64239   0.47474   0.00000  Uiso   1.00
C21    C     0.88015   0.55046   0.16942   0.00000  Uiso   1.00
C22    C     0.96803   0.54419   0.20911   0.00000  Uiso   1.00
C23    C     0.02752   0.58484   0.12174   0.00000  Uiso   1.00
H24    H     0.73212   0.62957   0.92825   0.00000  Uiso   1.00
H25    H     0.66307   0.51908   0.77932   0.00000  Uiso   1.00
H26    H     0.63485   0.71092   0.10671   0.00000  Uiso   1.00
H27    H     0.89072   0.67142   0.86451   0.00000  Uiso   1.00
H28    H     0.59862   0.37662   0.66830   0.00000  Uiso   1.00
H29    H     0.53914   0.78113   0.35861   0.00000  Uiso   1.00
H30    H     0.07869   0.69785   0.84790   0.00000  Uiso   1.00
H31    H     0.82556   0.47575   0.34488   0.00000  Uiso   1.00
H32    H     0.76164   0.35681   0.21880   0.00000  Uiso   1.00
H33    H     0.73342   0.54865   0.54619   0.00000  Uiso   1.00
H34    H     0.98929   0.50915   0.30399   0.00000  Uiso   1.00
H35    H     0.67862   0.24491   0.02500   0.00000  Uiso   1.00
H36    H     0.61914   0.64943   0.71531   0.00000  Uiso   1.00
H37    H     0.15869   0.56615   0.20460   0.00000  Uiso   1.00
O38    O     0.59486   0.23530   0.75622   0.00000  Uiso   1.00
O39    O     0.51684   0.76602   0.66188   0.00000  Uiso   1.00
O40    O     0.22471   0.65675   0.99183   0.00000  Uiso   1.00
N41    N     0.62624   0.36194   0.76953   0.00000  Uiso   1.00
N42    N     0.57061   0.74013   0.41493   0.00000  Uiso   1.00
N43    N     0.07504   0.66229   0.93748   0.00000  Uiso   1.00
N44    N     0.66929   0.29107   0.96147   0.00000  Uiso   1.00
N45    N     0.61366   0.66926   0.60687   0.00000  Uiso   1.00
N46    N     0.11809   0.59142   0.12942   0.00000  Uiso   1.00
C47    C     0.24647   0.40567   0.52370   0.00000  Uiso   1.00
C48    C     0.27102   0.48704   0.50054   0.00000  Uiso   1.00
C49    C     0.31565   0.51597   0.37417   0.00000  Uiso   1.00
C50    C     0.33184   0.59187   0.37473   0.00000  Uiso   1.00
C51    C     0.37418   0.71132   0.32017   0.00000  Uiso   1.00
C52    C     0.28636   0.38281   0.67842   0.00000  Uiso   1.00
C53    C     0.34389   0.32411   0.70160   0.00000  Uiso   1.00
C54    C     0.37298   0.31226   0.85191   0.00000  Uiso   1.00
C55    C     0.43909   0.26987   0.07352   0.00000  Uiso   1.00
C56    C     0.14735   0.40428   0.54682   0.00000  Uiso   1.00
C57    C     0.08798   0.36360   0.45938   0.00000  Uiso   1.00
C58    C     0.00002   0.36982   0.49891   0.00000  Uiso   1.00
C59    C     0.85029   0.36075   0.51618   0.00000  Uiso   1.00
C60    C     0.19585   0.48901   0.74942   0.00000  Uiso   1.00
C61    C     0.24352   0.53230   0.62315   0.00000  Uiso   1.00
C62    C     0.25964   0.60818   0.62391   0.00000  Uiso   1.00
C63    C     0.30429   0.63722   0.49755   0.00000  Uiso   1.00
C64    C     0.25887   0.42808   0.80102   0.00000  Uiso   1.00
C65    C     0.28788   0.41631   0.95134   0.00000  Uiso   1.00
C66    C     0.34543   0.35761   0.97474   0.00000  Uiso   1.00
C67    C     0.11985   0.44954   0.66942   0.00000  Uiso   1.00
C68    C     0.03197   0.45581   0.70911   0.00000  Uiso   1.00
C69    C     0.97248   0.41516   0.62174   0.00000  Uiso   1.00
H70    H     0.26788   0.37043   0.42825   0.00000  Uiso   1.00
H71    H     0.33693   0.48092   0.27932   0.00000  Uiso   1.00
H72    H     0.36515   0.28908   0.60671   0.00000  Uiso   1.00
H73    H     0.10928   0.32858   0.36451   0.00000  Uiso   1.00
H74    H     0.40138   0.62338   0.16830   0.00000  Uiso   1.00
H75    H     0.46086   0.21887   0.85861   0.00000  Uiso   1.00
H76    H     0.92131   0.30215   0.34790   0.00000  Uiso   1.00
H77    H     0.17444   0.52425   0.84488   0.00000  Uiso   1.00
H78    H     0.23836   0.64319   0.71880   0.00000  Uiso   1.00
H79    H     0.26658   0.45135   0.04619   0.00000  Uiso   1.00
H80    H     0.01071   0.49085   0.80399   0.00000  Uiso   1.00
H81    H     0.32138   0.75509   0.52500   0.00000  Uiso   1.00
H82    H     0.38086   0.35057   0.21531   0.00000  Uiso   1.00
H83    H     0.84131   0.43385   0.70460   0.00000  Uiso   1.00
O84    O     0.40514   0.76470   0.25622   0.00000  Uiso   1.00
O85    O     0.48316   0.23398   0.16188   0.00000  Uiso   1.00
O86    O     0.77529   0.34325   0.49183   0.00000  Uiso   1.00
N87    N     0.37376   0.63806   0.26953   0.00000  Uiso   1.00
N88    N     0.42939   0.25987   0.91493   0.00000  Uiso   1.00
N89    N     0.92496   0.33771   0.43748   0.00000  Uiso   1.00
N90    N     0.33071   0.70893   0.46147   0.00000  Uiso   1.00
N91    N     0.38634   0.33074   0.10687   0.00000  Uiso   1.00
N92    N     0.88191   0.40858   0.62942   0.00000  Uiso   1.00
C93    C     0.25353   0.90567   0.02370   0.00000  Uiso   1.00
C94    C     0.22898   0.98704   0.00054   0.00000  Uiso   1.00
C95    C     0.18435   0.01597   0.87417   0.00000  Uiso   1.00
C96    C     0.16816   0.09187   0.87473   0.00000  Uiso   1.00
C97    C     0.12582   0.21132   0.82017   0.00000  Uiso   1.00
C98    C     0.21364   0.88281   0.17842   0.00000  Uiso   1.00
C99    C     0.15611   0.82411   0.20160   0.00000  Uiso   1.00
C100   C     0.12702   0.81226   0.35191   0.00000  Uiso   1.00
C101   C     0.06091   0.76987   0.57352   0.00000  Uiso   1.00
C102   C     0.35265   0.90428   0.04682   0.00000  Uiso   1.00
C103   C     0.41202   0.86360   0.95938   0.00000  Uiso   1.00
C104   C     0.49998   0.86982   0.99891   0.00000  Uiso   1.00
C105   C     0.64971   0.86075   0.01618   0.00000  Uiso   1.00
C106   C     0.30415   0.98901   0.24942   0.00000  Uiso   1.00
C107   C     0.25648   0.03230   0.12315   0.00000  Uiso   1.00
C108   C     0.24036   0.10818   0.12391   0.00000  Uiso   1.00
C109   C     0.19571   0.13722   0.99755   0.00000  Uiso   1.00
C110   C     0.24113   0.92808   0.30102   0.00000  Uiso   1.00
C111   C     0.21212   0.91631   0.45134   0.00000  Uiso   1.00
C112   C     0.15457   0.85761   0.47474   0.00000  Uiso   1.00
C113   C     0.38015   0.94954   0.16942   0.00000  Uiso   1.00
C114   C     0.46803   0.95581   0.20911   0.00000  Uiso   1.00
C115   C     0.52752   0.91517   0.12174   0.00000  Uiso   1.00
H116   H     0.23212   0.87043   0.92825   0.00000  Uiso   1.00
H117   H     0.16307   0.98092   0.77932   0.00000  Uiso   1.00
H118   H     0.13485   0.78908   0.10671   0.00000  Uiso   1.00
H119   H     0.39072   0.82858   0.86451   0.00000  Uiso   1.00
H120   H     0.09862   0.12338   0.66830   0.00000  Uiso   1.00
H121   H     0.03914   0.71887   0.35861   0.00000  Uiso   1.00
H122   H     0.57869   0.80215   0.84790   0.00000  Uiso   1.00
H123   H     0.32556   0.02425   0.34488   0.00000  Uiso   1.00
H124   H     0.26164   0.14319   0.21880   0.00000  Uiso   1.00
H125   H     0.23342   0.95135   0.54619   0.00000  Uiso   1.00
H126   H     0.48929   0.99085   0.30399   0.00000  Uiso   1.00
H127   H     0.17862   0.25509   0.02500   0.00000  Uiso   1.00
H128   H     0.11914   0.85057   0.71531   0.00000  Uiso   1.00
H129   H     0.65869   0.93385   0.20460   0.00000  Uiso   1.00
O130   O     0.09486   0.26470   0.75622   0.00000  Uiso   1.00
O131   O     0.01684   0.73398   0.66188   0.00000  Uiso   1.00
O132   O     0.72471   0.84325   0.99183   0.00000  Uiso   1.00
N133   N     0.12624   0.13806   0.76953   0.00000  Uiso   1.00
N134   N     0.07061   0.75987   0.41493   0.00000  Uiso   1.00
N135   N     0.57504   0.83771   0.93748   0.00000  Uiso   1.00
N136   N     0.16929   0.20893   0.96147   0.00000  Uiso   1.00
N137   N     0.11366   0.83074   0.60687   0.00000  Uiso   1.00
N138   N     0.61809   0.90858   0.12942   0.00000  Uiso   1.00
C139   C     0.74647   0.09433   0.52370   0.00000  Uiso   1.00
C140   C     0.77102   0.01296   0.50054   0.00000  Uiso   1.00
C141   C     0.81565   0.98403   0.37417   0.00000  Uiso   1.00
C142   C     0.83184   0.90813   0.37473   0.00000  Uiso   1.00
C143   C     0.87418   0.78868   0.32017   0.00000  Uiso   1.00
C144   C     0.78636   0.11719   0.67842   0.00000  Uiso   1.00
C145   C     0.84389   0.17589   0.70160   0.00000  Uiso   1.00
C146   C     0.87298   0.18774   0.85191   0.00000  Uiso   1.00
C147   C     0.93909   0.23013   0.07352   0.00000  Uiso   1.00
C148   C     0.64735   0.09572   0.54682   0.00000  Uiso   1.00
C149   C     0.58798   0.13640   0.45938   0.00000  Uiso   1.00
C150   C     0.50002   0.13018   0.49891   0.00000  Uiso   1.00
C151   C     0.35029   0.13925   0.51618   0.00000  Uiso   1.00
C152   C     0.69585   0.01099   0.74942   0.00000  Uiso   1.00
C153   C     0.74352   0.96770   0.62315   0.00000  Uiso   1.00
C154   C     0.75964   0.89182   0.62391   0.00000  Uiso   1.00
C155   C     0.80429   0.86278   0.49755   0.00000  Uiso   1.00
C156   C     0.75887   0.07192   0.80102   0.00000  Uiso   1.00
C157   C     0.78788   0.08369   0.95134   0.00000  Uiso   1.00
C158   C     0.84543   0.14239   0.97474   0.00000  Uiso   1.00
C159   C     0.61985   0.05046   0.66942   0.00000  Uiso   1.00
C160   C     0.53197   0.04419   0.70911   0.00000  Uiso   1.00
C161   C     0.47248   0.08484   0.62174   0.00000  Uiso   1.00
H162   H     0.76788   0.12957   0.42825   0.00000  Uiso   1.00
H163   H     0.83693   0.01908   0.27932   0.00000  Uiso   1.00
H164   H     0.86515   0.21092   0.60671   0.00000  Uiso   1.00
H165   H     0.60928   0.17142   0.36451   0.00000  Uiso   1.00
H166   H     0.90138   0.87662   0.16830   0.00000  Uiso   1.00
H167   H     0.96086   0.28113   0.85861   0.00000  Uiso   1.00
H168   H     0.42131   0.19785   0.34790   0.00000  Uiso   1.00
H169   H     0.67444   0.97575   0.84488   0.00000  Uiso   1.00
H170   H     0.73836   0.85681   0.71880   0.00000  Uiso   1.00
H171   H     0.76658   0.04865   0.04619   0.00000  Uiso   1.00
H172   H     0.51071   0.00915   0.80399   0.00000  Uiso   1.00
H173   H     0.82138   0.74491   0.52500   0.00000  Uiso   1.00
H174   H     0.88086   0.14943   0.21531   0.00000  Uiso   1.00
H175   H     0.34131   0.06615   0.70460   0.00000  Uiso   1.00
O176   O     0.90514   0.73530   0.25622   0.00000  Uiso   1.00
O177   O     0.98316   0.26602   0.16188   0.00000  Uiso   1.00
O178   O     0.27529   0.15675   0.49183   0.00000  Uiso   1.00
N179   N     0.87376   0.86194   0.26953   0.00000  Uiso   1.00
N180   N     0.92939   0.24013   0.91493   0.00000  Uiso   1.00
N181   N     0.42496   0.16229   0.43748   0.00000  Uiso   1.00
N182   N     0.83071   0.79107   0.46147   0.00000  Uiso   1.00
N183   N     0.88634   0.16926   0.10687   0.00000  Uiso   1.00
N184   N     0.38191   0.09142   0.62942   0.00000  Uiso   1.00
