data_job_05151
_audit_creation_date              2018-12-19
_audit_creation_method            'Materials Studio'
_symmetry_space_group_name_H-M    'P1'
_symmetry_Int_Tables_number       1
_symmetry_cell_setting            triclinic
loop_
_symmetry_equiv_pos_as_xyz
  x,y,z
_cell_length_a                    12.4461
_cell_length_b                    22.2564
_cell_length_c                    26.7063
_cell_angle_alpha                 90.0000
_cell_angle_beta                  90.0000
_cell_angle_gamma                 90.0000
loop_
_atom_site_label
_atom_site_type_symbol
_atom_site_fract_x
_atom_site_fract_y
_atom_site_fract_z
_atom_site_U_iso_or_equiv
_atom_site_adp_type
_atom_site_occupancy
C1     C     0.28342   0.35241   0.05777   0.00000  Uiso   1.00
C2     C     0.17835   0.32163   0.07209   0.00000  Uiso   1.00
C3     C     0.11720   0.28508   0.04111   0.00000  Uiso   1.00
C4     C     0.02364   0.26119   0.06124   0.00000  Uiso   1.00
C5     C     0.86521   0.21156   0.07597   0.00000  Uiso   1.00
C6     C     0.26625   0.41927   0.06732   0.00000  Uiso   1.00
C7     C     0.27902   0.46481   0.03232   0.00000  Uiso   1.00
C8     C     0.25947   0.52311   0.04842   0.00000  Uiso   1.00
C9     C     0.23759   0.62508   0.05575   0.00000  Uiso   1.00
C10    C     0.36631   0.33178   0.09614   0.00000  Uiso   1.00
C11    C     0.46322   0.30377   0.08538   0.00000  Uiso   1.00
C12    C     0.52792   0.28842   0.12575   0.00000  Uiso   1.00
C13    C     0.66139   0.25454   0.17783   0.00000  Uiso   1.00
C14    C     0.22602   0.37497   0.14861   0.00000  Uiso   1.00
C15    C     0.14718   0.33389   0.12143   0.00000  Uiso   1.00
C16    C     0.05369   0.31004   0.14161   0.00000  Uiso   1.00
C17    C     0.99240   0.27346   0.11066   0.00000  Uiso   1.00
C18    C     0.23508   0.43153   0.11665   0.00000  Uiso   1.00
C19    C     0.21551   0.48977   0.13282   0.00000  Uiso   1.00
C20    C     0.22823   0.53539   0.09785   0.00000  Uiso   1.00
C21    C     0.33513   0.34403   0.14548   0.00000  Uiso   1.00
C22    C     0.39970   0.32873   0.18588   0.00000  Uiso   1.00
C23    C     0.49669   0.30070   0.17518   0.00000  Uiso   1.00
H24    H     0.30769   0.34287   0.01936   0.00000  Uiso   1.00
H25    H     0.14135   0.27561   0.00293   0.00000  Uiso   1.00
H26    H     0.30316   0.45531   0.99414   0.00000  Uiso   1.00
H27    H     0.48732   0.29429   0.04719   0.00000  Uiso   1.00
H28    H     0.94315   0.20647   0.00647   0.00000  Uiso   1.00
H29    H     0.28437   0.58538   0.98794   0.00000  Uiso   1.00
H30    H     0.67272   0.24584   0.09981   0.00000  Uiso   1.00
H31    H     0.20175   0.38451   0.18702   0.00000  Uiso   1.00
H32    H     0.02958   0.31954   0.17979   0.00000  Uiso   1.00
H33    H     0.19139   0.49924   0.17100   0.00000  Uiso   1.00
H34    H     0.37555   0.33822   0.22405   0.00000  Uiso   1.00
H35    H     0.85243   0.24212   0.15002   0.00000  Uiso   1.00
H36    H     0.19366   0.62103   0.13149   0.00000  Uiso   1.00
H37    H     0.58200   0.28149   0.24336   0.00000  Uiso   1.00
O38    O     0.78643   0.18082   0.07046   0.00000  Uiso   1.00
O39    O     0.23412   0.67793   0.04615   0.00000  Uiso   1.00
O40    O     0.74362   0.23246   0.19292   0.00000  Uiso   1.00
N41    N     0.94544   0.22377   0.04125   0.00000  Uiso   1.00
N42    N     0.26444   0.57802   0.02392   0.00000  Uiso   1.00
N43    N     0.62753   0.26060   0.12851   0.00000  Uiso   1.00
N44    N     0.89663   0.24295   0.11849   0.00000  Uiso   1.00
N45    N     0.21563   0.59721   0.10117   0.00000  Uiso   1.00
N46    N     0.57872   0.27978   0.20575   0.00000  Uiso   1.00
C47    C     0.90766   0.85207   0.93864   0.00000  Uiso   1.00
C48    C     0.01288   0.82145   0.92434   0.00000  Uiso   1.00
C49    C     0.07424   0.78504   0.95535   0.00000  Uiso   1.00
C50    C     0.16791   0.76127   0.93524   0.00000  Uiso   1.00
C51    C     0.32659   0.71189   0.92054   0.00000  Uiso   1.00
C52    C     0.92448   0.91896   0.92903   0.00000  Uiso   1.00
C53    C     0.91148   0.96452   0.96399   0.00000  Uiso   1.00
C54    C     0.93073   0.02283   0.94784   0.00000  Uiso   1.00
C55    C     0.95208   0.12482   0.94042   0.00000  Uiso   1.00
C56    C     0.82487   0.83127   0.90029   0.00000  Uiso   1.00
C57    C     0.72811   0.80311   0.91109   0.00000  Uiso   1.00
C58    C     0.66347   0.78760   0.87073   0.00000  Uiso   1.00
C59    C     0.53017   0.75344   0.81869   0.00000  Uiso   1.00
C60    C     0.96492   0.87462   0.84778   0.00000  Uiso   1.00
C61    C     0.04398   0.83370   0.87499   0.00000  Uiso   1.00
C62    C     0.13759   0.80998   0.85482   0.00000  Uiso   1.00
C63    C     0.19907   0.77353   0.88580   0.00000  Uiso   1.00
C64    C     0.95558   0.93120   0.87968   0.00000  Uiso   1.00
C65    C     0.97484   0.98946   0.86347   0.00000  Uiso   1.00
C66    C     0.96189   0.03509   0.89840   0.00000  Uiso   1.00
C67    C     0.85597   0.84351   0.85094   0.00000  Uiso   1.00
C68    C     0.79147   0.82805   0.81056   0.00000  Uiso   1.00
C69    C     0.69463   0.79987   0.82129   0.00000  Uiso   1.00
H70    H     0.88345   0.84255   0.97706   0.00000  Uiso   1.00
H71    H     0.05014   0.77558   0.99354   0.00000  Uiso   1.00
H72    H     0.88741   0.95503   0.00218   0.00000  Uiso   1.00
H73    H     0.70407   0.79364   0.94928   0.00000  Uiso   1.00
H74    H     0.24870   0.70675   0.99005   0.00000  Uiso   1.00
H75    H     0.90552   0.08513   0.00827   0.00000  Uiso   1.00
H76    H     0.51891   0.74482   0.89671   0.00000  Uiso   1.00
H77    H     0.98914   0.88415   0.80936   0.00000  Uiso   1.00
H78    H     0.16164   0.81946   0.81663   0.00000  Uiso   1.00
H79    H     0.99890   0.99891   0.82527   0.00000  Uiso   1.00
H80    H     0.81556   0.83753   0.77237   0.00000  Uiso   1.00
H81    H     0.33919   0.74237   0.84646   0.00000  Uiso   1.00
H82    H     0.99601   0.12075   0.86468   0.00000  Uiso   1.00
H83    H     0.60940   0.78044   0.75313   0.00000  Uiso   1.00
O84    O     0.40553   0.68128   0.92607   0.00000  Uiso   1.00
O85    O     0.95528   0.17769   0.94997   0.00000  Uiso   1.00
O86    O     0.44806   0.73121   0.80362   0.00000  Uiso   1.00
N87    N     0.24631   0.72400   0.95526   0.00000  Uiso   1.00
N88    N     0.92548   0.07776   0.97229   0.00000  Uiso   1.00
N89    N     0.56401   0.75962   0.86800   0.00000  Uiso   1.00
N90    N     0.29501   0.74317   0.87799   0.00000  Uiso   1.00
N91    N     0.97417   0.09693   0.89503   0.00000  Uiso   1.00
N92    N     0.61271   0.77878   0.79074   0.00000  Uiso   1.00
C93    C     0.71658   0.64759   0.55777   0.00000  Uiso   1.00
C94    C     0.82165   0.67837   0.57209   0.00000  Uiso   1.00
C95    C     0.88280   0.71492   0.54111   0.00000  Uiso   1.00
C96    C     0.97636   0.73881   0.56124   0.00000  Uiso   1.00
C97    C     0.13479   0.78844   0.57597   0.00000  Uiso   1.00
C98    C     0.73375   0.58073   0.56732   0.00000  Uiso   1.00
C99    C     0.72098   0.53519   0.53232   0.00000  Uiso   1.00
C100   C     0.74053   0.47689   0.54842   0.00000  Uiso   1.00
C101   C     0.76241   0.37492   0.55575   0.00000  Uiso   1.00
C102   C     0.63369   0.66822   0.59614   0.00000  Uiso   1.00
C103   C     0.53678   0.69623   0.58538   0.00000  Uiso   1.00
C104   C     0.47208   0.71158   0.62575   0.00000  Uiso   1.00
C105   C     0.33861   0.74546   0.67783   0.00000  Uiso   1.00
C106   C     0.77398   0.62503   0.64861   0.00000  Uiso   1.00
C107   C     0.85282   0.66611   0.62143   0.00000  Uiso   1.00
C108   C     0.94631   0.68996   0.64161   0.00000  Uiso   1.00
C109   C     0.00760   0.72654   0.61066   0.00000  Uiso   1.00
C110   C     0.76492   0.56847   0.61665   0.00000  Uiso   1.00
C111   C     0.78449   0.51023   0.63282   0.00000  Uiso   1.00
C112   C     0.77177   0.46461   0.59785   0.00000  Uiso   1.00
C113   C     0.66487   0.65597   0.64548   0.00000  Uiso   1.00
C114   C     0.60030   0.67127   0.68588   0.00000  Uiso   1.00
C115   C     0.50331   0.69930   0.67518   0.00000  Uiso   1.00
H116   H     0.69231   0.65713   0.51936   0.00000  Uiso   1.00
H117   H     0.85865   0.72439   0.50293   0.00000  Uiso   1.00
H118   H     0.69684   0.54469   0.49414   0.00000  Uiso   1.00
H119   H     0.51268   0.70571   0.54719   0.00000  Uiso   1.00
H120   H     0.05685   0.79353   0.50647   0.00000  Uiso   1.00
H121   H     0.71563   0.41462   0.48794   0.00000  Uiso   1.00
H122   H     0.32728   0.75416   0.59981   0.00000  Uiso   1.00
H123   H     0.79825   0.61549   0.68702   0.00000  Uiso   1.00
H124   H     0.97042   0.68046   0.67979   0.00000  Uiso   1.00
H125   H     0.80861   0.50076   0.67100   0.00000  Uiso   1.00
H126   H     0.62445   0.66178   0.72405   0.00000  Uiso   1.00
H127   H     0.14757   0.75788   0.65002   0.00000  Uiso   1.00
H128   H     0.80634   0.37897   0.63149   0.00000  Uiso   1.00
H129   H     0.41800   0.71851   0.74336   0.00000  Uiso   1.00
O130   O     0.21357   0.81918   0.57046   0.00000  Uiso   1.00
O131   O     0.76588   0.32207   0.54615   0.00000  Uiso   1.00
O132   O     0.25638   0.76754   0.69292   0.00000  Uiso   1.00
N133   N     0.05456   0.77623   0.54125   0.00000  Uiso   1.00
N134   N     0.73556   0.42198   0.52392   0.00000  Uiso   1.00
N135   N     0.37247   0.73940   0.62851   0.00000  Uiso   1.00
N136   N     0.10337   0.75705   0.61849   0.00000  Uiso   1.00
N137   N     0.78437   0.40279   0.60117   0.00000  Uiso   1.00
N138   N     0.42128   0.72022   0.70575   0.00000  Uiso   1.00
C139   C     0.09234   0.14793   0.43864   0.00000  Uiso   1.00
C140   C     0.98712   0.17855   0.42434   0.00000  Uiso   1.00
C141   C     0.92576   0.21496   0.45535   0.00000  Uiso   1.00
C142   C     0.83209   0.23873   0.43524   0.00000  Uiso   1.00
C143   C     0.67341   0.28811   0.42054   0.00000  Uiso   1.00
C144   C     0.07552   0.08104   0.42903   0.00000  Uiso   1.00
C145   C     0.08852   0.03548   0.46399   0.00000  Uiso   1.00
C146   C     0.06927   0.97717   0.44784   0.00000  Uiso   1.00
C147   C     0.04792   0.87518   0.44042   0.00000  Uiso   1.00
C148   C     0.17513   0.16873   0.40029   0.00000  Uiso   1.00
C149   C     0.27189   0.19689   0.41109   0.00000  Uiso   1.00
C150   C     0.33653   0.21240   0.37073   0.00000  Uiso   1.00
C151   C     0.46983   0.24656   0.31869   0.00000  Uiso   1.00
C152   C     0.03508   0.12538   0.34778   0.00000  Uiso   1.00
C153   C     0.95602   0.16630   0.37499   0.00000  Uiso   1.00
C154   C     0.86241   0.19002   0.35482   0.00000  Uiso   1.00
C155   C     0.80093   0.22647   0.38580   0.00000  Uiso   1.00
C156   C     0.04442   0.06880   0.37968   0.00000  Uiso   1.00
C157   C     0.02516   0.01054   0.36347   0.00000  Uiso   1.00
C158   C     0.03811   0.96491   0.39840   0.00000  Uiso   1.00
C159   C     0.14403   0.15649   0.35094   0.00000  Uiso   1.00
C160   C     0.20853   0.17195   0.31056   0.00000  Uiso   1.00
C161   C     0.30537   0.20013   0.32129   0.00000  Uiso   1.00
H162   H     0.11655   0.15745   0.47706   0.00000  Uiso   1.00
H163   H     0.94986   0.22442   0.49354   0.00000  Uiso   1.00
H164   H     0.11259   0.04497   0.50218   0.00000  Uiso   1.00
H165   H     0.29593   0.20636   0.44928   0.00000  Uiso   1.00
H166   H     0.75130   0.29325   0.49005   0.00000  Uiso   1.00
H167   H     0.09448   0.91487   0.50827   0.00000  Uiso   1.00
H168   H     0.48109   0.25518   0.39671   0.00000  Uiso   1.00
H169   H     0.01086   0.11585   0.30936   0.00000  Uiso   1.00
H170   H     0.83836   0.18054   0.31663   0.00000  Uiso   1.00
H171   H     0.00110   0.00109   0.32527   0.00000  Uiso   1.00
H172   H     0.18444   0.16247   0.27237   0.00000  Uiso   1.00
H173   H     0.66081   0.25763   0.34646   0.00000  Uiso   1.00
H174   H     0.00399   0.87925   0.36468   0.00000  Uiso   1.00
H175   H     0.39060   0.21956   0.25313   0.00000  Uiso   1.00
O176   O     0.59447   0.31872   0.42607   0.00000  Uiso   1.00
O177   O     0.04472   0.82231   0.44997   0.00000  Uiso   1.00
O178   O     0.55194   0.26879   0.30362   0.00000  Uiso   1.00
N179   N     0.75369   0.27600   0.45526   0.00000  Uiso   1.00
N180   N     0.07452   0.92224   0.47229   0.00000  Uiso   1.00
N181   N     0.43599   0.24038   0.36800   0.00000  Uiso   1.00
N182   N     0.70499   0.25683   0.37799   0.00000  Uiso   1.00
N183   N     0.02583   0.90307   0.39503   0.00000  Uiso   1.00
N184   N     0.38729   0.22122   0.29074   0.00000  Uiso   1.00
C185   C     0.78342   0.64759   0.05777   0.00000  Uiso   1.00
C186   C     0.67835   0.67837   0.07209   0.00000  Uiso   1.00
C187   C     0.61720   0.71492   0.04111   0.00000  Uiso   1.00
C188   C     0.52364   0.73881   0.06124   0.00000  Uiso   1.00
C189   C     0.36521   0.78844   0.07597   0.00000  Uiso   1.00
C190   C     0.76625   0.58073   0.06732   0.00000  Uiso   1.00
C191   C     0.77902   0.53519   0.03232   0.00000  Uiso   1.00
C192   C     0.75947   0.47689   0.04842   0.00000  Uiso   1.00
C193   C     0.73759   0.37492   0.05575   0.00000  Uiso   1.00
C194   C     0.86631   0.66822   0.09614   0.00000  Uiso   1.00
C195   C     0.96322   0.69623   0.08538   0.00000  Uiso   1.00
C196   C     0.02792   0.71158   0.12575   0.00000  Uiso   1.00
C197   C     0.16139   0.74546   0.17783   0.00000  Uiso   1.00
C198   C     0.72602   0.62503   0.14861   0.00000  Uiso   1.00
C199   C     0.64718   0.66611   0.12143   0.00000  Uiso   1.00
C200   C     0.55369   0.68996   0.14161   0.00000  Uiso   1.00
C201   C     0.49240   0.72654   0.11066   0.00000  Uiso   1.00
C202   C     0.73508   0.56847   0.11665   0.00000  Uiso   1.00
C203   C     0.71551   0.51023   0.13282   0.00000  Uiso   1.00
C204   C     0.72823   0.46461   0.09785   0.00000  Uiso   1.00
C205   C     0.83513   0.65597   0.14548   0.00000  Uiso   1.00
C206   C     0.89970   0.67127   0.18588   0.00000  Uiso   1.00
C207   C     0.99669   0.69930   0.17518   0.00000  Uiso   1.00
H208   H     0.80769   0.65713   0.01936   0.00000  Uiso   1.00
H209   H     0.64135   0.72439   0.00293   0.00000  Uiso   1.00
H210   H     0.80316   0.54469   0.99414   0.00000  Uiso   1.00
H211   H     0.98732   0.70571   0.04719   0.00000  Uiso   1.00
H212   H     0.44315   0.79353   0.00647   0.00000  Uiso   1.00
H213   H     0.78437   0.41462   0.98794   0.00000  Uiso   1.00
H214   H     0.17272   0.75416   0.09981   0.00000  Uiso   1.00
H215   H     0.70175   0.61549   0.18702   0.00000  Uiso   1.00
H216   H     0.52958   0.68046   0.17979   0.00000  Uiso   1.00
H217   H     0.69139   0.50076   0.17100   0.00000  Uiso   1.00
H218   H     0.87555   0.66178   0.22405   0.00000  Uiso   1.00
H219   H     0.35243   0.75788   0.15002   0.00000  Uiso   1.00
H220   H     0.69366   0.37897   0.13149   0.00000  Uiso   1.00
H221   H     0.08200   0.71851   0.24336   0.00000  Uiso   1.00
O222   O     0.28643   0.81918   0.07046   0.00000  Uiso   1.00
O223   O     0.73412   0.32207   0.04615   0.00000  Uiso   1.00
O224   O     0.24362   0.76754   0.19292   0.00000  Uiso   1.00
N225   N     0.44544   0.77623   0.04125   0.00000  Uiso   1.00
N226   N     0.76444   0.42198   0.02392   0.00000  Uiso   1.00
N227   N     0.12753   0.73940   0.12851   0.00000  Uiso   1.00
N228   N     0.39663   0.75705   0.11849   0.00000  Uiso   1.00
N229   N     0.71563   0.40279   0.10117   0.00000  Uiso   1.00
N230   N     0.07872   0.72022   0.20575   0.00000  Uiso   1.00
C231   C     0.40766   0.14793   0.93864   0.00000  Uiso   1.00
C232   C     0.51288   0.17855   0.92434   0.00000  Uiso   1.00
C233   C     0.57424   0.21496   0.95535   0.00000  Uiso   1.00
C234   C     0.66791   0.23873   0.93524   0.00000  Uiso   1.00
C235   C     0.82659   0.28811   0.92054   0.00000  Uiso   1.00
C236   C     0.42448   0.08104   0.92903   0.00000  Uiso   1.00
C237   C     0.41148   0.03548   0.96399   0.00000  Uiso   1.00
C238   C     0.43073   0.97717   0.94784   0.00000  Uiso   1.00
C239   C     0.45208   0.87518   0.94042   0.00000  Uiso   1.00
C240   C     0.32487   0.16873   0.90029   0.00000  Uiso   1.00
C241   C     0.22811   0.19689   0.91109   0.00000  Uiso   1.00
C242   C     0.16347   0.21240   0.87073   0.00000  Uiso   1.00
C243   C     0.03017   0.24656   0.81869   0.00000  Uiso   1.00
C244   C     0.46492   0.12538   0.84778   0.00000  Uiso   1.00
C245   C     0.54398   0.16630   0.87499   0.00000  Uiso   1.00
C246   C     0.63759   0.19002   0.85482   0.00000  Uiso   1.00
C247   C     0.69907   0.22647   0.88580   0.00000  Uiso   1.00
C248   C     0.45558   0.06880   0.87968   0.00000  Uiso   1.00
C249   C     0.47484   0.01054   0.86347   0.00000  Uiso   1.00
C250   C     0.46189   0.96491   0.89840   0.00000  Uiso   1.00
C251   C     0.35597   0.15649   0.85094   0.00000  Uiso   1.00
C252   C     0.29147   0.17195   0.81056   0.00000  Uiso   1.00
C253   C     0.19463   0.20013   0.82129   0.00000  Uiso   1.00
H254   H     0.38345   0.15745   0.97706   0.00000  Uiso   1.00
H255   H     0.55014   0.22442   0.99354   0.00000  Uiso   1.00
H256   H     0.38741   0.04497   0.00218   0.00000  Uiso   1.00
H257   H     0.20407   0.20636   0.94928   0.00000  Uiso   1.00
H258   H     0.74870   0.29325   0.99005   0.00000  Uiso   1.00
H259   H     0.40552   0.91487   0.00827   0.00000  Uiso   1.00
H260   H     0.01891   0.25518   0.89671   0.00000  Uiso   1.00
H261   H     0.48914   0.11585   0.80936   0.00000  Uiso   1.00
H262   H     0.66164   0.18054   0.81663   0.00000  Uiso   1.00
H263   H     0.49890   0.00109   0.82527   0.00000  Uiso   1.00
H264   H     0.31556   0.16247   0.77237   0.00000  Uiso   1.00
H265   H     0.83919   0.25763   0.84646   0.00000  Uiso   1.00
H266   H     0.49601   0.87925   0.86468   0.00000  Uiso   1.00
H267   H     0.10940   0.21956   0.75313   0.00000  Uiso   1.00
O268   O     0.90553   0.31872   0.92607   0.00000  Uiso   1.00
O269   O     0.45528   0.82231   0.94997   0.00000  Uiso   1.00
O270   O     0.94806   0.26879   0.80362   0.00000  Uiso   1.00
N271   N     0.74631   0.27600   0.95526   0.00000  Uiso   1.00
N272   N     0.42548   0.92224   0.97229   0.00000  Uiso   1.00
N273   N     0.06401   0.24038   0.86800   0.00000  Uiso   1.00
N274   N     0.79501   0.25683   0.87799   0.00000  Uiso   1.00
N275   N     0.47417   0.90307   0.89503   0.00000  Uiso   1.00
N276   N     0.11271   0.22122   0.79074   0.00000  Uiso   1.00
C277   C     0.21658   0.35241   0.55777   0.00000  Uiso   1.00
C278   C     0.32165   0.32163   0.57209   0.00000  Uiso   1.00
C279   C     0.38280   0.28508   0.54111   0.00000  Uiso   1.00
C280   C     0.47636   0.26119   0.56124   0.00000  Uiso   1.00
C281   C     0.63479   0.21156   0.57597   0.00000  Uiso   1.00
C282   C     0.23375   0.41927   0.56732   0.00000  Uiso   1.00
C283   C     0.22098   0.46481   0.53232   0.00000  Uiso   1.00
C284   C     0.24053   0.52311   0.54842   0.00000  Uiso   1.00
C285   C     0.26241   0.62508   0.55575   0.00000  Uiso   1.00
C286   C     0.13369   0.33178   0.59614   0.00000  Uiso   1.00
C287   C     0.03678   0.30377   0.58538   0.00000  Uiso   1.00
C288   C     0.97208   0.28842   0.62575   0.00000  Uiso   1.00
C289   C     0.83861   0.25454   0.67783   0.00000  Uiso   1.00
C290   C     0.27398   0.37497   0.64861   0.00000  Uiso   1.00
C291   C     0.35282   0.33389   0.62143   0.00000  Uiso   1.00
C292   C     0.44631   0.31004   0.64161   0.00000  Uiso   1.00
C293   C     0.50760   0.27346   0.61066   0.00000  Uiso   1.00
C294   C     0.26492   0.43153   0.61665   0.00000  Uiso   1.00
C295   C     0.28449   0.48977   0.63282   0.00000  Uiso   1.00
C296   C     0.27177   0.53539   0.59785   0.00000  Uiso   1.00
C297   C     0.16487   0.34403   0.64548   0.00000  Uiso   1.00
C298   C     0.10030   0.32873   0.68588   0.00000  Uiso   1.00
C299   C     0.00331   0.30070   0.67518   0.00000  Uiso   1.00
H300   H     0.19231   0.34287   0.51936   0.00000  Uiso   1.00
H301   H     0.35865   0.27561   0.50293   0.00000  Uiso   1.00
H302   H     0.19684   0.45531   0.49414   0.00000  Uiso   1.00
H303   H     0.01268   0.29429   0.54719   0.00000  Uiso   1.00
H304   H     0.55685   0.20647   0.50647   0.00000  Uiso   1.00
H305   H     0.21563   0.58538   0.48794   0.00000  Uiso   1.00
H306   H     0.82728   0.24584   0.59981   0.00000  Uiso   1.00
H307   H     0.29825   0.38451   0.68702   0.00000  Uiso   1.00
H308   H     0.47042   0.31954   0.67979   0.00000  Uiso   1.00
H309   H     0.30861   0.49924   0.67100   0.00000  Uiso   1.00
H310   H     0.12445   0.33822   0.72405   0.00000  Uiso   1.00
H311   H     0.64757   0.24212   0.65002   0.00000  Uiso   1.00
H312   H     0.30634   0.62103   0.63149   0.00000  Uiso   1.00
H313   H     0.91800   0.28149   0.74336   0.00000  Uiso   1.00
O314   O     0.71357   0.18082   0.57046   0.00000  Uiso   1.00
O315   O     0.26588   0.67793   0.54615   0.00000  Uiso   1.00
O316   O     0.75638   0.23246   0.69292   0.00000  Uiso   1.00
N317   N     0.55456   0.22377   0.54125   0.00000  Uiso   1.00
N318   N     0.23556   0.57802   0.52392   0.00000  Uiso   1.00
N319   N     0.87247   0.26060   0.62851   0.00000  Uiso   1.00
N320   N     0.60337   0.24295   0.61849   0.00000  Uiso   1.00
N321   N     0.28437   0.59721   0.60117   0.00000  Uiso   1.00
N322   N     0.92128   0.27978   0.70575   0.00000  Uiso   1.00
C323   C     0.59234   0.85207   0.43864   0.00000  Uiso   1.00
C324   C     0.48712   0.82145   0.42434   0.00000  Uiso   1.00
C325   C     0.42576   0.78504   0.45535   0.00000  Uiso   1.00
C326   C     0.33209   0.76127   0.43524   0.00000  Uiso   1.00
C327   C     0.17341   0.71189   0.42054   0.00000  Uiso   1.00
C328   C     0.57552   0.91896   0.42903   0.00000  Uiso   1.00
C329   C     0.58852   0.96452   0.46399   0.00000  Uiso   1.00
C330   C     0.56927   0.02283   0.44784   0.00000  Uiso   1.00
C331   C     0.54792   0.12482   0.44042   0.00000  Uiso   1.00
C332   C     0.67513   0.83127   0.40029   0.00000  Uiso   1.00
C333   C     0.77189   0.80311   0.41109   0.00000  Uiso   1.00
C334   C     0.83653   0.78760   0.37073   0.00000  Uiso   1.00
C335   C     0.96983   0.75344   0.31869   0.00000  Uiso   1.00
C336   C     0.53508   0.87462   0.34778   0.00000  Uiso   1.00
C337   C     0.45602   0.83370   0.37499   0.00000  Uiso   1.00
C338   C     0.36241   0.80998   0.35482   0.00000  Uiso   1.00
C339   C     0.30093   0.77353   0.38580   0.00000  Uiso   1.00
C340   C     0.54442   0.93120   0.37968   0.00000  Uiso   1.00
C341   C     0.52516   0.98946   0.36347   0.00000  Uiso   1.00
C342   C     0.53811   0.03509   0.39840   0.00000  Uiso   1.00
C343   C     0.64403   0.84351   0.35094   0.00000  Uiso   1.00
C344   C     0.70853   0.82805   0.31056   0.00000  Uiso   1.00
C345   C     0.80537   0.79987   0.32129   0.00000  Uiso   1.00
H346   H     0.61655   0.84255   0.47706   0.00000  Uiso   1.00
H347   H     0.44986   0.77558   0.49354   0.00000  Uiso   1.00
H348   H     0.61259   0.95503   0.50218   0.00000  Uiso   1.00
H349   H     0.79593   0.79364   0.44928   0.00000  Uiso   1.00
H350   H     0.25130   0.70675   0.49005   0.00000  Uiso   1.00
H351   H     0.59448   0.08513   0.50827   0.00000  Uiso   1.00
H352   H     0.98109   0.74482   0.39671   0.00000  Uiso   1.00
H353   H     0.51086   0.88415   0.30936   0.00000  Uiso   1.00
H354   H     0.33836   0.81946   0.31663   0.00000  Uiso   1.00
H355   H     0.50110   0.99891   0.32527   0.00000  Uiso   1.00
H356   H     0.68444   0.83753   0.27237   0.00000  Uiso   1.00
H357   H     0.16081   0.74237   0.34646   0.00000  Uiso   1.00
H358   H     0.50399   0.12075   0.36468   0.00000  Uiso   1.00
H359   H     0.89060   0.78044   0.25313   0.00000  Uiso   1.00
O360   O     0.09447   0.68128   0.42607   0.00000  Uiso   1.00
O361   O     0.54472   0.17769   0.44997   0.00000  Uiso   1.00
O362   O     0.05194   0.73121   0.30362   0.00000  Uiso   1.00
N363   N     0.25369   0.72400   0.45526   0.00000  Uiso   1.00
N364   N     0.57452   0.07776   0.47229   0.00000  Uiso   1.00
N365   N     0.93599   0.75962   0.36800   0.00000  Uiso   1.00
N366   N     0.20499   0.74317   0.37799   0.00000  Uiso   1.00
N367   N     0.52583   0.09693   0.39503   0.00000  Uiso   1.00
N368   N     0.88729   0.77878   0.29074   0.00000  Uiso   1.00
