data_job_05192
_audit_creation_date              2018-12-19
_audit_creation_method            'Materials Studio'
_symmetry_space_group_name_H-M    'P1'
_symmetry_Int_Tables_number       1
_symmetry_cell_setting            triclinic
loop_
_symmetry_equiv_pos_as_xyz
  x,y,z
_cell_length_a                    20.1557
_cell_length_b                    12.3928
_cell_length_c                    9.5369
_cell_angle_alpha                 90.0000
_cell_angle_beta                  90.0000
_cell_angle_gamma                 90.0000
loop_
_atom_site_label
_atom_site_type_symbol
_atom_site_fract_x
_atom_site_fract_y
_atom_site_fract_z
_atom_site_U_iso_or_equiv
_atom_site_adp_type
_atom_site_occupancy
C1     C     0.81162   0.25549   0.26938   0.00000  Uiso   1.00
C2     C     0.80382   0.15268   0.35569   0.00000  Uiso   1.00
C3     C     0.74596   0.09294   0.36964   0.00000  Uiso   1.00
C4     C     0.74901   0.00140   0.45332   0.00000  Uiso   1.00
C5     C     0.72795   0.84646   0.57717   0.00000  Uiso   1.00
C6     C     0.83714   0.34132   0.37047   0.00000  Uiso   1.00
C7     C     0.80729   0.44018   0.39682   0.00000  Uiso   1.00
C8     C     0.83839   0.50743   0.49293   0.00000  Uiso   1.00
C9     C     0.86908   0.64538   0.63964   0.00000  Uiso   1.00
C10    C     0.86812   0.23386   0.16682   0.00000  Uiso   1.00
C11    C     0.86433   0.24240   0.02195   0.00000  Uiso   1.00
C12    C     0.92152   0.21921   0.94660   0.00000  Uiso   1.00
C13    C     0.00031   0.19031   0.77712   0.00000  Uiso   1.00
C14    C     0.91993   0.19915   0.39318   0.00000  Uiso   1.00
C15    C     0.86265   0.12209   0.42294   0.00000  Uiso   1.00
C16    C     0.86580   0.03061   0.50661   0.00000  Uiso   1.00
C17    C     0.80795   0.97074   0.52068   0.00000  Uiso   1.00
C18    C     0.89597   0.31072   0.43771   0.00000  Uiso   1.00
C19    C     0.92713   0.37785   0.53380   0.00000  Uiso   1.00
C20    C     0.89733   0.47678   0.56029   0.00000  Uiso   1.00
C21    C     0.92695   0.20326   0.23407   0.00000  Uiso   1.00
C22    C     0.98416   0.18006   0.15893   0.00000  Uiso   1.00
C23    C     0.98046   0.18856   0.01397   0.00000  Uiso   1.00
H24    H     0.76582   0.27932   0.21703   0.00000  Uiso   1.00
H25    H     0.70044   0.11666   0.31759   0.00000  Uiso   1.00
H26    H     0.76177   0.46384   0.34475   0.00000  Uiso   1.00
H27    H     0.81879   0.26609   0.96995   0.00000  Uiso   1.00
H28    H     0.65390   0.92285   0.45878   0.00000  Uiso   1.00
H29    H     0.78322   0.65492   0.51602   0.00000  Uiso   1.00
H30    H     0.90347   0.23792   0.72566   0.00000  Uiso   1.00
H31    H     0.96574   0.17533   0.44554   0.00000  Uiso   1.00
H32    H     0.91133   0.00695   0.55864   0.00000  Uiso   1.00
H33    H     0.97265   0.35414   0.58581   0.00000  Uiso   1.00
H34    H     0.02968   0.15638   0.21100   0.00000  Uiso   1.00
H35    H     0.82506   0.83381   0.65443   0.00000  Uiso   1.00
H36    H     0.95438   0.56588   0.71167   0.00000  Uiso   1.00
H37    H     0.07463   0.14887   0.92131   0.00000  Uiso   1.00
O38    O     0.70008   0.76946   0.62693   0.00000  Uiso   1.00
O39    O     0.86975   0.72992   0.70200   0.00000  Uiso   1.00
O40    O     0.02751   0.18281   0.66507   0.00000  Uiso   1.00
N41    N     0.70165   0.92499   0.48928   0.00000  Uiso   1.00
N42    N     0.82255   0.60942   0.54282   0.00000  Uiso   1.00
N43    N     0.93498   0.21959   0.80390   0.00000  Uiso   1.00
N44    N     0.79375   0.87707   0.59456   0.00000  Uiso   1.00
N45    N     0.91466   0.56151   0.64810   0.00000  Uiso   1.00
N46    N     0.02708   0.17167   0.90917   0.00000  Uiso   1.00
C47    C     0.18838   0.74451   0.76938   0.00000  Uiso   1.00
C48    C     0.19618   0.84732   0.85569   0.00000  Uiso   1.00
C49    C     0.25404   0.90706   0.86964   0.00000  Uiso   1.00
C50    C     0.25099   0.99860   0.95332   0.00000  Uiso   1.00
C51    C     0.27205   0.15354   0.07717   0.00000  Uiso   1.00
C52    C     0.16286   0.65868   0.87047   0.00000  Uiso   1.00
C53    C     0.19271   0.55982   0.89682   0.00000  Uiso   1.00
C54    C     0.16161   0.49257   0.99293   0.00000  Uiso   1.00
C55    C     0.13092   0.35462   0.13964   0.00000  Uiso   1.00
C56    C     0.13188   0.76614   0.66682   0.00000  Uiso   1.00
C57    C     0.13567   0.75760   0.52195   0.00000  Uiso   1.00
C58    C     0.07848   0.78079   0.44660   0.00000  Uiso   1.00
C59    C     0.99969   0.80969   0.27712   0.00000  Uiso   1.00
C60    C     0.08007   0.80085   0.89318   0.00000  Uiso   1.00
C61    C     0.13735   0.87791   0.92294   0.00000  Uiso   1.00
C62    C     0.13420   0.96939   0.00661   0.00000  Uiso   1.00
C63    C     0.19205   0.02926   0.02068   0.00000  Uiso   1.00
C64    C     0.10403   0.68928   0.93771   0.00000  Uiso   1.00
C65    C     0.07287   0.62215   0.03380   0.00000  Uiso   1.00
C66    C     0.10267   0.52322   0.06029   0.00000  Uiso   1.00
C67    C     0.07305   0.79674   0.73407   0.00000  Uiso   1.00
C68    C     0.01584   0.81994   0.65893   0.00000  Uiso   1.00
C69    C     0.01954   0.81144   0.51397   0.00000  Uiso   1.00
H70    H     0.23418   0.72068   0.71703   0.00000  Uiso   1.00
H71    H     0.29956   0.88334   0.81759   0.00000  Uiso   1.00
H72    H     0.23823   0.53616   0.84475   0.00000  Uiso   1.00
H73    H     0.18121   0.73391   0.46995   0.00000  Uiso   1.00
H74    H     0.34610   0.07715   0.95878   0.00000  Uiso   1.00
H75    H     0.21678   0.34508   0.01602   0.00000  Uiso   1.00
H76    H     0.09653   0.76208   0.22566   0.00000  Uiso   1.00
H77    H     0.03426   0.82467   0.94554   0.00000  Uiso   1.00
H78    H     0.08867   0.99305   0.05864   0.00000  Uiso   1.00
H79    H     0.02735   0.64586   0.08581   0.00000  Uiso   1.00
H80    H     0.97032   0.84362   0.71100   0.00000  Uiso   1.00
H81    H     0.17494   0.16619   0.15443   0.00000  Uiso   1.00
H82    H     0.04562   0.43412   0.21167   0.00000  Uiso   1.00
H83    H     0.92537   0.85113   0.42131   0.00000  Uiso   1.00
O84    O     0.29992   0.23054   0.12693   0.00000  Uiso   1.00
O85    O     0.13025   0.27008   0.20200   0.00000  Uiso   1.00
O86    O     0.97249   0.81719   0.16507   0.00000  Uiso   1.00
N87    N     0.29835   0.07501   0.98928   0.00000  Uiso   1.00
N88    N     0.17745   0.39058   0.04282   0.00000  Uiso   1.00
N89    N     0.06502   0.78041   0.30390   0.00000  Uiso   1.00
N90    N     0.20625   0.12293   0.09456   0.00000  Uiso   1.00
N91    N     0.08534   0.43849   0.14810   0.00000  Uiso   1.00
N92    N     0.97292   0.82833   0.40917   0.00000  Uiso   1.00
C93    C     0.31162   0.74451   0.26938   0.00000  Uiso   1.00
C94    C     0.30382   0.84732   0.35569   0.00000  Uiso   1.00
C95    C     0.24596   0.90706   0.36964   0.00000  Uiso   1.00
C96    C     0.24901   0.99860   0.45332   0.00000  Uiso   1.00
C97    C     0.22795   0.15354   0.57717   0.00000  Uiso   1.00
C98    C     0.33714   0.65868   0.37047   0.00000  Uiso   1.00
C99    C     0.30729   0.55982   0.39682   0.00000  Uiso   1.00
C100   C     0.33839   0.49257   0.49293   0.00000  Uiso   1.00
C101   C     0.36908   0.35462   0.63964   0.00000  Uiso   1.00
C102   C     0.36812   0.76614   0.16682   0.00000  Uiso   1.00
C103   C     0.36433   0.75760   0.02195   0.00000  Uiso   1.00
C104   C     0.42152   0.78079   0.94660   0.00000  Uiso   1.00
C105   C     0.50031   0.80969   0.77712   0.00000  Uiso   1.00
C106   C     0.41993   0.80085   0.39318   0.00000  Uiso   1.00
C107   C     0.36265   0.87791   0.42294   0.00000  Uiso   1.00
C108   C     0.36580   0.96939   0.50661   0.00000  Uiso   1.00
C109   C     0.30795   0.02926   0.52068   0.00000  Uiso   1.00
C110   C     0.39597   0.68928   0.43771   0.00000  Uiso   1.00
C111   C     0.42713   0.62215   0.53380   0.00000  Uiso   1.00
C112   C     0.39733   0.52322   0.56029   0.00000  Uiso   1.00
C113   C     0.42695   0.79674   0.23407   0.00000  Uiso   1.00
C114   C     0.48416   0.81994   0.15893   0.00000  Uiso   1.00
C115   C     0.48046   0.81144   0.01397   0.00000  Uiso   1.00
H116   H     0.26582   0.72068   0.21703   0.00000  Uiso   1.00
H117   H     0.20044   0.88334   0.31759   0.00000  Uiso   1.00
H118   H     0.26177   0.53616   0.34475   0.00000  Uiso   1.00
H119   H     0.31879   0.73391   0.96995   0.00000  Uiso   1.00
H120   H     0.15390   0.07715   0.45878   0.00000  Uiso   1.00
H121   H     0.28322   0.34508   0.51602   0.00000  Uiso   1.00
H122   H     0.40347   0.76208   0.72566   0.00000  Uiso   1.00
H123   H     0.46574   0.82467   0.44554   0.00000  Uiso   1.00
H124   H     0.41133   0.99305   0.55864   0.00000  Uiso   1.00
H125   H     0.47265   0.64586   0.58581   0.00000  Uiso   1.00
H126   H     0.52968   0.84362   0.21100   0.00000  Uiso   1.00
H127   H     0.32506   0.16619   0.65443   0.00000  Uiso   1.00
H128   H     0.45438   0.43412   0.71167   0.00000  Uiso   1.00
H129   H     0.57463   0.85113   0.92131   0.00000  Uiso   1.00
O130   O     0.20008   0.23054   0.62693   0.00000  Uiso   1.00
O131   O     0.36975   0.27008   0.70200   0.00000  Uiso   1.00
O132   O     0.52751   0.81719   0.66507   0.00000  Uiso   1.00
N133   N     0.20165   0.07501   0.48928   0.00000  Uiso   1.00
N134   N     0.32255   0.39058   0.54282   0.00000  Uiso   1.00
N135   N     0.43498   0.78041   0.80390   0.00000  Uiso   1.00
N136   N     0.29375   0.12293   0.59456   0.00000  Uiso   1.00
N137   N     0.41466   0.43849   0.64810   0.00000  Uiso   1.00
N138   N     0.52708   0.82833   0.90917   0.00000  Uiso   1.00
C139   C     0.68838   0.25549   0.76938   0.00000  Uiso   1.00
C140   C     0.69618   0.15268   0.85569   0.00000  Uiso   1.00
C141   C     0.75404   0.09294   0.86964   0.00000  Uiso   1.00
C142   C     0.75099   0.00140   0.95332   0.00000  Uiso   1.00
C143   C     0.77205   0.84646   0.07717   0.00000  Uiso   1.00
C144   C     0.66286   0.34132   0.87047   0.00000  Uiso   1.00
C145   C     0.69271   0.44018   0.89682   0.00000  Uiso   1.00
C146   C     0.66161   0.50743   0.99293   0.00000  Uiso   1.00
C147   C     0.63092   0.64538   0.13964   0.00000  Uiso   1.00
C148   C     0.63188   0.23386   0.66682   0.00000  Uiso   1.00
C149   C     0.63567   0.24240   0.52195   0.00000  Uiso   1.00
C150   C     0.57848   0.21921   0.44660   0.00000  Uiso   1.00
C151   C     0.49969   0.19031   0.27712   0.00000  Uiso   1.00
C152   C     0.58007   0.19915   0.89318   0.00000  Uiso   1.00
C153   C     0.63735   0.12209   0.92294   0.00000  Uiso   1.00
C154   C     0.63420   0.03061   0.00661   0.00000  Uiso   1.00
C155   C     0.69205   0.97074   0.02068   0.00000  Uiso   1.00
C156   C     0.60403   0.31072   0.93771   0.00000  Uiso   1.00
C157   C     0.57287   0.37785   0.03380   0.00000  Uiso   1.00
C158   C     0.60267   0.47678   0.06029   0.00000  Uiso   1.00
C159   C     0.57305   0.20326   0.73407   0.00000  Uiso   1.00
C160   C     0.51584   0.18006   0.65893   0.00000  Uiso   1.00
C161   C     0.51954   0.18856   0.51397   0.00000  Uiso   1.00
H162   H     0.73418   0.27932   0.71703   0.00000  Uiso   1.00
H163   H     0.79956   0.11666   0.81759   0.00000  Uiso   1.00
H164   H     0.73823   0.46384   0.84475   0.00000  Uiso   1.00
H165   H     0.68121   0.26609   0.46995   0.00000  Uiso   1.00
H166   H     0.84610   0.92285   0.95878   0.00000  Uiso   1.00
H167   H     0.71678   0.65492   0.01602   0.00000  Uiso   1.00
H168   H     0.59653   0.23792   0.22566   0.00000  Uiso   1.00
H169   H     0.53426   0.17533   0.94554   0.00000  Uiso   1.00
H170   H     0.58867   0.00695   0.05864   0.00000  Uiso   1.00
H171   H     0.52735   0.35414   0.08581   0.00000  Uiso   1.00
H172   H     0.47032   0.15638   0.71100   0.00000  Uiso   1.00
H173   H     0.67494   0.83381   0.15443   0.00000  Uiso   1.00
H174   H     0.54562   0.56588   0.21167   0.00000  Uiso   1.00
H175   H     0.42537   0.14887   0.42131   0.00000  Uiso   1.00
O176   O     0.79992   0.76946   0.12693   0.00000  Uiso   1.00
O177   O     0.63025   0.72992   0.20200   0.00000  Uiso   1.00
O178   O     0.47249   0.18281   0.16507   0.00000  Uiso   1.00
N179   N     0.79835   0.92499   0.98928   0.00000  Uiso   1.00
N180   N     0.67745   0.60942   0.04282   0.00000  Uiso   1.00
N181   N     0.56502   0.21959   0.30390   0.00000  Uiso   1.00
N182   N     0.70625   0.87707   0.09456   0.00000  Uiso   1.00
N183   N     0.58534   0.56151   0.14810   0.00000  Uiso   1.00
N184   N     0.47292   0.17167   0.40917   0.00000  Uiso   1.00
