data_job_02937
_audit_creation_date              2018-12-19
_audit_creation_method            'Materials Studio'
_symmetry_space_group_name_H-M    'P1'
_symmetry_Int_Tables_number       1
_symmetry_cell_setting            triclinic
loop_
_symmetry_equiv_pos_as_xyz
  x,y,z
_cell_length_a                    20.7770
_cell_length_b                    20.7770
_cell_length_c                    12.7423
_cell_angle_alpha                 90.0000
_cell_angle_beta                  90.0000
_cell_angle_gamma                 120.0000
loop_
_atom_site_label
_atom_site_type_symbol
_atom_site_fract_x
_atom_site_fract_y
_atom_site_fract_z
_atom_site_U_iso_or_equiv
_atom_site_adp_type
_atom_site_occupancy
C1     C     0.37949   0.86993   0.98915   0.00000  Uiso   1.00
C2     C     0.38810   0.90026   0.10039   0.00000  Uiso   1.00
C3     C     0.37665   0.95782   0.13123   0.00000  Uiso   1.00
C4     C     0.38742   0.97735   0.23663   0.00000  Uiso   1.00
C5     C     0.39757   0.03005   0.39842   0.00000  Uiso   1.00
C6     C     0.45379   0.87618   0.96134   0.00000  Uiso   1.00
C7     C     0.49756   0.91348   0.87525   0.00000  Uiso   1.00
C8     C     0.56362   0.91273   0.86359   0.00000  Uiso   1.00
C9     C     0.67573   0.92800   0.80945   0.00000  Uiso   1.00
C10    C     0.32364   0.78699   0.99641   0.00000  Uiso   1.00
C11    C     0.25798   0.74929   0.93980   0.00000  Uiso   1.00
C12    C     0.21448   0.67344   0.95766   0.00000  Uiso   1.00
C13    C     0.12450   0.55023   0.95797   0.00000  Uiso   1.00
C14    C     0.41897   0.80225   0.12149   0.00000  Uiso   1.00
C15    C     0.40955   0.86349   0.17227   0.00000  Uiso   1.00
C16    C     0.42034   0.88294   0.27765   0.00000  Uiso   1.00
C17    C     0.40890   0.94052   0.30864   0.00000  Uiso   1.00
C18    C     0.47524   0.83942   0.03321   0.00000  Uiso   1.00
C19    C     0.54125   0.83860   0.02167   0.00000  Uiso   1.00
C20    C     0.58511   0.87590   0.93560   0.00000  Uiso   1.00
C21    C     0.34508   0.75022   0.06830   0.00000  Uiso   1.00
C22    C     0.30167   0.67441   0.08623   0.00000  Uiso   1.00
C23    C     0.23596   0.63661   0.02966   0.00000  Uiso   1.00
H24    H     0.36279   0.89855   0.93319   0.00000  Uiso   1.00
H25    H     0.36006   0.98626   0.07558   0.00000  Uiso   1.00
H26    H     0.48094   0.94192   0.81964   0.00000  Uiso   1.00
H27    H     0.24141   0.77776   0.88419   0.00000  Uiso   1.00
H28    H     0.36651   0.06730   0.26514   0.00000  Uiso   1.00
H29    H     0.62140   0.97380   0.72545   0.00000  Uiso   1.00
H30    H     0.11628   0.62762   0.86156   0.00000  Uiso   1.00
H31    H     0.43567   0.77363   0.17745   0.00000  Uiso   1.00
H32    H     0.43694   0.85448   0.33326   0.00000  Uiso   1.00
H33    H     0.55783   0.81015   0.07731   0.00000  Uiso   1.00
H34    H     0.31829   0.64598   0.14186   0.00000  Uiso   1.00
H35    H     0.42891   0.96035   0.47428   0.00000  Uiso   1.00
H36    H     0.68380   0.86684   0.93458   0.00000  Uiso   1.00
H37    H     0.17868   0.52067   0.07070   0.00000  Uiso   1.00
O38    O     0.39725   0.06928   0.46779   0.00000  Uiso   1.00
O39    O     0.73164   0.94659   0.75973   0.00000  Uiso   1.00
O40    O     0.06894   0.49243   0.93830   0.00000  Uiso   1.00
N41    N     0.38101   0.03103   0.29299   0.00000  Uiso   1.00
N42    N     0.61932   0.94361   0.78842   0.00000  Uiso   1.00
N43    N     0.14709   0.61997   0.91565   0.00000  Uiso   1.00
N44    N     0.41459   0.97347   0.40552   0.00000  Uiso   1.00
N45    N     0.65290   0.88606   0.90095   0.00000  Uiso   1.00
N46    N     0.18066   0.56242   0.02818   0.00000  Uiso   1.00
C47    C     0.13007   0.50956   0.32249   0.00000  Uiso   1.00
C48    C     0.09974   0.48784   0.43373   0.00000  Uiso   1.00
C49    C     0.04218   0.41883   0.46457   0.00000  Uiso   1.00
C50    C     0.02265   0.41007   0.56997   0.00000  Uiso   1.00
C51    C     0.96995   0.36752   0.73175   0.00000  Uiso   1.00
C52    C     0.12382   0.57761   0.29467   0.00000  Uiso   1.00
C53    C     0.08652   0.58408   0.20859   0.00000  Uiso   1.00
C54    C     0.08727   0.65089   0.19692   0.00000  Uiso   1.00
C55    C     0.07200   0.74772   0.14278   0.00000  Uiso   1.00
C56    C     0.21301   0.53665   0.32975   0.00000  Uiso   1.00
C57    C     0.25071   0.50869   0.27314   0.00000  Uiso   1.00
C58    C     0.32656   0.54103   0.29099   0.00000  Uiso   1.00
C59    C     0.44977   0.57427   0.29131   0.00000  Uiso   1.00
C60    C     0.19775   0.61672   0.45482   0.00000  Uiso   1.00
C61    C     0.13651   0.54606   0.50560   0.00000  Uiso   1.00
C62    C     0.11706   0.53740   0.61098   0.00000  Uiso   1.00
C63    C     0.05948   0.46838   0.64198   0.00000  Uiso   1.00
C64    C     0.16058   0.63582   0.36655   0.00000  Uiso   1.00
C65    C     0.16140   0.70264   0.35500   0.00000  Uiso   1.00
C66    C     0.12410   0.70921   0.26893   0.00000  Uiso   1.00
C67    C     0.24978   0.59486   0.40163   0.00000  Uiso   1.00
C68    C     0.32559   0.62726   0.41956   0.00000  Uiso   1.00
C69    C     0.36339   0.59935   0.36300   0.00000  Uiso   1.00
H70    H     0.10145   0.46424   0.26652   0.00000  Uiso   1.00
H71    H     0.01374   0.37380   0.40891   0.00000  Uiso   1.00
H72    H     0.05808   0.53902   0.15297   0.00000  Uiso   1.00
H73    H     0.22224   0.46365   0.21752   0.00000  Uiso   1.00
H74    H     0.93270   0.29921   0.59848   0.00000  Uiso   1.00
H75    H     0.02620   0.64760   0.05879   0.00000  Uiso   1.00
H76    H     0.37238   0.48866   0.19489   0.00000  Uiso   1.00
H77    H     0.22637   0.66204   0.51078   0.00000  Uiso   1.00
H78    H     0.14552   0.58246   0.66659   0.00000  Uiso   1.00
H79    H     0.18985   0.74768   0.41064   0.00000  Uiso   1.00
H80    H     0.35402   0.67230   0.47519   0.00000  Uiso   1.00
H81    H     0.03965   0.46856   0.80761   0.00000  Uiso   1.00
H82    H     0.13316   0.81696   0.26792   0.00000  Uiso   1.00
H83    H     0.47933   0.65801   0.40403   0.00000  Uiso   1.00
O84    O     0.93072   0.32797   0.80112   0.00000  Uiso   1.00
O85    O     0.05341   0.78505   0.09306   0.00000  Uiso   1.00
O86    O     0.50757   0.57651   0.27164   0.00000  Uiso   1.00
N87    N     0.96897   0.34998   0.62632   0.00000  Uiso   1.00
N88    N     0.05639   0.67571   0.12175   0.00000  Uiso   1.00
N89    N     0.38003   0.52712   0.24898   0.00000  Uiso   1.00
N90    N     0.02653   0.44111   0.73886   0.00000  Uiso   1.00
N91    N     0.11394   0.76683   0.23428   0.00000  Uiso   1.00
N92    N     0.43758   0.61824   0.36151   0.00000  Uiso   1.00
C93    C     0.49044   0.62051   0.65582   0.00000  Uiso   1.00
C94    C     0.51216   0.61190   0.76706   0.00000  Uiso   1.00
C95    C     0.58117   0.62335   0.79790   0.00000  Uiso   1.00
C96    C     0.58993   0.61258   0.90330   0.00000  Uiso   1.00
C97    C     0.63248   0.60243   0.06508   0.00000  Uiso   1.00
C98    C     0.42239   0.54621   0.62800   0.00000  Uiso   1.00
C99    C     0.41592   0.50244   0.54192   0.00000  Uiso   1.00
C100   C     0.34911   0.43638   0.53026   0.00000  Uiso   1.00
C101   C     0.25228   0.32427   0.47611   0.00000  Uiso   1.00
C102   C     0.46335   0.67636   0.66308   0.00000  Uiso   1.00
C103   C     0.49131   0.74202   0.60647   0.00000  Uiso   1.00
C104   C     0.45897   0.78552   0.62432   0.00000  Uiso   1.00
C105   C     0.42573   0.87550   0.62464   0.00000  Uiso   1.00
C106   C     0.38328   0.58103   0.78815   0.00000  Uiso   1.00
C107   C     0.45394   0.59045   0.83894   0.00000  Uiso   1.00
C108   C     0.46260   0.57966   0.94432   0.00000  Uiso   1.00
C109   C     0.53162   0.59110   0.97531   0.00000  Uiso   1.00
C110   C     0.36418   0.52476   0.69988   0.00000  Uiso   1.00
C111   C     0.29736   0.45875   0.68834   0.00000  Uiso   1.00
C112   C     0.29079   0.41489   0.60227   0.00000  Uiso   1.00
C113   C     0.40514   0.65492   0.73496   0.00000  Uiso   1.00
C114   C     0.37274   0.69833   0.75289   0.00000  Uiso   1.00
C115   C     0.40065   0.76404   0.69633   0.00000  Uiso   1.00
H116   H     0.53576   0.63721   0.59985   0.00000  Uiso   1.00
H117   H     0.62620   0.63994   0.74225   0.00000  Uiso   1.00
H118   H     0.46098   0.51906   0.48631   0.00000  Uiso   1.00
H119   H     0.53635   0.75859   0.55085   0.00000  Uiso   1.00
H120   H     0.70079   0.63349   0.93181   0.00000  Uiso   1.00
H121   H     0.35240   0.37860   0.39212   0.00000  Uiso   1.00
H122   H     0.51134   0.88372   0.52823   0.00000  Uiso   1.00
H123   H     0.33796   0.56433   0.84412   0.00000  Uiso   1.00
H124   H     0.41754   0.56306   0.99992   0.00000  Uiso   1.00
H125   H     0.25232   0.44217   0.74397   0.00000  Uiso   1.00
H126   H     0.32770   0.68171   0.80852   0.00000  Uiso   1.00
H127   H     0.53144   0.57109   0.14095   0.00000  Uiso   1.00
H128   H     0.18304   0.31620   0.60125   0.00000  Uiso   1.00
H129   H     0.34199   0.82132   0.73737   0.00000  Uiso   1.00
O130   O     0.67203   0.60275   0.13446   0.00000  Uiso   1.00
O131   O     0.21495   0.26836   0.42639   0.00000  Uiso   1.00
O132   O     0.42349   0.93106   0.60497   0.00000  Uiso   1.00
N133   N     0.65002   0.61899   0.95965   0.00000  Uiso   1.00
N134   N     0.32429   0.38068   0.45508   0.00000  Uiso   1.00
N135   N     0.47288   0.85291   0.58231   0.00000  Uiso   1.00
N136   N     0.55889   0.58541   0.07219   0.00000  Uiso   1.00
N137   N     0.23317   0.34710   0.56762   0.00000  Uiso   1.00
N138   N     0.38176   0.81934   0.69485   0.00000  Uiso   1.00
C139   C     0.62051   0.13007   0.98915   0.00000  Uiso   1.00
C140   C     0.61190   0.09974   0.10039   0.00000  Uiso   1.00
C141   C     0.62335   0.04218   0.13123   0.00000  Uiso   1.00
C142   C     0.61258   0.02265   0.23663   0.00000  Uiso   1.00
C143   C     0.60243   0.96995   0.39842   0.00000  Uiso   1.00
C144   C     0.54621   0.12382   0.96134   0.00000  Uiso   1.00
C145   C     0.50244   0.08652   0.87525   0.00000  Uiso   1.00
C146   C     0.43638   0.08727   0.86359   0.00000  Uiso   1.00
C147   C     0.32427   0.07200   0.80945   0.00000  Uiso   1.00
C148   C     0.67636   0.21301   0.99641   0.00000  Uiso   1.00
C149   C     0.74202   0.25071   0.93980   0.00000  Uiso   1.00
C150   C     0.78552   0.32656   0.95766   0.00000  Uiso   1.00
C151   C     0.87550   0.44977   0.95797   0.00000  Uiso   1.00
C152   C     0.58103   0.19775   0.12149   0.00000  Uiso   1.00
C153   C     0.59045   0.13651   0.17227   0.00000  Uiso   1.00
C154   C     0.57966   0.11706   0.27765   0.00000  Uiso   1.00
C155   C     0.59110   0.05948   0.30864   0.00000  Uiso   1.00
C156   C     0.52476   0.16058   0.03321   0.00000  Uiso   1.00
C157   C     0.45875   0.16140   0.02167   0.00000  Uiso   1.00
C158   C     0.41489   0.12410   0.93560   0.00000  Uiso   1.00
C159   C     0.65492   0.24978   0.06830   0.00000  Uiso   1.00
C160   C     0.69833   0.32559   0.08623   0.00000  Uiso   1.00
C161   C     0.76404   0.36339   0.02966   0.00000  Uiso   1.00
H162   H     0.63721   0.10145   0.93319   0.00000  Uiso   1.00
H163   H     0.63994   0.01374   0.07558   0.00000  Uiso   1.00
H164   H     0.51906   0.05808   0.81964   0.00000  Uiso   1.00
H165   H     0.75859   0.22224   0.88419   0.00000  Uiso   1.00
H166   H     0.63349   0.93270   0.26514   0.00000  Uiso   1.00
H167   H     0.37860   0.02620   0.72545   0.00000  Uiso   1.00
H168   H     0.88372   0.37238   0.86156   0.00000  Uiso   1.00
H169   H     0.56433   0.22637   0.17745   0.00000  Uiso   1.00
H170   H     0.56306   0.14552   0.33326   0.00000  Uiso   1.00
H171   H     0.44217   0.18985   0.07731   0.00000  Uiso   1.00
H172   H     0.68171   0.35402   0.14186   0.00000  Uiso   1.00
H173   H     0.57109   0.03965   0.47428   0.00000  Uiso   1.00
H174   H     0.31620   0.13316   0.93458   0.00000  Uiso   1.00
H175   H     0.82132   0.47933   0.07070   0.00000  Uiso   1.00
O176   O     0.60275   0.93072   0.46779   0.00000  Uiso   1.00
O177   O     0.26836   0.05341   0.75973   0.00000  Uiso   1.00
O178   O     0.93106   0.50757   0.93830   0.00000  Uiso   1.00
N179   N     0.61899   0.96897   0.29299   0.00000  Uiso   1.00
N180   N     0.38068   0.05639   0.78842   0.00000  Uiso   1.00
N181   N     0.85291   0.38003   0.91565   0.00000  Uiso   1.00
N182   N     0.58541   0.02653   0.40552   0.00000  Uiso   1.00
N183   N     0.34710   0.11394   0.90095   0.00000  Uiso   1.00
N184   N     0.81934   0.43758   0.02818   0.00000  Uiso   1.00
C185   C     0.86993   0.49044   0.32249   0.00000  Uiso   1.00
C186   C     0.90026   0.51216   0.43373   0.00000  Uiso   1.00
C187   C     0.95782   0.58117   0.46457   0.00000  Uiso   1.00
C188   C     0.97735   0.58993   0.56997   0.00000  Uiso   1.00
C189   C     0.03005   0.63248   0.73175   0.00000  Uiso   1.00
C190   C     0.87618   0.42239   0.29467   0.00000  Uiso   1.00
C191   C     0.91348   0.41592   0.20859   0.00000  Uiso   1.00
C192   C     0.91273   0.34911   0.19692   0.00000  Uiso   1.00
C193   C     0.92800   0.25228   0.14278   0.00000  Uiso   1.00
C194   C     0.78699   0.46335   0.32975   0.00000  Uiso   1.00
C195   C     0.74929   0.49131   0.27314   0.00000  Uiso   1.00
C196   C     0.67344   0.45897   0.29099   0.00000  Uiso   1.00
C197   C     0.55023   0.42573   0.29131   0.00000  Uiso   1.00
C198   C     0.80225   0.38328   0.45482   0.00000  Uiso   1.00
C199   C     0.86349   0.45394   0.50560   0.00000  Uiso   1.00
C200   C     0.88294   0.46260   0.61098   0.00000  Uiso   1.00
C201   C     0.94052   0.53162   0.64198   0.00000  Uiso   1.00
C202   C     0.83942   0.36418   0.36655   0.00000  Uiso   1.00
C203   C     0.83860   0.29736   0.35500   0.00000  Uiso   1.00
C204   C     0.87590   0.29079   0.26893   0.00000  Uiso   1.00
C205   C     0.75022   0.40514   0.40163   0.00000  Uiso   1.00
C206   C     0.67441   0.37274   0.41956   0.00000  Uiso   1.00
C207   C     0.63661   0.40065   0.36300   0.00000  Uiso   1.00
H208   H     0.89855   0.53576   0.26652   0.00000  Uiso   1.00
H209   H     0.98626   0.62620   0.40891   0.00000  Uiso   1.00
H210   H     0.94192   0.46098   0.15297   0.00000  Uiso   1.00
H211   H     0.77776   0.53635   0.21752   0.00000  Uiso   1.00
H212   H     0.06730   0.70079   0.59848   0.00000  Uiso   1.00
H213   H     0.97380   0.35240   0.05879   0.00000  Uiso   1.00
H214   H     0.62762   0.51134   0.19489   0.00000  Uiso   1.00
H215   H     0.77363   0.33796   0.51078   0.00000  Uiso   1.00
H216   H     0.85448   0.41754   0.66659   0.00000  Uiso   1.00
H217   H     0.81015   0.25232   0.41064   0.00000  Uiso   1.00
H218   H     0.64598   0.32770   0.47519   0.00000  Uiso   1.00
H219   H     0.96035   0.53144   0.80761   0.00000  Uiso   1.00
H220   H     0.86684   0.18304   0.26792   0.00000  Uiso   1.00
H221   H     0.52067   0.34199   0.40403   0.00000  Uiso   1.00
O222   O     0.06928   0.67203   0.80112   0.00000  Uiso   1.00
O223   O     0.94659   0.21495   0.09306   0.00000  Uiso   1.00
O224   O     0.49243   0.42349   0.27164   0.00000  Uiso   1.00
N225   N     0.03103   0.65002   0.62632   0.00000  Uiso   1.00
N226   N     0.94361   0.32429   0.12175   0.00000  Uiso   1.00
N227   N     0.61997   0.47288   0.24898   0.00000  Uiso   1.00
N228   N     0.97347   0.55889   0.73886   0.00000  Uiso   1.00
N229   N     0.88606   0.23317   0.23428   0.00000  Uiso   1.00
N230   N     0.56242   0.38176   0.36151   0.00000  Uiso   1.00
C231   C     0.50956   0.37949   0.65582   0.00000  Uiso   1.00
C232   C     0.48784   0.38810   0.76706   0.00000  Uiso   1.00
C233   C     0.41883   0.37665   0.79790   0.00000  Uiso   1.00
C234   C     0.41007   0.38742   0.90330   0.00000  Uiso   1.00
C235   C     0.36752   0.39757   0.06508   0.00000  Uiso   1.00
C236   C     0.57761   0.45379   0.62800   0.00000  Uiso   1.00
C237   C     0.58408   0.49756   0.54192   0.00000  Uiso   1.00
C238   C     0.65089   0.56362   0.53026   0.00000  Uiso   1.00
C239   C     0.74772   0.67573   0.47611   0.00000  Uiso   1.00
C240   C     0.53665   0.32364   0.66308   0.00000  Uiso   1.00
C241   C     0.50869   0.25798   0.60647   0.00000  Uiso   1.00
C242   C     0.54103   0.21448   0.62432   0.00000  Uiso   1.00
C243   C     0.57427   0.12450   0.62464   0.00000  Uiso   1.00
C244   C     0.61672   0.41897   0.78815   0.00000  Uiso   1.00
C245   C     0.54606   0.40955   0.83894   0.00000  Uiso   1.00
C246   C     0.53740   0.42034   0.94432   0.00000  Uiso   1.00
C247   C     0.46838   0.40890   0.97531   0.00000  Uiso   1.00
C248   C     0.63582   0.47524   0.69988   0.00000  Uiso   1.00
C249   C     0.70264   0.54125   0.68834   0.00000  Uiso   1.00
C250   C     0.70921   0.58511   0.60227   0.00000  Uiso   1.00
C251   C     0.59486   0.34508   0.73496   0.00000  Uiso   1.00
C252   C     0.62726   0.30167   0.75289   0.00000  Uiso   1.00
C253   C     0.59935   0.23596   0.69633   0.00000  Uiso   1.00
H254   H     0.46424   0.36279   0.59985   0.00000  Uiso   1.00
H255   H     0.37380   0.36006   0.74225   0.00000  Uiso   1.00
H256   H     0.53902   0.48094   0.48631   0.00000  Uiso   1.00
H257   H     0.46365   0.24141   0.55085   0.00000  Uiso   1.00
H258   H     0.29921   0.36651   0.93181   0.00000  Uiso   1.00
H259   H     0.64760   0.62140   0.39212   0.00000  Uiso   1.00
H260   H     0.48866   0.11628   0.52823   0.00000  Uiso   1.00
H261   H     0.66204   0.43567   0.84412   0.00000  Uiso   1.00
H262   H     0.58246   0.43694   0.99992   0.00000  Uiso   1.00
H263   H     0.74768   0.55783   0.74397   0.00000  Uiso   1.00
H264   H     0.67230   0.31829   0.80852   0.00000  Uiso   1.00
H265   H     0.46856   0.42891   0.14095   0.00000  Uiso   1.00
H266   H     0.81696   0.68380   0.60125   0.00000  Uiso   1.00
H267   H     0.65801   0.17868   0.73737   0.00000  Uiso   1.00
O268   O     0.32797   0.39725   0.13446   0.00000  Uiso   1.00
O269   O     0.78505   0.73164   0.42639   0.00000  Uiso   1.00
O270   O     0.57651   0.06894   0.60497   0.00000  Uiso   1.00
N271   N     0.34998   0.38101   0.95965   0.00000  Uiso   1.00
N272   N     0.67571   0.61932   0.45508   0.00000  Uiso   1.00
N273   N     0.52712   0.14709   0.58231   0.00000  Uiso   1.00
N274   N     0.44111   0.41459   0.07219   0.00000  Uiso   1.00
N275   N     0.76683   0.65290   0.56762   0.00000  Uiso   1.00
N276   N     0.61824   0.18066   0.69485   0.00000  Uiso   1.00
