data_job_00917
_audit_creation_date              2018-12-19
_audit_creation_method            'Materials Studio'
_symmetry_space_group_name_H-M    'P1'
_symmetry_Int_Tables_number       1
_symmetry_cell_setting            triclinic
loop_
_symmetry_equiv_pos_as_xyz
  x,y,z
_cell_length_a                    12.9220
_cell_length_b                    22.3732
_cell_length_c                    17.2723
_cell_angle_alpha                 90.0000
_cell_angle_beta                  90.0376
_cell_angle_gamma                 90.0000
loop_
_atom_site_label
_atom_site_type_symbol
_atom_site_fract_x
_atom_site_fract_y
_atom_site_fract_z
_atom_site_U_iso_or_equiv
_atom_site_adp_type
_atom_site_occupancy
C1     C     0.25958   0.50001   0.33061   0.00000  Uiso   1.00
C2     C     0.29146   0.43989   0.36470   0.00000  Uiso   1.00
C3     C     0.31819   0.38934   0.32266   0.00000  Uiso   1.00
C4     C     0.34502   0.33873   0.36462   0.00000  Uiso   1.00
C5     C     0.39447   0.24537   0.40523   0.00000  Uiso   1.00
C6     C     0.15353   0.51413   0.36470   0.00000  Uiso   1.00
C7     C     0.06431   0.52601   0.32266   0.00000  Uiso   1.00
C8     C     0.97504   0.53790   0.36463   0.00000  Uiso   1.00
C9     C     0.81037   0.55985   0.40523   0.00000  Uiso   1.00
C10    C     0.33381   0.54601   0.36471   0.00000  Uiso   1.00
C11    C     0.39614   0.58470   0.32268   0.00000  Uiso   1.00
C12    C     0.45864   0.62343   0.36465   0.00000  Uiso   1.00
C13    C     0.57387   0.69486   0.40528   0.00000  Uiso   1.00
C14    C     0.25969   0.50001   0.47988   0.00000  Uiso   1.00
C15    C     0.29151   0.43989   0.44578   0.00000  Uiso   1.00
C16    C     0.31832   0.38934   0.48782   0.00000  Uiso   1.00
C17    C     0.34509   0.33872   0.44585   0.00000  Uiso   1.00
C18    C     0.15359   0.51413   0.44578   0.00000  Uiso   1.00
C19    C     0.06444   0.52601   0.48782   0.00000  Uiso   1.00
C20    C     0.97510   0.53790   0.44585   0.00000  Uiso   1.00
C21    C     0.33387   0.54600   0.44579   0.00000  Uiso   1.00
C22    C     0.39627   0.58469   0.48784   0.00000  Uiso   1.00
C23    C     0.45870   0.62343   0.44588   0.00000  Uiso   1.00
H24    H     0.25952   0.50002   0.26749   0.00000  Uiso   1.00
H25    H     0.31812   0.38936   0.25992   0.00000  Uiso   1.00
H26    H     0.06429   0.52602   0.25992   0.00000  Uiso   1.00
H27    H     0.39607   0.58469   0.25994   0.00000  Uiso   1.00
H28    H     0.38309   0.26668   0.28728   0.00000  Uiso   1.00
H29    H     0.84787   0.55484   0.28729   0.00000  Uiso   1.00
H30    H     0.54750   0.67856   0.28733   0.00000  Uiso   1.00
H31    H     0.25974   0.50000   0.54301   0.00000  Uiso   1.00
H32    H     0.31836   0.38935   0.55056   0.00000  Uiso   1.00
H33    H     0.06452   0.52600   0.55056   0.00000  Uiso   1.00
H34    H     0.39630   0.58467   0.55058   0.00000  Uiso   1.00
H35    H     0.38328   0.26666   0.52318   0.00000  Uiso   1.00
H36    H     0.84805   0.55483   0.52318   0.00000  Uiso   1.00
H37    H     0.54768   0.67855   0.52322   0.00000  Uiso   1.00
O38    O     0.42171   0.19387   0.40523   0.00000  Uiso   1.00
O39    O     0.71952   0.57194   0.40523   0.00000  Uiso   1.00
O40    O     0.63742   0.73426   0.40528   0.00000  Uiso   1.00
N41    N     0.37511   0.28186   0.34177   0.00000  Uiso   1.00
N42    N     0.87470   0.55127   0.34177   0.00000  Uiso   1.00
N43    N     0.52878   0.66695   0.34181   0.00000  Uiso   1.00
N44    N     0.37521   0.28186   0.46870   0.00000  Uiso   1.00
N45    N     0.87480   0.55126   0.46870   0.00000  Uiso   1.00
N46    N     0.52888   0.66694   0.46874   0.00000  Uiso   1.00
C47    C     0.75982   0.66653   0.19468   0.00000  Uiso   1.00
C48    C     0.72552   0.60686   0.16058   0.00000  Uiso   1.00
C49    C     0.69674   0.55668   0.20261   0.00000  Uiso   1.00
C50    C     0.66787   0.50645   0.16064   0.00000  Uiso   1.00
C51    C     0.61466   0.41378   0.12001   0.00000  Uiso   1.00
C52    C     0.86641   0.67922   0.16060   0.00000  Uiso   1.00
C53    C     0.95609   0.68989   0.20265   0.00000  Uiso   1.00
C54    C     0.04582   0.70057   0.16070   0.00000  Uiso   1.00
C55    C     0.21134   0.72028   0.12011   0.00000  Uiso   1.00
C56    C     0.68748   0.71352   0.16058   0.00000  Uiso   1.00
C57    C     0.62672   0.75304   0.20261   0.00000  Uiso   1.00
C58    C     0.56582   0.79261   0.16064   0.00000  Uiso   1.00
C59    C     0.45352   0.86558   0.12002   0.00000  Uiso   1.00
C60    C     0.75973   0.66654   0.04541   0.00000  Uiso   1.00
C61    C     0.72547   0.60686   0.07950   0.00000  Uiso   1.00
C62    C     0.69663   0.55669   0.03745   0.00000  Uiso   1.00
C63    C     0.66781   0.50645   0.07941   0.00000  Uiso   1.00
C64    C     0.86637   0.67922   0.07952   0.00000  Uiso   1.00
C65    C     0.95598   0.68989   0.03750   0.00000  Uiso   1.00
C66    C     0.04577   0.70057   0.07947   0.00000  Uiso   1.00
C67    C     0.68743   0.71352   0.07950   0.00000  Uiso   1.00
C68    C     0.62662   0.75304   0.03746   0.00000  Uiso   1.00
C69    C     0.56577   0.79261   0.07941   0.00000  Uiso   1.00
H70    H     0.75987   0.66653   0.25781   0.00000  Uiso   1.00
H71    H     0.69679   0.55670   0.26535   0.00000  Uiso   1.00
H72    H     0.95610   0.68988   0.26539   0.00000  Uiso   1.00
H73    H     0.62678   0.75302   0.26535   0.00000  Uiso   1.00
H74    H     0.62688   0.43492   0.23796   0.00000  Uiso   1.00
H75    H     0.17363   0.71578   0.23805   0.00000  Uiso   1.00
H76    H     0.47921   0.84892   0.23797   0.00000  Uiso   1.00
H77    H     0.75969   0.66654   0.98228   0.00000  Uiso   1.00
H78    H     0.69660   0.55671   0.97471   0.00000  Uiso   1.00
H79    H     0.95591   0.68989   0.97475   0.00000  Uiso   1.00
H80    H     0.62660   0.75303   0.97471   0.00000  Uiso   1.00
H81    H     0.62673   0.43493   0.00207   0.00000  Uiso   1.00
H82    H     0.17348   0.71579   0.00215   0.00000  Uiso   1.00
H83    H     0.47905   0.84892   0.00207   0.00000  Uiso   1.00
O84    O     0.58534   0.36267   0.12000   0.00000  Uiso   1.00
O85    O     0.30265   0.73115   0.12012   0.00000  Uiso   1.00
O86    O     0.39158   0.90582   0.12001   0.00000  Uiso   1.00
N87    N     0.63548   0.45000   0.18348   0.00000  Uiso   1.00
N88    N     0.14667   0.71257   0.18356   0.00000  Uiso   1.00
N89    N     0.49746   0.83706   0.18349   0.00000  Uiso   1.00
N90    N     0.63540   0.45001   0.05655   0.00000  Uiso   1.00
N91    N     0.14659   0.71258   0.05663   0.00000  Uiso   1.00
N92    N     0.49737   0.83706   0.05655   0.00000  Uiso   1.00
C93    C     0.75958   0.00001   0.33061   0.00000  Uiso   1.00
C94    C     0.79146   0.93989   0.36470   0.00000  Uiso   1.00
C95    C     0.81819   0.88934   0.32266   0.00000  Uiso   1.00
C96    C     0.84502   0.83873   0.36462   0.00000  Uiso   1.00
C97    C     0.89447   0.74537   0.40523   0.00000  Uiso   1.00
C98    C     0.65353   0.01413   0.36470   0.00000  Uiso   1.00
C99    C     0.56431   0.02601   0.32266   0.00000  Uiso   1.00
C100   C     0.47504   0.03790   0.36463   0.00000  Uiso   1.00
C101   C     0.31037   0.05985   0.40523   0.00000  Uiso   1.00
C102   C     0.83381   0.04601   0.36471   0.00000  Uiso   1.00
C103   C     0.89614   0.08470   0.32268   0.00000  Uiso   1.00
C104   C     0.95864   0.12343   0.36465   0.00000  Uiso   1.00
C105   C     0.07387   0.19486   0.40528   0.00000  Uiso   1.00
C106   C     0.75969   0.00001   0.47988   0.00000  Uiso   1.00
C107   C     0.79151   0.93989   0.44578   0.00000  Uiso   1.00
C108   C     0.81832   0.88934   0.48782   0.00000  Uiso   1.00
C109   C     0.84509   0.83872   0.44585   0.00000  Uiso   1.00
C110   C     0.65359   0.01413   0.44578   0.00000  Uiso   1.00
C111   C     0.56444   0.02601   0.48782   0.00000  Uiso   1.00
C112   C     0.47510   0.03790   0.44585   0.00000  Uiso   1.00
C113   C     0.83387   0.04600   0.44579   0.00000  Uiso   1.00
C114   C     0.89627   0.08469   0.48784   0.00000  Uiso   1.00
C115   C     0.95870   0.12343   0.44588   0.00000  Uiso   1.00
H116   H     0.75952   0.00002   0.26749   0.00000  Uiso   1.00
H117   H     0.81812   0.88936   0.25992   0.00000  Uiso   1.00
H118   H     0.56429   0.02602   0.25992   0.00000  Uiso   1.00
H119   H     0.89607   0.08469   0.25994   0.00000  Uiso   1.00
H120   H     0.88309   0.76668   0.28728   0.00000  Uiso   1.00
H121   H     0.34787   0.05484   0.28729   0.00000  Uiso   1.00
H122   H     0.04750   0.17856   0.28733   0.00000  Uiso   1.00
H123   H     0.75974   0.00000   0.54301   0.00000  Uiso   1.00
H124   H     0.81836   0.88935   0.55056   0.00000  Uiso   1.00
H125   H     0.56452   0.02600   0.55056   0.00000  Uiso   1.00
H126   H     0.89630   0.08467   0.55058   0.00000  Uiso   1.00
H127   H     0.88328   0.76666   0.52318   0.00000  Uiso   1.00
H128   H     0.34805   0.05483   0.52318   0.00000  Uiso   1.00
H129   H     0.04768   0.17855   0.52322   0.00000  Uiso   1.00
O130   O     0.92171   0.69387   0.40523   0.00000  Uiso   1.00
O131   O     0.21952   0.07194   0.40523   0.00000  Uiso   1.00
O132   O     0.13742   0.23426   0.40528   0.00000  Uiso   1.00
N133   N     0.87511   0.78186   0.34177   0.00000  Uiso   1.00
N134   N     0.37470   0.05127   0.34177   0.00000  Uiso   1.00
N135   N     0.02878   0.16695   0.34181   0.00000  Uiso   1.00
N136   N     0.87521   0.78186   0.46870   0.00000  Uiso   1.00
N137   N     0.37480   0.05126   0.46870   0.00000  Uiso   1.00
N138   N     0.02888   0.16694   0.46874   0.00000  Uiso   1.00
C139   C     0.25982   0.16653   0.19468   0.00000  Uiso   1.00
C140   C     0.22552   0.10686   0.16058   0.00000  Uiso   1.00
C141   C     0.19674   0.05668   0.20261   0.00000  Uiso   1.00
C142   C     0.16787   0.00645   0.16064   0.00000  Uiso   1.00
C143   C     0.11466   0.91378   0.12001   0.00000  Uiso   1.00
C144   C     0.36641   0.17922   0.16060   0.00000  Uiso   1.00
C145   C     0.45609   0.18989   0.20265   0.00000  Uiso   1.00
C146   C     0.54582   0.20057   0.16070   0.00000  Uiso   1.00
C147   C     0.71134   0.22028   0.12011   0.00000  Uiso   1.00
C148   C     0.18748   0.21352   0.16058   0.00000  Uiso   1.00
C149   C     0.12672   0.25304   0.20261   0.00000  Uiso   1.00
C150   C     0.06582   0.29261   0.16064   0.00000  Uiso   1.00
C151   C     0.95352   0.36558   0.12002   0.00000  Uiso   1.00
C152   C     0.25973   0.16654   0.04541   0.00000  Uiso   1.00
C153   C     0.22547   0.10686   0.07950   0.00000  Uiso   1.00
C154   C     0.19663   0.05669   0.03745   0.00000  Uiso   1.00
C155   C     0.16781   0.00645   0.07941   0.00000  Uiso   1.00
C156   C     0.36637   0.17922   0.07952   0.00000  Uiso   1.00
C157   C     0.45598   0.18989   0.03750   0.00000  Uiso   1.00
C158   C     0.54577   0.20057   0.07947   0.00000  Uiso   1.00
C159   C     0.18743   0.21352   0.07950   0.00000  Uiso   1.00
C160   C     0.12662   0.25304   0.03746   0.00000  Uiso   1.00
C161   C     0.06577   0.29261   0.07941   0.00000  Uiso   1.00
H162   H     0.25987   0.16653   0.25781   0.00000  Uiso   1.00
H163   H     0.19679   0.05670   0.26535   0.00000  Uiso   1.00
H164   H     0.45610   0.18988   0.26539   0.00000  Uiso   1.00
H165   H     0.12678   0.25302   0.26535   0.00000  Uiso   1.00
H166   H     0.12688   0.93492   0.23796   0.00000  Uiso   1.00
H167   H     0.67363   0.21578   0.23805   0.00000  Uiso   1.00
H168   H     0.97921   0.34892   0.23797   0.00000  Uiso   1.00
H169   H     0.25969   0.16654   0.98228   0.00000  Uiso   1.00
H170   H     0.19660   0.05671   0.97471   0.00000  Uiso   1.00
H171   H     0.45591   0.18989   0.97475   0.00000  Uiso   1.00
H172   H     0.12660   0.25303   0.97471   0.00000  Uiso   1.00
H173   H     0.12673   0.93493   0.00207   0.00000  Uiso   1.00
H174   H     0.67348   0.21579   0.00215   0.00000  Uiso   1.00
H175   H     0.97905   0.34892   0.00207   0.00000  Uiso   1.00
O176   O     0.08534   0.86267   0.12000   0.00000  Uiso   1.00
O177   O     0.80265   0.23115   0.12012   0.00000  Uiso   1.00
O178   O     0.89158   0.40582   0.12001   0.00000  Uiso   1.00
N179   N     0.13548   0.95000   0.18348   0.00000  Uiso   1.00
N180   N     0.64667   0.21257   0.18356   0.00000  Uiso   1.00
N181   N     0.99746   0.33706   0.18349   0.00000  Uiso   1.00
N182   N     0.13540   0.95001   0.05655   0.00000  Uiso   1.00
N183   N     0.64659   0.21258   0.05663   0.00000  Uiso   1.00
N184   N     0.99737   0.33706   0.05655   0.00000  Uiso   1.00
C185   C     0.25958   0.49999   0.83061   0.00000  Uiso   1.00
C186   C     0.29146   0.56011   0.86470   0.00000  Uiso   1.00
C187   C     0.31819   0.61066   0.82266   0.00000  Uiso   1.00
C188   C     0.34502   0.66127   0.86462   0.00000  Uiso   1.00
C189   C     0.39447   0.75463   0.90523   0.00000  Uiso   1.00
C190   C     0.15353   0.48587   0.86470   0.00000  Uiso   1.00
C191   C     0.06431   0.47399   0.82266   0.00000  Uiso   1.00
C192   C     0.97504   0.46210   0.86463   0.00000  Uiso   1.00
C193   C     0.81037   0.44015   0.90523   0.00000  Uiso   1.00
C194   C     0.33381   0.45399   0.86471   0.00000  Uiso   1.00
C195   C     0.39614   0.41530   0.82268   0.00000  Uiso   1.00
C196   C     0.45864   0.37657   0.86465   0.00000  Uiso   1.00
C197   C     0.57387   0.30514   0.90528   0.00000  Uiso   1.00
C198   C     0.25969   0.49999   0.97988   0.00000  Uiso   1.00
C199   C     0.29151   0.56011   0.94578   0.00000  Uiso   1.00
C200   C     0.31832   0.61066   0.98782   0.00000  Uiso   1.00
C201   C     0.34509   0.66128   0.94585   0.00000  Uiso   1.00
C202   C     0.15359   0.48587   0.94578   0.00000  Uiso   1.00
C203   C     0.06444   0.47399   0.98782   0.00000  Uiso   1.00
C204   C     0.97510   0.46210   0.94585   0.00000  Uiso   1.00
C205   C     0.33387   0.45400   0.94579   0.00000  Uiso   1.00
C206   C     0.39627   0.41531   0.98784   0.00000  Uiso   1.00
C207   C     0.45870   0.37657   0.94588   0.00000  Uiso   1.00
H208   H     0.25952   0.49998   0.76749   0.00000  Uiso   1.00
H209   H     0.31812   0.61064   0.75992   0.00000  Uiso   1.00
H210   H     0.06429   0.47398   0.75992   0.00000  Uiso   1.00
H211   H     0.39607   0.41531   0.75994   0.00000  Uiso   1.00
H212   H     0.38309   0.73332   0.78728   0.00000  Uiso   1.00
H213   H     0.84787   0.44516   0.78729   0.00000  Uiso   1.00
H214   H     0.54750   0.32144   0.78733   0.00000  Uiso   1.00
H215   H     0.25974   0.50000   0.04301   0.00000  Uiso   1.00
H216   H     0.31836   0.61065   0.05056   0.00000  Uiso   1.00
H217   H     0.06452   0.47400   0.05056   0.00000  Uiso   1.00
H218   H     0.39630   0.41533   0.05058   0.00000  Uiso   1.00
H219   H     0.38328   0.73334   0.02318   0.00000  Uiso   1.00
H220   H     0.84805   0.44517   0.02318   0.00000  Uiso   1.00
H221   H     0.54768   0.32145   0.02322   0.00000  Uiso   1.00
O222   O     0.42171   0.80613   0.90523   0.00000  Uiso   1.00
O223   O     0.71952   0.42806   0.90523   0.00000  Uiso   1.00
O224   O     0.63742   0.26574   0.90528   0.00000  Uiso   1.00
N225   N     0.37511   0.71814   0.84177   0.00000  Uiso   1.00
N226   N     0.87470   0.44873   0.84177   0.00000  Uiso   1.00
N227   N     0.52878   0.33305   0.84181   0.00000  Uiso   1.00
N228   N     0.37521   0.71814   0.96870   0.00000  Uiso   1.00
N229   N     0.87480   0.44874   0.96870   0.00000  Uiso   1.00
N230   N     0.52888   0.33306   0.96874   0.00000  Uiso   1.00
C231   C     0.75982   0.33347   0.69468   0.00000  Uiso   1.00
C232   C     0.72552   0.39314   0.66058   0.00000  Uiso   1.00
C233   C     0.69674   0.44332   0.70261   0.00000  Uiso   1.00
C234   C     0.66787   0.49355   0.66064   0.00000  Uiso   1.00
C235   C     0.61466   0.58622   0.62001   0.00000  Uiso   1.00
C236   C     0.86641   0.32078   0.66060   0.00000  Uiso   1.00
C237   C     0.95609   0.31011   0.70265   0.00000  Uiso   1.00
C238   C     0.04582   0.29943   0.66070   0.00000  Uiso   1.00
C239   C     0.21134   0.27972   0.62011   0.00000  Uiso   1.00
C240   C     0.68748   0.28648   0.66058   0.00000  Uiso   1.00
C241   C     0.62672   0.24696   0.70261   0.00000  Uiso   1.00
C242   C     0.56582   0.20739   0.66064   0.00000  Uiso   1.00
C243   C     0.45352   0.13442   0.62002   0.00000  Uiso   1.00
C244   C     0.75973   0.33346   0.54541   0.00000  Uiso   1.00
C245   C     0.72547   0.39314   0.57950   0.00000  Uiso   1.00
C246   C     0.69663   0.44331   0.53745   0.00000  Uiso   1.00
C247   C     0.66781   0.49355   0.57941   0.00000  Uiso   1.00
C248   C     0.86637   0.32078   0.57952   0.00000  Uiso   1.00
C249   C     0.95598   0.31011   0.53750   0.00000  Uiso   1.00
C250   C     0.04577   0.29943   0.57947   0.00000  Uiso   1.00
C251   C     0.68743   0.28648   0.57950   0.00000  Uiso   1.00
C252   C     0.62662   0.24696   0.53746   0.00000  Uiso   1.00
C253   C     0.56577   0.20739   0.57941   0.00000  Uiso   1.00
H254   H     0.75987   0.33347   0.75781   0.00000  Uiso   1.00
H255   H     0.69679   0.44330   0.76535   0.00000  Uiso   1.00
H256   H     0.95610   0.31012   0.76539   0.00000  Uiso   1.00
H257   H     0.62678   0.24698   0.76535   0.00000  Uiso   1.00
H258   H     0.62688   0.56508   0.73796   0.00000  Uiso   1.00
H259   H     0.17363   0.28422   0.73805   0.00000  Uiso   1.00
H260   H     0.47921   0.15108   0.73797   0.00000  Uiso   1.00
H261   H     0.75969   0.33346   0.48228   0.00000  Uiso   1.00
H262   H     0.69660   0.44329   0.47471   0.00000  Uiso   1.00
H263   H     0.95591   0.31011   0.47475   0.00000  Uiso   1.00
H264   H     0.62660   0.24697   0.47471   0.00000  Uiso   1.00
H265   H     0.62673   0.56507   0.50207   0.00000  Uiso   1.00
H266   H     0.17348   0.28421   0.50215   0.00000  Uiso   1.00
H267   H     0.47905   0.15108   0.50207   0.00000  Uiso   1.00
O268   O     0.58534   0.63733   0.62000   0.00000  Uiso   1.00
O269   O     0.30265   0.26885   0.62012   0.00000  Uiso   1.00
O270   O     0.39158   0.09418   0.62001   0.00000  Uiso   1.00
N271   N     0.63548   0.55000   0.68348   0.00000  Uiso   1.00
N272   N     0.14667   0.28743   0.68356   0.00000  Uiso   1.00
N273   N     0.49746   0.16294   0.68349   0.00000  Uiso   1.00
N274   N     0.63540   0.54999   0.55655   0.00000  Uiso   1.00
N275   N     0.14659   0.28742   0.55663   0.00000  Uiso   1.00
N276   N     0.49737   0.16294   0.55655   0.00000  Uiso   1.00
C277   C     0.75958   0.99999   0.83061   0.00000  Uiso   1.00
C278   C     0.79146   0.06011   0.86470   0.00000  Uiso   1.00
C279   C     0.81819   0.11066   0.82266   0.00000  Uiso   1.00
C280   C     0.84502   0.16127   0.86462   0.00000  Uiso   1.00
C281   C     0.89447   0.25463   0.90523   0.00000  Uiso   1.00
C282   C     0.65353   0.98587   0.86470   0.00000  Uiso   1.00
C283   C     0.56431   0.97399   0.82266   0.00000  Uiso   1.00
C284   C     0.47504   0.96210   0.86463   0.00000  Uiso   1.00
C285   C     0.31037   0.94015   0.90523   0.00000  Uiso   1.00
C286   C     0.83381   0.95399   0.86471   0.00000  Uiso   1.00
C287   C     0.89614   0.91530   0.82268   0.00000  Uiso   1.00
C288   C     0.95864   0.87657   0.86465   0.00000  Uiso   1.00
C289   C     0.07387   0.80514   0.90528   0.00000  Uiso   1.00
C290   C     0.75969  -0.00001   0.97988   0.00000  Uiso   1.00
C291   C     0.79151   0.06011   0.94578   0.00000  Uiso   1.00
C292   C     0.81832   0.11066   0.98782   0.00000  Uiso   1.00
C293   C     0.84509   0.16128   0.94585   0.00000  Uiso   1.00
C294   C     0.65359   0.98587   0.94578   0.00000  Uiso   1.00
C295   C     0.56444   0.97399   0.98782   0.00000  Uiso   1.00
C296   C     0.47510   0.96210   0.94585   0.00000  Uiso   1.00
C297   C     0.83387   0.95400   0.94579   0.00000  Uiso   1.00
C298   C     0.89627   0.91531   0.98784   0.00000  Uiso   1.00
C299   C     0.95870   0.87657   0.94588   0.00000  Uiso   1.00
H300   H     0.75952   0.99998   0.76749   0.00000  Uiso   1.00
H301   H     0.81812   0.11064   0.75992   0.00000  Uiso   1.00
H302   H     0.56429   0.97398   0.75992   0.00000  Uiso   1.00
H303   H     0.89607   0.91531   0.75994   0.00000  Uiso   1.00
H304   H     0.88309   0.23332   0.78728   0.00000  Uiso   1.00
H305   H     0.34787   0.94516   0.78729   0.00000  Uiso   1.00
H306   H     0.04750   0.82144   0.78733   0.00000  Uiso   1.00
H307   H     0.75974  -0.00000   0.04301   0.00000  Uiso   1.00
H308   H     0.81836   0.11065   0.05056   0.00000  Uiso   1.00
H309   H     0.56452   0.97400   0.05056   0.00000  Uiso   1.00
H310   H     0.89630   0.91533   0.05058   0.00000  Uiso   1.00
H311   H     0.88328   0.23334   0.02318   0.00000  Uiso   1.00
H312   H     0.34805   0.94517   0.02318   0.00000  Uiso   1.00
H313   H     0.04768   0.82145   0.02322   0.00000  Uiso   1.00
O314   O     0.92171   0.30613   0.90523   0.00000  Uiso   1.00
O315   O     0.21952   0.92806   0.90523   0.00000  Uiso   1.00
O316   O     0.13742   0.76574   0.90528   0.00000  Uiso   1.00
N317   N     0.87511   0.21814   0.84177   0.00000  Uiso   1.00
N318   N     0.37470   0.94873   0.84177   0.00000  Uiso   1.00
N319   N     0.02878   0.83305   0.84181   0.00000  Uiso   1.00
N320   N     0.87521   0.21814   0.96870   0.00000  Uiso   1.00
N321   N     0.37480   0.94874   0.96870   0.00000  Uiso   1.00
N322   N     0.02888   0.83306   0.96874   0.00000  Uiso   1.00
C323   C     0.25982   0.83347   0.69468   0.00000  Uiso   1.00
C324   C     0.22552   0.89314   0.66058   0.00000  Uiso   1.00
C325   C     0.19674   0.94332   0.70261   0.00000  Uiso   1.00
C326   C     0.16787   0.99355   0.66064   0.00000  Uiso   1.00
C327   C     0.11466   0.08622   0.62001   0.00000  Uiso   1.00
C328   C     0.36641   0.82078   0.66060   0.00000  Uiso   1.00
C329   C     0.45609   0.81011   0.70265   0.00000  Uiso   1.00
C330   C     0.54582   0.79943   0.66070   0.00000  Uiso   1.00
C331   C     0.71134   0.77972   0.62011   0.00000  Uiso   1.00
C332   C     0.18748   0.78648   0.66058   0.00000  Uiso   1.00
C333   C     0.12672   0.74696   0.70261   0.00000  Uiso   1.00
C334   C     0.06582   0.70739   0.66064   0.00000  Uiso   1.00
C335   C     0.95352   0.63442   0.62002   0.00000  Uiso   1.00
C336   C     0.25973   0.83346   0.54541   0.00000  Uiso   1.00
C337   C     0.22547   0.89314   0.57950   0.00000  Uiso   1.00
C338   C     0.19663   0.94331   0.53745   0.00000  Uiso   1.00
C339   C     0.16781   0.99355   0.57941   0.00000  Uiso   1.00
C340   C     0.36637   0.82078   0.57952   0.00000  Uiso   1.00
C341   C     0.45598   0.81011   0.53750   0.00000  Uiso   1.00
C342   C     0.54577   0.79943   0.57947   0.00000  Uiso   1.00
C343   C     0.18743   0.78648   0.57950   0.00000  Uiso   1.00
C344   C     0.12662   0.74696   0.53746   0.00000  Uiso   1.00
C345   C     0.06577   0.70739   0.57941   0.00000  Uiso   1.00
H346   H     0.25987   0.83347   0.75781   0.00000  Uiso   1.00
H347   H     0.19679   0.94330   0.76535   0.00000  Uiso   1.00
H348   H     0.45610   0.81012   0.76539   0.00000  Uiso   1.00
H349   H     0.12678   0.74698   0.76535   0.00000  Uiso   1.00
H350   H     0.12688   0.06508   0.73796   0.00000  Uiso   1.00
H351   H     0.67363   0.78422   0.73805   0.00000  Uiso   1.00
H352   H     0.97921   0.65108   0.73797   0.00000  Uiso   1.00
H353   H     0.25969   0.83346   0.48228   0.00000  Uiso   1.00
H354   H     0.19660   0.94329   0.47471   0.00000  Uiso   1.00
H355   H     0.45591   0.81011   0.47475   0.00000  Uiso   1.00
H356   H     0.12660   0.74697   0.47471   0.00000  Uiso   1.00
H357   H     0.12673   0.06507   0.50207   0.00000  Uiso   1.00
H358   H     0.67348   0.78421   0.50215   0.00000  Uiso   1.00
H359   H     0.97905   0.65108   0.50207   0.00000  Uiso   1.00
O360   O     0.08534   0.13733   0.62000   0.00000  Uiso   1.00
O361   O     0.80265   0.76885   0.62012   0.00000  Uiso   1.00
O362   O     0.89158   0.59418   0.62001   0.00000  Uiso   1.00
N363   N     0.13548   0.05000   0.68348   0.00000  Uiso   1.00
N364   N     0.64667   0.78743   0.68356   0.00000  Uiso   1.00
N365   N     0.99746   0.66294   0.68349   0.00000  Uiso   1.00
N366   N     0.13540   0.04999   0.55655   0.00000  Uiso   1.00
N367   N     0.64659   0.78742   0.55663   0.00000  Uiso   1.00
N368   N     0.99737   0.66294   0.55655   0.00000  Uiso   1.00
