data_job_00980
_audit_creation_date              2018-12-19
_audit_creation_method            'Materials Studio'
_symmetry_space_group_name_H-M    'P1'
_symmetry_Int_Tables_number       1
_symmetry_cell_setting            triclinic
loop_
_symmetry_equiv_pos_as_xyz
  x,y,z
_cell_length_a                    10.9360
_cell_length_b                    27.4429
_cell_length_c                    17.7559
_cell_angle_alpha                 90.0000
_cell_angle_beta                  90.0000
_cell_angle_gamma                 90.0000
loop_
_atom_site_label
_atom_site_type_symbol
_atom_site_fract_x
_atom_site_fract_y
_atom_site_fract_z
_atom_site_U_iso_or_equiv
_atom_site_adp_type
_atom_site_occupancy
C1     C     0.70236   0.66321   0.22480   0.00000  Uiso   1.00
C2     C     0.76172   0.63017   0.28339   0.00000  Uiso   1.00
C3     C     0.76713   0.63910   0.36025   0.00000  Uiso   1.00
C4     C     0.82547   0.60442   0.40440   0.00000  Uiso   1.00
C5     C     0.90993   0.55954   0.50018   0.00000  Uiso   1.00
C6     C     0.80163   0.67448   0.16706   0.00000  Uiso   1.00
C7     C     0.84059   0.72066   0.14610   0.00000  Uiso   1.00
C8     C     0.93251   0.72326   0.09231   0.00000  Uiso   1.00
C9     C     0.07886   0.74716   0.00744   0.00000  Uiso   1.00
C10    C     0.60813   0.63188   0.18403   0.00000  Uiso   1.00
C11    C     0.48440   0.64224   0.17732   0.00000  Uiso   1.00
C12    C     0.41342   0.60899   0.13780   0.00000  Uiso   1.00
C13    C     0.25934   0.56675   0.07929   0.00000  Uiso   1.00
C14    C     0.79632   0.58572   0.16654   0.00000  Uiso   1.00
C15    C     0.81275   0.58809   0.25174   0.00000  Uiso   1.00
C16    C     0.87109   0.55338   0.29579   0.00000  Uiso   1.00
C17    C     0.87659   0.56225   0.37270   0.00000  Uiso   1.00
C18    C     0.85266   0.63239   0.13541   0.00000  Uiso   1.00
C19    C     0.94454   0.63493   0.08163   0.00000  Uiso   1.00
C20    C     0.98363   0.68110   0.06060   0.00000  Uiso   1.00
C21    C     0.65916   0.58979   0.15238   0.00000  Uiso   1.00
C22    C     0.58836   0.55651   0.11286   0.00000  Uiso   1.00
C23    C     0.46454   0.56683   0.10610   0.00000  Uiso   1.00
H24    H     0.66263   0.69598   0.24944   0.00000  Uiso   1.00
H25    H     0.72764   0.67168   0.38472   0.00000  Uiso   1.00
H26    H     0.80107   0.75322   0.17059   0.00000  Uiso   1.00
H27    H     0.44494   0.67482   0.20182   0.00000  Uiso   1.00
H28    H     0.82226   0.62619   0.52074   0.00000  Uiso   1.00
H29    H     0.97706   0.79812   0.06923   0.00000  Uiso   1.00
H30    H     0.22610   0.63280   0.13507   0.00000  Uiso   1.00
H31    H     0.83605   0.55296   0.14190   0.00000  Uiso   1.00
H32    H     0.91057   0.52081   0.27128   0.00000  Uiso   1.00
H33    H     0.98401   0.60235   0.05715   0.00000  Uiso   1.00
H34    H     0.62788   0.52395   0.08838   0.00000  Uiso   1.00
H35    H     0.97074   0.50374   0.42867   0.00000  Uiso   1.00
H36    H     0.12554   0.67568   0.97715   0.00000  Uiso   1.00
H37    H     0.37458   0.51035   0.04299   0.00000  Uiso   1.00
O38    O     0.94243   0.54641   0.56175   0.00000  Uiso   1.00
O39    O     0.14550   0.77198   0.96938   0.00000  Uiso   1.00
O40    O     0.16026   0.55507   0.05576   0.00000  Uiso   1.00
N41    N     0.84695   0.60178   0.48132   0.00000  Uiso   1.00
N42    N     0.99170   0.76253   0.05919   0.00000  Uiso   1.00
N43    N     0.28962   0.60797   0.12072   0.00000  Uiso   1.00
N44    N     0.92685   0.53589   0.43178   0.00000  Uiso   1.00
N45    N     0.07159   0.69664   0.00965   0.00000  Uiso   1.00
N46    N     0.36951   0.54208   0.07118   0.00000  Uiso   1.00
C47    C     0.79764   0.33679   0.22480   0.00000  Uiso   1.00
C48    C     0.73828   0.36983   0.28339   0.00000  Uiso   1.00
C49    C     0.73287   0.36090   0.36025   0.00000  Uiso   1.00
C50    C     0.67453   0.39558   0.40440   0.00000  Uiso   1.00
C51    C     0.59007   0.44046   0.50018   0.00000  Uiso   1.00
C52    C     0.69837   0.32552   0.16706   0.00000  Uiso   1.00
C53    C     0.65941   0.27934   0.14610   0.00000  Uiso   1.00
C54    C     0.56749   0.27674   0.09231   0.00000  Uiso   1.00
C55    C     0.42114   0.25284   0.00744   0.00000  Uiso   1.00
C56    C     0.89187   0.36812   0.18403   0.00000  Uiso   1.00
C57    C     0.01560   0.35776   0.17732   0.00000  Uiso   1.00
C58    C     0.08658   0.39101   0.13780   0.00000  Uiso   1.00
C59    C     0.24066   0.43325   0.07929   0.00000  Uiso   1.00
C60    C     0.70368   0.41428   0.16654   0.00000  Uiso   1.00
C61    C     0.68725   0.41191   0.25174   0.00000  Uiso   1.00
C62    C     0.62891   0.44662   0.29579   0.00000  Uiso   1.00
C63    C     0.62341   0.43775   0.37270   0.00000  Uiso   1.00
C64    C     0.64734   0.36761   0.13541   0.00000  Uiso   1.00
C65    C     0.55546   0.36507   0.08163   0.00000  Uiso   1.00
C66    C     0.51637   0.31890   0.06060   0.00000  Uiso   1.00
C67    C     0.84084   0.41021   0.15238   0.00000  Uiso   1.00
C68    C     0.91164   0.44349   0.11286   0.00000  Uiso   1.00
C69    C     0.03546   0.43317   0.10610   0.00000  Uiso   1.00
H70    H     0.83737   0.30402   0.24944   0.00000  Uiso   1.00
H71    H     0.77236   0.32832   0.38472   0.00000  Uiso   1.00
H72    H     0.69893   0.24678   0.17059   0.00000  Uiso   1.00
H73    H     0.05506   0.32518   0.20182   0.00000  Uiso   1.00
H74    H     0.67774   0.37381   0.52074   0.00000  Uiso   1.00
H75    H     0.52294   0.20188   0.06923   0.00000  Uiso   1.00
H76    H     0.27390   0.36720   0.13507   0.00000  Uiso   1.00
H77    H     0.66395   0.44704   0.14190   0.00000  Uiso   1.00
H78    H     0.58943   0.47919   0.27128   0.00000  Uiso   1.00
H79    H     0.51599   0.39765   0.05715   0.00000  Uiso   1.00
H80    H     0.87212   0.47605   0.08838   0.00000  Uiso   1.00
H81    H     0.52926   0.49626   0.42867   0.00000  Uiso   1.00
H82    H     0.37446   0.32432   0.97715   0.00000  Uiso   1.00
H83    H     0.12542   0.48965   0.04299   0.00000  Uiso   1.00
O84    O     0.55757   0.45359   0.56175   0.00000  Uiso   1.00
O85    O     0.35450   0.22802   0.96938   0.00000  Uiso   1.00
O86    O     0.33974   0.44493   0.05576   0.00000  Uiso   1.00
N87    N     0.65305   0.39822   0.48132   0.00000  Uiso   1.00
N88    N     0.50830   0.23747   0.05919   0.00000  Uiso   1.00
N89    N     0.21038   0.39203   0.12072   0.00000  Uiso   1.00
N90    N     0.57315   0.46411   0.43178   0.00000  Uiso   1.00
N91    N     0.42841   0.30336   0.00965   0.00000  Uiso   1.00
N92    N     0.13049   0.45792   0.07118   0.00000  Uiso   1.00
C93    C     0.79764   0.16321   0.27520   0.00000  Uiso   1.00
C94    C     0.73828   0.13017   0.21661   0.00000  Uiso   1.00
C95    C     0.73287   0.13910   0.13975   0.00000  Uiso   1.00
C96    C     0.67453   0.10442   0.09560   0.00000  Uiso   1.00
C97    C     0.59007   0.05954   0.99982   0.00000  Uiso   1.00
C98    C     0.69837   0.17448   0.33294   0.00000  Uiso   1.00
C99    C     0.65941   0.22066   0.35390   0.00000  Uiso   1.00
C100   C     0.56749   0.22326   0.40769   0.00000  Uiso   1.00
C101   C     0.42114   0.24716   0.49256   0.00000  Uiso   1.00
C102   C     0.89187   0.13188   0.31597   0.00000  Uiso   1.00
C103   C     0.01560   0.14224   0.32268   0.00000  Uiso   1.00
C104   C     0.08658   0.10899   0.36220   0.00000  Uiso   1.00
C105   C     0.24066   0.06675   0.42071   0.00000  Uiso   1.00
C106   C     0.70368   0.08572   0.33346   0.00000  Uiso   1.00
C107   C     0.68725   0.08809   0.24826   0.00000  Uiso   1.00
C108   C     0.62891   0.05338   0.20421   0.00000  Uiso   1.00
C109   C     0.62341   0.06225   0.12730   0.00000  Uiso   1.00
C110   C     0.64734   0.13239   0.36459   0.00000  Uiso   1.00
C111   C     0.55546   0.13493   0.41837   0.00000  Uiso   1.00
C112   C     0.51637   0.18110   0.43940   0.00000  Uiso   1.00
C113   C     0.84084   0.08979   0.34762   0.00000  Uiso   1.00
C114   C     0.91164   0.05651   0.38714   0.00000  Uiso   1.00
C115   C     0.03546   0.06683   0.39390   0.00000  Uiso   1.00
H116   H     0.83737   0.19598   0.25056   0.00000  Uiso   1.00
H117   H     0.77236   0.17168   0.11528   0.00000  Uiso   1.00
H118   H     0.69893   0.25322   0.32941   0.00000  Uiso   1.00
H119   H     0.05506   0.17482   0.29818   0.00000  Uiso   1.00
H120   H     0.67774   0.12619   0.97926   0.00000  Uiso   1.00
H121   H     0.52294   0.29812   0.43077   0.00000  Uiso   1.00
H122   H     0.27390   0.13280   0.36493   0.00000  Uiso   1.00
H123   H     0.66395   0.05296   0.35810   0.00000  Uiso   1.00
H124   H     0.58943   0.02081   0.22872   0.00000  Uiso   1.00
H125   H     0.51599   0.10235   0.44285   0.00000  Uiso   1.00
H126   H     0.87212   0.02395   0.41162   0.00000  Uiso   1.00
H127   H     0.52926   0.00374   0.07133   0.00000  Uiso   1.00
H128   H     0.37446   0.17568   0.52285   0.00000  Uiso   1.00
H129   H     0.12542   0.01035   0.45701   0.00000  Uiso   1.00
O130   O     0.55757   0.04641   0.93825   0.00000  Uiso   1.00
O131   O     0.35450   0.27198   0.53062   0.00000  Uiso   1.00
O132   O     0.33974   0.05507   0.44424   0.00000  Uiso   1.00
N133   N     0.65305   0.10178   0.01868   0.00000  Uiso   1.00
N134   N     0.50830   0.26253   0.44081   0.00000  Uiso   1.00
N135   N     0.21038   0.10797   0.37928   0.00000  Uiso   1.00
N136   N     0.57315   0.03589   0.06822   0.00000  Uiso   1.00
N137   N     0.42841   0.19664   0.49035   0.00000  Uiso   1.00
N138   N     0.13049   0.04208   0.42882   0.00000  Uiso   1.00
C139   C     0.70236   0.83679   0.27520   0.00000  Uiso   1.00
C140   C     0.76172   0.86983   0.21661   0.00000  Uiso   1.00
C141   C     0.76713   0.86090   0.13975   0.00000  Uiso   1.00
C142   C     0.82547   0.89558   0.09560   0.00000  Uiso   1.00
C143   C     0.90993   0.94046   0.99982   0.00000  Uiso   1.00
C144   C     0.80163   0.82552   0.33294   0.00000  Uiso   1.00
C145   C     0.84059   0.77934   0.35390   0.00000  Uiso   1.00
C146   C     0.93251   0.77674   0.40769   0.00000  Uiso   1.00
C147   C     0.07886   0.75284   0.49256   0.00000  Uiso   1.00
C148   C     0.60813   0.86812   0.31597   0.00000  Uiso   1.00
C149   C     0.48440   0.85776   0.32268   0.00000  Uiso   1.00
C150   C     0.41342   0.89101   0.36220   0.00000  Uiso   1.00
C151   C     0.25934   0.93325   0.42071   0.00000  Uiso   1.00
C152   C     0.79632   0.91428   0.33346   0.00000  Uiso   1.00
C153   C     0.81275   0.91191   0.24826   0.00000  Uiso   1.00
C154   C     0.87109   0.94662   0.20421   0.00000  Uiso   1.00
C155   C     0.87659   0.93775   0.12730   0.00000  Uiso   1.00
C156   C     0.85266   0.86761   0.36459   0.00000  Uiso   1.00
C157   C     0.94454   0.86507   0.41837   0.00000  Uiso   1.00
C158   C     0.98363   0.81890   0.43940   0.00000  Uiso   1.00
C159   C     0.65916   0.91021   0.34762   0.00000  Uiso   1.00
C160   C     0.58836   0.94349   0.38714   0.00000  Uiso   1.00
C161   C     0.46454   0.93317   0.39390   0.00000  Uiso   1.00
H162   H     0.66263   0.80402   0.25056   0.00000  Uiso   1.00
H163   H     0.72764   0.82832   0.11528   0.00000  Uiso   1.00
H164   H     0.80107   0.74678   0.32941   0.00000  Uiso   1.00
H165   H     0.44494   0.82518   0.29818   0.00000  Uiso   1.00
H166   H     0.82226   0.87381   0.97926   0.00000  Uiso   1.00
H167   H     0.97706   0.70188   0.43077   0.00000  Uiso   1.00
H168   H     0.22610   0.86720   0.36493   0.00000  Uiso   1.00
H169   H     0.83605   0.94704   0.35810   0.00000  Uiso   1.00
H170   H     0.91057   0.97919   0.22872   0.00000  Uiso   1.00
H171   H     0.98401   0.89765   0.44285   0.00000  Uiso   1.00
H172   H     0.62788   0.97605   0.41162   0.00000  Uiso   1.00
H173   H     0.97074   0.99626   0.07133   0.00000  Uiso   1.00
H174   H     0.12554   0.82432   0.52285   0.00000  Uiso   1.00
H175   H     0.37458   0.98965   0.45701   0.00000  Uiso   1.00
O176   O     0.94243   0.95359   0.93825   0.00000  Uiso   1.00
O177   O     0.14550   0.72802   0.53062   0.00000  Uiso   1.00
O178   O     0.16026   0.94493   0.44424   0.00000  Uiso   1.00
N179   N     0.84695   0.89822   0.01868   0.00000  Uiso   1.00
N180   N     0.99170   0.73747   0.44081   0.00000  Uiso   1.00
N181   N     0.28962   0.89203   0.37928   0.00000  Uiso   1.00
N182   N     0.92685   0.96411   0.06822   0.00000  Uiso   1.00
N183   N     0.07159   0.80336   0.49035   0.00000  Uiso   1.00
N184   N     0.36951   0.95792   0.42882   0.00000  Uiso   1.00
C185   C     0.29764   0.33679   0.77520   0.00000  Uiso   1.00
C186   C     0.23828   0.36983   0.71661   0.00000  Uiso   1.00
C187   C     0.23287   0.36090   0.63975   0.00000  Uiso   1.00
C188   C     0.17453   0.39558   0.59560   0.00000  Uiso   1.00
C189   C     0.09007   0.44046   0.49982   0.00000  Uiso   1.00
C190   C     0.19837   0.32552   0.83294   0.00000  Uiso   1.00
C191   C     0.15941   0.27934   0.85390   0.00000  Uiso   1.00
C192   C     0.06749   0.27674   0.90769   0.00000  Uiso   1.00
C193   C     0.92114   0.25284   0.99256   0.00000  Uiso   1.00
C194   C     0.39187   0.36812   0.81597   0.00000  Uiso   1.00
C195   C     0.51560   0.35776   0.82268   0.00000  Uiso   1.00
C196   C     0.58658   0.39101   0.86220   0.00000  Uiso   1.00
C197   C     0.74066   0.43325   0.92071   0.00000  Uiso   1.00
C198   C     0.20368   0.41428   0.83346   0.00000  Uiso   1.00
C199   C     0.18725   0.41191   0.74826   0.00000  Uiso   1.00
C200   C     0.12891   0.44662   0.70421   0.00000  Uiso   1.00
C201   C     0.12341   0.43775   0.62730   0.00000  Uiso   1.00
C202   C     0.14734   0.36761   0.86459   0.00000  Uiso   1.00
C203   C     0.05546   0.36507   0.91837   0.00000  Uiso   1.00
C204   C     0.01637   0.31890   0.93940   0.00000  Uiso   1.00
C205   C     0.34084   0.41021   0.84762   0.00000  Uiso   1.00
C206   C     0.41164   0.44349   0.88714   0.00000  Uiso   1.00
C207   C     0.53546   0.43317   0.89390   0.00000  Uiso   1.00
H208   H     0.33737   0.30402   0.75056   0.00000  Uiso   1.00
H209   H     0.27236   0.32832   0.61528   0.00000  Uiso   1.00
H210   H     0.19893   0.24678   0.82941   0.00000  Uiso   1.00
H211   H     0.55506   0.32518   0.79818   0.00000  Uiso   1.00
H212   H     0.17774   0.37381   0.47926   0.00000  Uiso   1.00
H213   H     0.02294   0.20188   0.93077   0.00000  Uiso   1.00
H214   H     0.77390   0.36720   0.86493   0.00000  Uiso   1.00
H215   H     0.16395   0.44704   0.85810   0.00000  Uiso   1.00
H216   H     0.08943   0.47919   0.72872   0.00000  Uiso   1.00
H217   H     0.01599   0.39765   0.94285   0.00000  Uiso   1.00
H218   H     0.37212   0.47605   0.91162   0.00000  Uiso   1.00
H219   H     0.02926   0.49626   0.57133   0.00000  Uiso   1.00
H220   H     0.87446   0.32432   0.02285   0.00000  Uiso   1.00
H221   H     0.62542   0.48965   0.95701   0.00000  Uiso   1.00
O222   O     0.05757   0.45359   0.43825   0.00000  Uiso   1.00
O223   O     0.85450   0.22802   0.03062   0.00000  Uiso   1.00
O224   O     0.83974   0.44493   0.94424   0.00000  Uiso   1.00
N225   N     0.15305   0.39822   0.51868   0.00000  Uiso   1.00
N226   N     0.00830   0.23747   0.94081   0.00000  Uiso   1.00
N227   N     0.71038   0.39203   0.87928   0.00000  Uiso   1.00
N228   N     0.07315   0.46411   0.56822   0.00000  Uiso   1.00
N229   N     0.92841   0.30336   0.99035   0.00000  Uiso   1.00
N230   N     0.63049   0.45792   0.92882   0.00000  Uiso   1.00
C231   C     0.20236   0.66321   0.77520   0.00000  Uiso   1.00
C232   C     0.26172   0.63017   0.71661   0.00000  Uiso   1.00
C233   C     0.26713   0.63910   0.63975   0.00000  Uiso   1.00
C234   C     0.32547   0.60442   0.59560   0.00000  Uiso   1.00
C235   C     0.40993   0.55954   0.49982   0.00000  Uiso   1.00
C236   C     0.30163   0.67448   0.83294   0.00000  Uiso   1.00
C237   C     0.34059   0.72066   0.85390   0.00000  Uiso   1.00
C238   C     0.43251   0.72326   0.90769   0.00000  Uiso   1.00
C239   C     0.57886   0.74716   0.99256   0.00000  Uiso   1.00
C240   C     0.10813   0.63188   0.81597   0.00000  Uiso   1.00
C241   C     0.98440   0.64224   0.82268   0.00000  Uiso   1.00
C242   C     0.91342   0.60899   0.86220   0.00000  Uiso   1.00
C243   C     0.75934   0.56675   0.92071   0.00000  Uiso   1.00
C244   C     0.29632   0.58572   0.83346   0.00000  Uiso   1.00
C245   C     0.31275   0.58809   0.74826   0.00000  Uiso   1.00
C246   C     0.37109   0.55338   0.70421   0.00000  Uiso   1.00
C247   C     0.37659   0.56225   0.62730   0.00000  Uiso   1.00
C248   C     0.35266   0.63239   0.86459   0.00000  Uiso   1.00
C249   C     0.44454   0.63493   0.91837   0.00000  Uiso   1.00
C250   C     0.48363   0.68110   0.93940   0.00000  Uiso   1.00
C251   C     0.15916   0.58979   0.84762   0.00000  Uiso   1.00
C252   C     0.08836   0.55651   0.88714   0.00000  Uiso   1.00
C253   C     0.96454   0.56683   0.89390   0.00000  Uiso   1.00
H254   H     0.16263   0.69598   0.75056   0.00000  Uiso   1.00
H255   H     0.22764   0.67168   0.61528   0.00000  Uiso   1.00
H256   H     0.30107   0.75322   0.82941   0.00000  Uiso   1.00
H257   H     0.94494   0.67482   0.79818   0.00000  Uiso   1.00
H258   H     0.32226   0.62619   0.47926   0.00000  Uiso   1.00
H259   H     0.47706   0.79812   0.93077   0.00000  Uiso   1.00
H260   H     0.72610   0.63280   0.86493   0.00000  Uiso   1.00
H261   H     0.33605   0.55296   0.85810   0.00000  Uiso   1.00
H262   H     0.41057   0.52081   0.72872   0.00000  Uiso   1.00
H263   H     0.48401   0.60235   0.94285   0.00000  Uiso   1.00
H264   H     0.12788   0.52395   0.91162   0.00000  Uiso   1.00
H265   H     0.47074   0.50374   0.57133   0.00000  Uiso   1.00
H266   H     0.62554   0.67568   0.02285   0.00000  Uiso   1.00
H267   H     0.87458   0.51035   0.95701   0.00000  Uiso   1.00
O268   O     0.44243   0.54641   0.43825   0.00000  Uiso   1.00
O269   O     0.64550   0.77198   0.03062   0.00000  Uiso   1.00
O270   O     0.66026   0.55507   0.94424   0.00000  Uiso   1.00
N271   N     0.34695   0.60178   0.51868   0.00000  Uiso   1.00
N272   N     0.49170   0.76253   0.94081   0.00000  Uiso   1.00
N273   N     0.78962   0.60797   0.87928   0.00000  Uiso   1.00
N274   N     0.42685   0.53589   0.56822   0.00000  Uiso   1.00
N275   N     0.57159   0.69664   0.99035   0.00000  Uiso   1.00
N276   N     0.86951   0.54208   0.92882   0.00000  Uiso   1.00
C277   C     0.20236   0.83679   0.72480   0.00000  Uiso   1.00
C278   C     0.26172   0.86983   0.78339   0.00000  Uiso   1.00
C279   C     0.26713   0.86090   0.86025   0.00000  Uiso   1.00
C280   C     0.32547   0.89558   0.90440   0.00000  Uiso   1.00
C281   C     0.40993   0.94046   0.00018   0.00000  Uiso   1.00
C282   C     0.30163   0.82552   0.66706   0.00000  Uiso   1.00
C283   C     0.34059   0.77934   0.64610   0.00000  Uiso   1.00
C284   C     0.43251   0.77674   0.59231   0.00000  Uiso   1.00
C285   C     0.57886   0.75284   0.50744   0.00000  Uiso   1.00
C286   C     0.10813   0.86812   0.68403   0.00000  Uiso   1.00
C287   C     0.98440   0.85776   0.67732   0.00000  Uiso   1.00
C288   C     0.91342   0.89101   0.63780   0.00000  Uiso   1.00
C289   C     0.75934   0.93325   0.57929   0.00000  Uiso   1.00
C290   C     0.29632   0.91428   0.66654   0.00000  Uiso   1.00
C291   C     0.31275   0.91191   0.75174   0.00000  Uiso   1.00
C292   C     0.37109   0.94662   0.79579   0.00000  Uiso   1.00
C293   C     0.37659   0.93775   0.87270   0.00000  Uiso   1.00
C294   C     0.35266   0.86761   0.63541   0.00000  Uiso   1.00
C295   C     0.44454   0.86507   0.58163   0.00000  Uiso   1.00
C296   C     0.48363   0.81890   0.56060   0.00000  Uiso   1.00
C297   C     0.15916   0.91021   0.65238   0.00000  Uiso   1.00
C298   C     0.08836   0.94349   0.61286   0.00000  Uiso   1.00
C299   C     0.96454   0.93317   0.60610   0.00000  Uiso   1.00
H300   H     0.16263   0.80402   0.74944   0.00000  Uiso   1.00
H301   H     0.22764   0.82832   0.88472   0.00000  Uiso   1.00
H302   H     0.30107   0.74678   0.67059   0.00000  Uiso   1.00
H303   H     0.94494   0.82518   0.70182   0.00000  Uiso   1.00
H304   H     0.32226   0.87381   0.02074   0.00000  Uiso   1.00
H305   H     0.47706   0.70188   0.56923   0.00000  Uiso   1.00
H306   H     0.72610   0.86720   0.63507   0.00000  Uiso   1.00
H307   H     0.33605   0.94704   0.64190   0.00000  Uiso   1.00
H308   H     0.41057   0.97919   0.77128   0.00000  Uiso   1.00
H309   H     0.48401   0.89765   0.55715   0.00000  Uiso   1.00
H310   H     0.12788   0.97605   0.58838   0.00000  Uiso   1.00
H311   H     0.47074   0.99626   0.92867   0.00000  Uiso   1.00
H312   H     0.62554   0.82432   0.47715   0.00000  Uiso   1.00
H313   H     0.87458   0.98965   0.54299   0.00000  Uiso   1.00
O314   O     0.44243   0.95359   0.06175   0.00000  Uiso   1.00
O315   O     0.64550   0.72802   0.46938   0.00000  Uiso   1.00
O316   O     0.66026   0.94493   0.55576   0.00000  Uiso   1.00
N317   N     0.34695   0.89822   0.98132   0.00000  Uiso   1.00
N318   N     0.49170   0.73747   0.55919   0.00000  Uiso   1.00
N319   N     0.78962   0.89203   0.62072   0.00000  Uiso   1.00
N320   N     0.42685   0.96411   0.93178   0.00000  Uiso   1.00
N321   N     0.57159   0.80336   0.50965   0.00000  Uiso   1.00
N322   N     0.86951   0.95792   0.57118   0.00000  Uiso   1.00
C323   C     0.29764   0.16321   0.72480   0.00000  Uiso   1.00
C324   C     0.23828   0.13017   0.78339   0.00000  Uiso   1.00
C325   C     0.23287   0.13910   0.86025   0.00000  Uiso   1.00
C326   C     0.17453   0.10442   0.90440   0.00000  Uiso   1.00
C327   C     0.09007   0.05954   0.00018   0.00000  Uiso   1.00
C328   C     0.19837   0.17448   0.66706   0.00000  Uiso   1.00
C329   C     0.15941   0.22066   0.64610   0.00000  Uiso   1.00
C330   C     0.06749   0.22326   0.59231   0.00000  Uiso   1.00
C331   C     0.92114   0.24716   0.50744   0.00000  Uiso   1.00
C332   C     0.39187   0.13188   0.68403   0.00000  Uiso   1.00
C333   C     0.51560   0.14224   0.67732   0.00000  Uiso   1.00
C334   C     0.58658   0.10899   0.63780   0.00000  Uiso   1.00
C335   C     0.74066   0.06675   0.57929   0.00000  Uiso   1.00
C336   C     0.20368   0.08572   0.66654   0.00000  Uiso   1.00
C337   C     0.18725   0.08809   0.75174   0.00000  Uiso   1.00
C338   C     0.12891   0.05338   0.79579   0.00000  Uiso   1.00
C339   C     0.12341   0.06225   0.87270   0.00000  Uiso   1.00
C340   C     0.14734   0.13239   0.63541   0.00000  Uiso   1.00
C341   C     0.05546   0.13493   0.58163   0.00000  Uiso   1.00
C342   C     0.01637   0.18110   0.56060   0.00000  Uiso   1.00
C343   C     0.34084   0.08979   0.65238   0.00000  Uiso   1.00
C344   C     0.41164   0.05651   0.61286   0.00000  Uiso   1.00
C345   C     0.53546   0.06683   0.60610   0.00000  Uiso   1.00
H346   H     0.33737   0.19598   0.74944   0.00000  Uiso   1.00
H347   H     0.27236   0.17168   0.88472   0.00000  Uiso   1.00
H348   H     0.19893   0.25322   0.67059   0.00000  Uiso   1.00
H349   H     0.55506   0.17482   0.70182   0.00000  Uiso   1.00
H350   H     0.17774   0.12619   0.02074   0.00000  Uiso   1.00
H351   H     0.02294   0.29812   0.56923   0.00000  Uiso   1.00
H352   H     0.77390   0.13280   0.63507   0.00000  Uiso   1.00
H353   H     0.16395   0.05296   0.64190   0.00000  Uiso   1.00
H354   H     0.08943   0.02081   0.77128   0.00000  Uiso   1.00
H355   H     0.01599   0.10235   0.55715   0.00000  Uiso   1.00
H356   H     0.37212   0.02395   0.58838   0.00000  Uiso   1.00
H357   H     0.02926   0.00374   0.92867   0.00000  Uiso   1.00
H358   H     0.87446   0.17568   0.47715   0.00000  Uiso   1.00
H359   H     0.62542   0.01035   0.54299   0.00000  Uiso   1.00
O360   O     0.05757   0.04641   0.06175   0.00000  Uiso   1.00
O361   O     0.85450   0.27198   0.46938   0.00000  Uiso   1.00
O362   O     0.83974   0.05507   0.55576   0.00000  Uiso   1.00
N363   N     0.15305   0.10178   0.98132   0.00000  Uiso   1.00
N364   N     0.00830   0.26253   0.55919   0.00000  Uiso   1.00
N365   N     0.71038   0.10797   0.62072   0.00000  Uiso   1.00
N366   N     0.07315   0.03589   0.93178   0.00000  Uiso   1.00
N367   N     0.92841   0.19664   0.50965   0.00000  Uiso   1.00
N368   N     0.63049   0.04208   0.57118   0.00000  Uiso   1.00
