data_job_03331
_audit_creation_date              2018-12-19
_audit_creation_method            'Materials Studio'
_symmetry_space_group_name_H-M    'P1'
_symmetry_Int_Tables_number       1
_symmetry_cell_setting            triclinic
loop_
_symmetry_equiv_pos_as_xyz
  x,y,z
_cell_length_a                    13.2521
_cell_length_b                    13.2521
_cell_length_c                    29.9032
_cell_angle_alpha                 90.0000
_cell_angle_beta                  90.0000
_cell_angle_gamma                 90.0000
loop_
_atom_site_label
_atom_site_type_symbol
_atom_site_fract_x
_atom_site_fract_y
_atom_site_fract_z
_atom_site_U_iso_or_equiv
_atom_site_adp_type
_atom_site_occupancy
C1     C     0.25417   0.96158   0.83672   0.00000  Uiso   1.00
C2     C     0.30856   0.87463   0.85984   0.00000  Uiso   1.00
C3     C     0.40549   0.84138   0.85028   0.00000  Uiso   1.00
C4     C     0.44168   0.76070   0.87518   0.00000  Uiso   1.00
C5     C     0.53505   0.63261   0.90601   0.00000  Uiso   1.00
C6     C     0.15602   0.91765   0.81856   0.00000  Uiso   1.00
C7     C     0.12470   0.92060   0.77429   0.00000  Uiso   1.00
C8     C     0.03247   0.87614   0.76444   0.00000  Uiso   1.00
C9     C     0.88898   0.81492   0.73118   0.00000  Uiso   1.00
C10    C     0.22384   0.03477   0.87370   0.00000  Uiso   1.00
C11    C     0.24951   0.13619   0.87579   0.00000  Uiso   1.00
C12    C     0.21435   0.19034   0.91236   0.00000  Uiso   1.00
C13    C     0.17616   0.31094   0.96472   0.00000  Uiso   1.00
C14    C     0.14606   0.87741   0.89793   0.00000  Uiso   1.00
C15    C     0.24984   0.82891   0.89309   0.00000  Uiso   1.00
C16    C     0.28589   0.74826   0.91801   0.00000  Uiso   1.00
C17    C     0.38286   0.71490   0.90849   0.00000  Uiso   1.00
C18    C     0.09730   0.87194   0.85181   0.00000  Uiso   1.00
C19    C     0.00509   0.82747   0.84202   0.00000  Uiso   1.00
C20    C     0.97364   0.83034   0.79775   0.00000  Uiso   1.00
C21    C     0.16512   0.98905   0.90695   0.00000  Uiso   1.00
C22    C     0.12991   0.04306   0.94352   0.00000  Uiso   1.00
C23    C     0.15553   0.14453   0.94567   0.00000  Uiso   1.00
H24    H     0.29988   0.99717   0.81083   0.00000  Uiso   1.00
H25    H     0.45091   0.87678   0.82454   0.00000  Uiso   1.00
H26    H     0.17015   0.95599   0.74857   0.00000  Uiso   1.00
H27    H     0.29495   0.17154   0.85005   0.00000  Uiso   1.00
H28    H     0.59244   0.72312   0.85440   0.00000  Uiso   1.00
H29    H     0.00043   0.89017   0.69420   0.00000  Uiso   1.00
H30    H     0.26359   0.34470   0.90821   0.00000  Uiso   1.00
H31    H     0.10035   0.84181   0.92382   0.00000  Uiso   1.00
H32    H     0.24043   0.71289   0.94374   0.00000  Uiso   1.00
H33    H     0.95967   0.79211   0.86776   0.00000  Uiso   1.00
H34    H     0.08447   0.00765   0.96925   0.00000  Uiso   1.00
H35    H     0.42161   0.59010   0.95115   0.00000  Uiso   1.00
H36    H     0.82960   0.75715   0.79094   0.00000  Uiso   1.00
H37    H     0.09276   0.21168   0.00495   0.00000  Uiso   1.00
O38    O     0.60277   0.57458   0.91383   0.00000  Uiso   1.00
O39    O     0.82607   0.79377   0.70365   0.00000  Uiso   1.00
O40    O     0.17133   0.39009   0.98442   0.00000  Uiso   1.00
N41    N     0.53302   0.70951   0.87444   0.00000  Uiso   1.00
N42    N     0.97954   0.86568   0.72466   0.00000  Uiso   1.00
N43    N     0.22554   0.29064   0.92473   0.00000  Uiso   1.00
N44    N     0.44110   0.63794   0.92650   0.00000  Uiso   1.00
N45    N     0.88761   0.79411   0.77672   0.00000  Uiso   1.00
N46    N     0.13362   0.21906   0.97679   0.00000  Uiso   1.00
C47    C     0.74583   0.03842   0.83672   0.00000  Uiso   1.00
C48    C     0.69144   0.12537   0.85984   0.00000  Uiso   1.00
C49    C     0.59451   0.15862   0.85028   0.00000  Uiso   1.00
C50    C     0.55832   0.23930   0.87518   0.00000  Uiso   1.00
C51    C     0.46495   0.36739   0.90601   0.00000  Uiso   1.00
C52    C     0.84398   0.08235   0.81856   0.00000  Uiso   1.00
C53    C     0.87530   0.07940   0.77429   0.00000  Uiso   1.00
C54    C     0.96753   0.12386   0.76444   0.00000  Uiso   1.00
C55    C     0.11102   0.18508   0.73118   0.00000  Uiso   1.00
C56    C     0.77616   0.96523   0.87370   0.00000  Uiso   1.00
C57    C     0.75049   0.86381   0.87579   0.00000  Uiso   1.00
C58    C     0.78565   0.80966   0.91236   0.00000  Uiso   1.00
C59    C     0.82384   0.68906   0.96472   0.00000  Uiso   1.00
C60    C     0.85394   0.12259   0.89793   0.00000  Uiso   1.00
C61    C     0.75016   0.17109   0.89309   0.00000  Uiso   1.00
C62    C     0.71411   0.25174   0.91801   0.00000  Uiso   1.00
C63    C     0.61714   0.28510   0.90849   0.00000  Uiso   1.00
C64    C     0.90270   0.12806   0.85181   0.00000  Uiso   1.00
C65    C     0.99491   0.17253   0.84202   0.00000  Uiso   1.00
C66    C     0.02636   0.16966   0.79775   0.00000  Uiso   1.00
C67    C     0.83488   0.01095   0.90695   0.00000  Uiso   1.00
C68    C     0.87009   0.95694   0.94352   0.00000  Uiso   1.00
C69    C     0.84447   0.85547   0.94567   0.00000  Uiso   1.00
H70    H     0.70012   0.00283   0.81083   0.00000  Uiso   1.00
H71    H     0.54909   0.12322   0.82454   0.00000  Uiso   1.00
H72    H     0.82985   0.04401   0.74857   0.00000  Uiso   1.00
H73    H     0.70505   0.82846   0.85005   0.00000  Uiso   1.00
H74    H     0.40756   0.27688   0.85440   0.00000  Uiso   1.00
H75    H     0.99957   0.10983   0.69420   0.00000  Uiso   1.00
H76    H     0.73641   0.65530   0.90821   0.00000  Uiso   1.00
H77    H     0.89965   0.15819   0.92382   0.00000  Uiso   1.00
H78    H     0.75957   0.28711   0.94374   0.00000  Uiso   1.00
H79    H     0.04033   0.20789   0.86776   0.00000  Uiso   1.00
H80    H     0.91553   0.99235   0.96925   0.00000  Uiso   1.00
H81    H     0.57839   0.40990   0.95115   0.00000  Uiso   1.00
H82    H     0.17040   0.24285   0.79094   0.00000  Uiso   1.00
H83    H     0.90724   0.78832   0.00495   0.00000  Uiso   1.00
O84    O     0.39723   0.42542   0.91383   0.00000  Uiso   1.00
O85    O     0.17393   0.20623   0.70365   0.00000  Uiso   1.00
O86    O     0.82867   0.60991   0.98442   0.00000  Uiso   1.00
N87    N     0.46698   0.29049   0.87444   0.00000  Uiso   1.00
N88    N     0.02046   0.13432   0.72466   0.00000  Uiso   1.00
N89    N     0.77446   0.70936   0.92473   0.00000  Uiso   1.00
N90    N     0.55890   0.36206   0.92650   0.00000  Uiso   1.00
N91    N     0.11239   0.20589   0.77672   0.00000  Uiso   1.00
N92    N     0.86638   0.78094   0.97679   0.00000  Uiso   1.00
C93    C     0.53842   0.75417   0.33672   0.00000  Uiso   1.00
C94    C     0.62537   0.80856   0.35984   0.00000  Uiso   1.00
C95    C     0.65862   0.90549   0.35028   0.00000  Uiso   1.00
C96    C     0.73930   0.94168   0.37518   0.00000  Uiso   1.00
C97    C     0.86739   0.03505   0.40601   0.00000  Uiso   1.00
C98    C     0.58235   0.65602   0.31856   0.00000  Uiso   1.00
C99    C     0.57940   0.62470   0.27429   0.00000  Uiso   1.00
C100   C     0.62386   0.53247   0.26444   0.00000  Uiso   1.00
C101   C     0.68508   0.38898   0.23118   0.00000  Uiso   1.00
C102   C     0.46523   0.72384   0.37370   0.00000  Uiso   1.00
C103   C     0.36381   0.74951   0.37579   0.00000  Uiso   1.00
C104   C     0.30966   0.71435   0.41236   0.00000  Uiso   1.00
C105   C     0.18906   0.67616   0.46472   0.00000  Uiso   1.00
C106   C     0.62259   0.64606   0.39793   0.00000  Uiso   1.00
C107   C     0.67109   0.74984   0.39309   0.00000  Uiso   1.00
C108   C     0.75174   0.78589   0.41801   0.00000  Uiso   1.00
C109   C     0.78510   0.88286   0.40849   0.00000  Uiso   1.00
C110   C     0.62806   0.59730   0.35181   0.00000  Uiso   1.00
C111   C     0.67253   0.50509   0.34202   0.00000  Uiso   1.00
C112   C     0.66966   0.47364   0.29775   0.00000  Uiso   1.00
C113   C     0.51095   0.66512   0.40695   0.00000  Uiso   1.00
C114   C     0.45694   0.62991   0.44352   0.00000  Uiso   1.00
C115   C     0.35547   0.65553   0.44567   0.00000  Uiso   1.00
H116   H     0.50283   0.79988   0.31083   0.00000  Uiso   1.00
H117   H     0.62322   0.95091   0.32454   0.00000  Uiso   1.00
H118   H     0.54401   0.67015   0.24857   0.00000  Uiso   1.00
H119   H     0.32846   0.79495   0.35005   0.00000  Uiso   1.00
H120   H     0.77688   0.09244   0.35440   0.00000  Uiso   1.00
H121   H     0.60983   0.50043   0.19420   0.00000  Uiso   1.00
H122   H     0.15530   0.76359   0.40821   0.00000  Uiso   1.00
H123   H     0.65819   0.60035   0.42382   0.00000  Uiso   1.00
H124   H     0.78711   0.74043   0.44374   0.00000  Uiso   1.00
H125   H     0.70789   0.45967   0.36776   0.00000  Uiso   1.00
H126   H     0.49235   0.58447   0.46925   0.00000  Uiso   1.00
H127   H     0.90990   0.92161   0.45115   0.00000  Uiso   1.00
H128   H     0.74285   0.32960   0.29094   0.00000  Uiso   1.00
H129   H     0.28832   0.59276   0.50495   0.00000  Uiso   1.00
O130   O     0.92542   0.10277   0.41383   0.00000  Uiso   1.00
O131   O     0.70623   0.32607   0.20365   0.00000  Uiso   1.00
O132   O     0.10991   0.67133   0.48442   0.00000  Uiso   1.00
N133   N     0.79049   0.03302   0.37444   0.00000  Uiso   1.00
N134   N     0.63432   0.47954   0.22466   0.00000  Uiso   1.00
N135   N     0.20936   0.72554   0.42473   0.00000  Uiso   1.00
N136   N     0.86206   0.94110   0.42650   0.00000  Uiso   1.00
N137   N     0.70589   0.38761   0.27672   0.00000  Uiso   1.00
N138   N     0.28094   0.63362   0.47679   0.00000  Uiso   1.00
C139   C     0.46158   0.24583   0.33672   0.00000  Uiso   1.00
C140   C     0.37463   0.19144   0.35984   0.00000  Uiso   1.00
C141   C     0.34138   0.09451   0.35028   0.00000  Uiso   1.00
C142   C     0.26070   0.05832   0.37518   0.00000  Uiso   1.00
C143   C     0.13261   0.96495   0.40601   0.00000  Uiso   1.00
C144   C     0.41765   0.34398   0.31856   0.00000  Uiso   1.00
C145   C     0.42060   0.37530   0.27429   0.00000  Uiso   1.00
C146   C     0.37614   0.46753   0.26444   0.00000  Uiso   1.00
C147   C     0.31492   0.61102   0.23118   0.00000  Uiso   1.00
C148   C     0.53477   0.27616   0.37370   0.00000  Uiso   1.00
C149   C     0.63619   0.25049   0.37579   0.00000  Uiso   1.00
C150   C     0.69034   0.28565   0.41236   0.00000  Uiso   1.00
C151   C     0.81094   0.32384   0.46472   0.00000  Uiso   1.00
C152   C     0.37741   0.35394   0.39793   0.00000  Uiso   1.00
C153   C     0.32891   0.25016   0.39309   0.00000  Uiso   1.00
C154   C     0.24826   0.21411   0.41801   0.00000  Uiso   1.00
C155   C     0.21490   0.11714   0.40849   0.00000  Uiso   1.00
C156   C     0.37194   0.40270   0.35181   0.00000  Uiso   1.00
C157   C     0.32747   0.49491   0.34202   0.00000  Uiso   1.00
C158   C     0.33034   0.52636   0.29775   0.00000  Uiso   1.00
C159   C     0.48905   0.33488   0.40695   0.00000  Uiso   1.00
C160   C     0.54306   0.37009   0.44352   0.00000  Uiso   1.00
C161   C     0.64453   0.34447   0.44567   0.00000  Uiso   1.00
H162   H     0.49717   0.20012   0.31083   0.00000  Uiso   1.00
H163   H     0.37678   0.04909   0.32454   0.00000  Uiso   1.00
H164   H     0.45599   0.32985   0.24857   0.00000  Uiso   1.00
H165   H     0.67154   0.20505   0.35005   0.00000  Uiso   1.00
H166   H     0.22312   0.90756   0.35440   0.00000  Uiso   1.00
H167   H     0.39017   0.49957   0.19420   0.00000  Uiso   1.00
H168   H     0.84470   0.23641   0.40821   0.00000  Uiso   1.00
H169   H     0.34181   0.39965   0.42382   0.00000  Uiso   1.00
H170   H     0.21289   0.25957   0.44374   0.00000  Uiso   1.00
H171   H     0.29211   0.54033   0.36776   0.00000  Uiso   1.00
H172   H     0.50765   0.41553   0.46925   0.00000  Uiso   1.00
H173   H     0.09010   0.07839   0.45115   0.00000  Uiso   1.00
H174   H     0.25715   0.67040   0.29094   0.00000  Uiso   1.00
H175   H     0.71168   0.40724   0.50495   0.00000  Uiso   1.00
O176   O     0.07458   0.89723   0.41383   0.00000  Uiso   1.00
O177   O     0.29377   0.67393   0.20365   0.00000  Uiso   1.00
O178   O     0.89009   0.32867   0.48442   0.00000  Uiso   1.00
N179   N     0.20951   0.96698   0.37444   0.00000  Uiso   1.00
N180   N     0.36568   0.52046   0.22466   0.00000  Uiso   1.00
N181   N     0.79064   0.27446   0.42473   0.00000  Uiso   1.00
N182   N     0.13794   0.05890   0.42650   0.00000  Uiso   1.00
N183   N     0.29411   0.61239   0.27672   0.00000  Uiso   1.00
N184   N     0.71906   0.36638   0.47679   0.00000  Uiso   1.00
C185   C     0.24583   0.53842   0.66328   0.00000  Uiso   1.00
C186   C     0.19144   0.62537   0.64016   0.00000  Uiso   1.00
C187   C     0.09451   0.65862   0.64972   0.00000  Uiso   1.00
C188   C     0.05832   0.73930   0.62482   0.00000  Uiso   1.00
C189   C     0.96495   0.86739   0.59399   0.00000  Uiso   1.00
C190   C     0.34398   0.58235   0.68144   0.00000  Uiso   1.00
C191   C     0.37530   0.57940   0.72571   0.00000  Uiso   1.00
C192   C     0.46753   0.62386   0.73556   0.00000  Uiso   1.00
C193   C     0.61102   0.68508   0.76882   0.00000  Uiso   1.00
C194   C     0.27616   0.46523   0.62630   0.00000  Uiso   1.00
C195   C     0.25049   0.36381   0.62421   0.00000  Uiso   1.00
C196   C     0.28565   0.30966   0.58764   0.00000  Uiso   1.00
C197   C     0.32384   0.18906   0.53528   0.00000  Uiso   1.00
C198   C     0.35394   0.62259   0.60207   0.00000  Uiso   1.00
C199   C     0.25016   0.67109   0.60691   0.00000  Uiso   1.00
C200   C     0.21411   0.75174   0.58199   0.00000  Uiso   1.00
C201   C     0.11714   0.78510   0.59151   0.00000  Uiso   1.00
C202   C     0.40270   0.62806   0.64819   0.00000  Uiso   1.00
C203   C     0.49491   0.67253   0.65798   0.00000  Uiso   1.00
C204   C     0.52636   0.66966   0.70225   0.00000  Uiso   1.00
C205   C     0.33488   0.51095   0.59305   0.00000  Uiso   1.00
C206   C     0.37009   0.45694   0.55648   0.00000  Uiso   1.00
C207   C     0.34447   0.35547   0.55433   0.00000  Uiso   1.00
H208   H     0.20012   0.50283   0.68917   0.00000  Uiso   1.00
H209   H     0.04909   0.62322   0.67546   0.00000  Uiso   1.00
H210   H     0.32985   0.54401   0.75143   0.00000  Uiso   1.00
H211   H     0.20505   0.32846   0.64995   0.00000  Uiso   1.00
H212   H     0.90756   0.77688   0.64560   0.00000  Uiso   1.00
H213   H     0.49957   0.60983   0.80580   0.00000  Uiso   1.00
H214   H     0.23641   0.15530   0.59179   0.00000  Uiso   1.00
H215   H     0.39965   0.65819   0.57618   0.00000  Uiso   1.00
H216   H     0.25957   0.78711   0.55626   0.00000  Uiso   1.00
H217   H     0.54033   0.70789   0.63224   0.00000  Uiso   1.00
H218   H     0.41553   0.49235   0.53075   0.00000  Uiso   1.00
H219   H     0.07839   0.90990   0.54885   0.00000  Uiso   1.00
H220   H     0.67040   0.74285   0.70906   0.00000  Uiso   1.00
H221   H     0.40724   0.28832   0.49505   0.00000  Uiso   1.00
O222   O     0.89723   0.92542   0.58617   0.00000  Uiso   1.00
O223   O     0.67393   0.70623   0.79635   0.00000  Uiso   1.00
O224   O     0.32867   0.10991   0.51558   0.00000  Uiso   1.00
N225   N     0.96698   0.79049   0.62556   0.00000  Uiso   1.00
N226   N     0.52046   0.63432   0.77534   0.00000  Uiso   1.00
N227   N     0.27446   0.20936   0.57527   0.00000  Uiso   1.00
N228   N     0.05890   0.86206   0.57350   0.00000  Uiso   1.00
N229   N     0.61239   0.70589   0.72328   0.00000  Uiso   1.00
N230   N     0.36638   0.28094   0.52321   0.00000  Uiso   1.00
C231   C     0.75417   0.46158   0.66328   0.00000  Uiso   1.00
C232   C     0.80856   0.37463   0.64016   0.00000  Uiso   1.00
C233   C     0.90549   0.34138   0.64972   0.00000  Uiso   1.00
C234   C     0.94168   0.26070   0.62482   0.00000  Uiso   1.00
C235   C     0.03505   0.13261   0.59399   0.00000  Uiso   1.00
C236   C     0.65602   0.41765   0.68144   0.00000  Uiso   1.00
C237   C     0.62470   0.42060   0.72571   0.00000  Uiso   1.00
C238   C     0.53247   0.37614   0.73556   0.00000  Uiso   1.00
C239   C     0.38898   0.31492   0.76882   0.00000  Uiso   1.00
C240   C     0.72384   0.53477   0.62630   0.00000  Uiso   1.00
C241   C     0.74951   0.63619   0.62421   0.00000  Uiso   1.00
C242   C     0.71435   0.69034   0.58764   0.00000  Uiso   1.00
C243   C     0.67616   0.81094   0.53528   0.00000  Uiso   1.00
C244   C     0.64606   0.37741   0.60207   0.00000  Uiso   1.00
C245   C     0.74984   0.32891   0.60691   0.00000  Uiso   1.00
C246   C     0.78589   0.24826   0.58199   0.00000  Uiso   1.00
C247   C     0.88286   0.21490   0.59151   0.00000  Uiso   1.00
C248   C     0.59730   0.37194   0.64819   0.00000  Uiso   1.00
C249   C     0.50509   0.32747   0.65798   0.00000  Uiso   1.00
C250   C     0.47364   0.33034   0.70225   0.00000  Uiso   1.00
C251   C     0.66512   0.48905   0.59305   0.00000  Uiso   1.00
C252   C     0.62991   0.54306   0.55648   0.00000  Uiso   1.00
C253   C     0.65553   0.64453   0.55433   0.00000  Uiso   1.00
H254   H     0.79988   0.49717   0.68917   0.00000  Uiso   1.00
H255   H     0.95091   0.37678   0.67546   0.00000  Uiso   1.00
H256   H     0.67015   0.45599   0.75143   0.00000  Uiso   1.00
H257   H     0.79495   0.67154   0.64995   0.00000  Uiso   1.00
H258   H     0.09244   0.22312   0.64560   0.00000  Uiso   1.00
H259   H     0.50043   0.39017   0.80580   0.00000  Uiso   1.00
H260   H     0.76359   0.84470   0.59179   0.00000  Uiso   1.00
H261   H     0.60035   0.34181   0.57618   0.00000  Uiso   1.00
H262   H     0.74043   0.21289   0.55626   0.00000  Uiso   1.00
H263   H     0.45967   0.29211   0.63224   0.00000  Uiso   1.00
H264   H     0.58447   0.50765   0.53075   0.00000  Uiso   1.00
H265   H     0.92161   0.09010   0.54885   0.00000  Uiso   1.00
H266   H     0.32960   0.25715   0.70906   0.00000  Uiso   1.00
H267   H     0.59276   0.71168   0.49505   0.00000  Uiso   1.00
O268   O     0.10277   0.07458   0.58617   0.00000  Uiso   1.00
O269   O     0.32607   0.29377   0.79635   0.00000  Uiso   1.00
O270   O     0.67133   0.89009   0.51558   0.00000  Uiso   1.00
N271   N     0.03302   0.20951   0.62556   0.00000  Uiso   1.00
N272   N     0.47954   0.36568   0.77534   0.00000  Uiso   1.00
N273   N     0.72554   0.79064   0.57527   0.00000  Uiso   1.00
N274   N     0.94110   0.13794   0.57350   0.00000  Uiso   1.00
N275   N     0.38761   0.29411   0.72328   0.00000  Uiso   1.00
N276   N     0.63362   0.71906   0.52321   0.00000  Uiso   1.00
C277   C     0.96158   0.74583   0.16328   0.00000  Uiso   1.00
C278   C     0.87463   0.69144   0.14016   0.00000  Uiso   1.00
C279   C     0.84138   0.59451   0.14972   0.00000  Uiso   1.00
C280   C     0.76070   0.55832   0.12482   0.00000  Uiso   1.00
C281   C     0.63261   0.46495   0.09399   0.00000  Uiso   1.00
C282   C     0.91765   0.84398   0.18144   0.00000  Uiso   1.00
C283   C     0.92060   0.87530   0.22571   0.00000  Uiso   1.00
C284   C     0.87614   0.96753   0.23556   0.00000  Uiso   1.00
C285   C     0.81492   0.11102   0.26882   0.00000  Uiso   1.00
C286   C     0.03477   0.77616   0.12630   0.00000  Uiso   1.00
C287   C     0.13619   0.75049   0.12421   0.00000  Uiso   1.00
C288   C     0.19034   0.78565   0.08764   0.00000  Uiso   1.00
C289   C     0.31094   0.82384   0.03528   0.00000  Uiso   1.00
C290   C     0.87741   0.85394   0.10207   0.00000  Uiso   1.00
C291   C     0.82891   0.75016   0.10691   0.00000  Uiso   1.00
C292   C     0.74826   0.71411   0.08199   0.00000  Uiso   1.00
C293   C     0.71490   0.61714   0.09151   0.00000  Uiso   1.00
C294   C     0.87194   0.90270   0.14819   0.00000  Uiso   1.00
C295   C     0.82747   0.99491   0.15798   0.00000  Uiso   1.00
C296   C     0.83034   0.02636   0.20225   0.00000  Uiso   1.00
C297   C     0.98905   0.83488   0.09305   0.00000  Uiso   1.00
C298   C     0.04306   0.87009   0.05648   0.00000  Uiso   1.00
C299   C     0.14453   0.84447   0.05433   0.00000  Uiso   1.00
H300   H     0.99717   0.70012   0.18917   0.00000  Uiso   1.00
H301   H     0.87678   0.54909   0.17546   0.00000  Uiso   1.00
H302   H     0.95599   0.82985   0.25143   0.00000  Uiso   1.00
H303   H     0.17154   0.70505   0.14995   0.00000  Uiso   1.00
H304   H     0.72312   0.40756   0.14560   0.00000  Uiso   1.00
H305   H     0.89017   0.99957   0.30580   0.00000  Uiso   1.00
H306   H     0.34470   0.73641   0.09179   0.00000  Uiso   1.00
H307   H     0.84181   0.89965   0.07618   0.00000  Uiso   1.00
H308   H     0.71289   0.75957   0.05626   0.00000  Uiso   1.00
H309   H     0.79211   0.04033   0.13224   0.00000  Uiso   1.00
H310   H     0.00765   0.91553   0.03075   0.00000  Uiso   1.00
H311   H     0.59010   0.57839   0.04885   0.00000  Uiso   1.00
H312   H     0.75715   0.17040   0.20906   0.00000  Uiso   1.00
H313   H     0.21168   0.90724   0.99505   0.00000  Uiso   1.00
O314   O     0.57458   0.39723   0.08617   0.00000  Uiso   1.00
O315   O     0.79377   0.17393   0.29635   0.00000  Uiso   1.00
O316   O     0.39009   0.82867   0.01558   0.00000  Uiso   1.00
N317   N     0.70951   0.46698   0.12556   0.00000  Uiso   1.00
N318   N     0.86568   0.02046   0.27534   0.00000  Uiso   1.00
N319   N     0.29064   0.77446   0.07527   0.00000  Uiso   1.00
N320   N     0.63794   0.55890   0.07350   0.00000  Uiso   1.00
N321   N     0.79411   0.11239   0.22328   0.00000  Uiso   1.00
N322   N     0.21906   0.86638   0.02321   0.00000  Uiso   1.00
C323   C     0.03842   0.25417   0.16328   0.00000  Uiso   1.00
C324   C     0.12537   0.30856   0.14016   0.00000  Uiso   1.00
C325   C     0.15862   0.40549   0.14972   0.00000  Uiso   1.00
C326   C     0.23930   0.44168   0.12482   0.00000  Uiso   1.00
C327   C     0.36739   0.53505   0.09399   0.00000  Uiso   1.00
C328   C     0.08235   0.15602   0.18144   0.00000  Uiso   1.00
C329   C     0.07940   0.12470   0.22571   0.00000  Uiso   1.00
C330   C     0.12386   0.03247   0.23556   0.00000  Uiso   1.00
C331   C     0.18508   0.88898   0.26882   0.00000  Uiso   1.00
C332   C     0.96523   0.22384   0.12630   0.00000  Uiso   1.00
C333   C     0.86381   0.24951   0.12421   0.00000  Uiso   1.00
C334   C     0.80966   0.21435   0.08764   0.00000  Uiso   1.00
C335   C     0.68906   0.17616   0.03528   0.00000  Uiso   1.00
C336   C     0.12259   0.14606   0.10207   0.00000  Uiso   1.00
C337   C     0.17109   0.24984   0.10691   0.00000  Uiso   1.00
C338   C     0.25174   0.28589   0.08199   0.00000  Uiso   1.00
C339   C     0.28510   0.38286   0.09151   0.00000  Uiso   1.00
C340   C     0.12806   0.09730   0.14819   0.00000  Uiso   1.00
C341   C     0.17253   0.00509   0.15798   0.00000  Uiso   1.00
C342   C     0.16966   0.97364   0.20225   0.00000  Uiso   1.00
C343   C     0.01095   0.16512   0.09305   0.00000  Uiso   1.00
C344   C     0.95694   0.12991   0.05648   0.00000  Uiso   1.00
C345   C     0.85547   0.15553   0.05433   0.00000  Uiso   1.00
H346   H     0.00283   0.29988   0.18917   0.00000  Uiso   1.00
H347   H     0.12322   0.45091   0.17546   0.00000  Uiso   1.00
H348   H     0.04401   0.17015   0.25143   0.00000  Uiso   1.00
H349   H     0.82846   0.29495   0.14995   0.00000  Uiso   1.00
H350   H     0.27688   0.59244   0.14560   0.00000  Uiso   1.00
H351   H     0.10983   0.00043   0.30580   0.00000  Uiso   1.00
H352   H     0.65530   0.26359   0.09179   0.00000  Uiso   1.00
H353   H     0.15819   0.10035   0.07618   0.00000  Uiso   1.00
H354   H     0.28711   0.24043   0.05626   0.00000  Uiso   1.00
H355   H     0.20789   0.95967   0.13224   0.00000  Uiso   1.00
H356   H     0.99235   0.08447   0.03075   0.00000  Uiso   1.00
H357   H     0.40990   0.42161   0.04885   0.00000  Uiso   1.00
H358   H     0.24285   0.82960   0.20906   0.00000  Uiso   1.00
H359   H     0.78832   0.09276   0.99505   0.00000  Uiso   1.00
O360   O     0.42542   0.60277   0.08617   0.00000  Uiso   1.00
O361   O     0.20623   0.82607   0.29635   0.00000  Uiso   1.00
O362   O     0.60991   0.17133   0.01558   0.00000  Uiso   1.00
N363   N     0.29049   0.53302   0.12556   0.00000  Uiso   1.00
N364   N     0.13432   0.97954   0.27534   0.00000  Uiso   1.00
N365   N     0.70936   0.22554   0.07527   0.00000  Uiso   1.00
N366   N     0.36206   0.44110   0.07350   0.00000  Uiso   1.00
N367   N     0.20589   0.88761   0.22328   0.00000  Uiso   1.00
N368   N     0.78094   0.13362   0.02321   0.00000  Uiso   1.00
