data_job_06615
_audit_creation_date              2018-12-19
_audit_creation_method            'Materials Studio'
_symmetry_space_group_name_H-M    'P1'
_symmetry_Int_Tables_number       1
_symmetry_cell_setting            triclinic
loop_
_symmetry_equiv_pos_as_xyz
  x,y,z
_cell_length_a                    19.9155
_cell_length_b                    19.9442
_cell_length_c                    22.8544
_cell_angle_alpha                 66.9451
_cell_angle_beta                  78.9990
_cell_angle_gamma                 86.8484
loop_
_atom_site_label
_atom_site_type_symbol
_atom_site_fract_x
_atom_site_fract_y
_atom_site_fract_z
_atom_site_U_iso_or_equiv
_atom_site_adp_type
_atom_site_occupancy
C1     C     0.79666   0.88722   0.94773   0.00000  Uiso   1.00
C2     C     0.79354   0.85004   0.90131   0.00000  Uiso   1.00
C3     C     0.78036   0.88403   0.83896   0.00000  Uiso   1.00
C4     C     0.77970   0.84049   0.80426   0.00000  Uiso   1.00
C5     C     0.77298   0.79413   0.72813   0.00000  Uiso   1.00
C6     C     0.74482   0.84648   0.00873   0.00000  Uiso   1.00
C7     C     0.69070   0.87748   0.03670   0.00000  Uiso   1.00
C8     C     0.64903   0.83094   0.09243   0.00000  Uiso   1.00
C9     C     0.56671   0.77907   0.18310   0.00000  Uiso   1.00
C10    C     0.86686   0.87073   0.96690   0.00000  Uiso   1.00
C11    C     0.91534   0.92212   0.95971   0.00000  Uiso   1.00
C12    C     0.97641   0.89600   0.98024   0.00000  Uiso   1.00
C13    C     0.08357   0.88178   0.00596   0.00000  Uiso   1.00
C14    C     0.81892   0.74945   0.99699   0.00000  Uiso   1.00
C15    C     0.80563   0.77520   0.92808   0.00000  Uiso   1.00
C16    C     0.80499   0.73160   0.89346   0.00000  Uiso   1.00
C17    C     0.79181   0.76552   0.83106   0.00000  Uiso   1.00
C18    C     0.75691   0.77165   0.03549   0.00000  Uiso   1.00
C19    C     0.71532   0.72505   0.09120   0.00000  Uiso   1.00
C20    C     0.66114   0.75598   0.11924   0.00000  Uiso   1.00
C21    C     0.87895   0.79590   0.99366   0.00000  Uiso   1.00
C22    C     0.93996   0.76969   0.01421   0.00000  Uiso   1.00
C23    C     0.98852   0.82104   0.00705   0.00000  Uiso   1.00
H24    H     0.78724   0.94548   0.92690   0.00000  Uiso   1.00
H25    H     0.77100   0.94194   0.81827   0.00000  Uiso   1.00
H26    H     0.68136   0.93539   0.01598   0.00000  Uiso   1.00
H27    H     0.90596   0.98003   0.93900   0.00000  Uiso   1.00
H28    H     0.75830   0.90501   0.70964   0.00000  Uiso   1.00
H29    H     0.56929   0.89121   0.12654   0.00000  Uiso   1.00
H30    H     0.04292   0.98533   0.96422   0.00000  Uiso   1.00
H31    H     0.82833   0.69118   0.01783   0.00000  Uiso   1.00
H32    H     0.81434   0.67369   0.91418   0.00000  Uiso   1.00
H33    H     0.72470   0.66715   0.11190   0.00000  Uiso   1.00
H34    H     0.94930   0.71178   0.03492   0.00000  Uiso   1.00
H35    H     0.79348   0.68729   0.78749   0.00000  Uiso   1.00
H36    H     0.60447   0.67349   0.20439   0.00000  Uiso   1.00
H37    H     0.07809   0.76761   0.04207   0.00000  Uiso   1.00
O38    O     0.76592   0.78923   0.67875   0.00000  Uiso   1.00
O39    O     0.51796   0.77113   0.22571   0.00000  Uiso   1.00
O40    O     0.13935   0.89461   0.01275   0.00000  Uiso   1.00
N41    N     0.76851   0.85618   0.74218   0.00000  Uiso   1.00
N42    N     0.59179   0.84327   0.13195   0.00000  Uiso   1.00
N43    N     0.03459   0.93127   0.98021   0.00000  Uiso   1.00
N44    N     0.78744   0.73902   0.78407   0.00000  Uiso   1.00
N45    N     0.61072   0.72612   0.17384   0.00000  Uiso   1.00
N46    N     0.05352   0.81411   0.02210   0.00000  Uiso   1.00
C47    C     0.38721   0.77690   0.96941   0.00000  Uiso   1.00
C48    C     0.43297   0.82533   0.90685   0.00000  Uiso   1.00
C49    C     0.42198   0.84088   0.84473   0.00000  Uiso   1.00
C50    C     0.46978   0.88636   0.79385   0.00000  Uiso   1.00
C51    C     0.53222   0.95714   0.69505   0.00000  Uiso   1.00
C52    C     0.43314   0.71806   0.00629   0.00000  Uiso   1.00
C53    C     0.42228   0.64342   0.02778   0.00000  Uiso   1.00
C54    C     0.47022   0.59861   0.06060   0.00000  Uiso   1.00
C55    C     0.53289   0.50285   0.11622   0.00000  Uiso   1.00
C56    C     0.36711   0.82370   0.00887   0.00000  Uiso   1.00
C57    C     0.30073   0.83788   0.03255   0.00000  Uiso   1.00
C58    C     0.29308   0.88199   0.06757   0.00000  Uiso   1.00
C59    C     0.25323   0.95026   0.12719   0.00000  Uiso   1.00
C60    C     0.49166   0.83002   0.98951   0.00000  Uiso   1.00
C61    C     0.48970   0.85418   0.91777   0.00000  Uiso   1.00
C62    C     0.53753   0.89965   0.86697   0.00000  Uiso   1.00
C63    C     0.52661   0.91527   0.80479   0.00000  Uiso   1.00
C64    C     0.48987   0.74691   0.01720   0.00000  Uiso   1.00
C65    C     0.53783   0.70219   0.05001   0.00000  Uiso   1.00
C66    C     0.52705   0.62751   0.07154   0.00000  Uiso   1.00
C67    C     0.42384   0.85256   0.01978   0.00000  Uiso   1.00
C68    C     0.41629   0.89665   0.05478   0.00000  Uiso   1.00
C69    C     0.34991   0.91089   0.07850   0.00000  Uiso   1.00
H70    H     0.34305   0.75443   0.96092   0.00000  Uiso   1.00
H71    H     0.37807   0.81854   0.83631   0.00000  Uiso   1.00
H72    H     0.37837   0.62111   0.01933   0.00000  Uiso   1.00
H73    H     0.25685   0.81554   0.02409   0.00000  Uiso   1.00
H74    H     0.44193   0.90231   0.70297   0.00000  Uiso   1.00
H75    H     0.44255   0.48603   0.08889   0.00000  Uiso   1.00
H76    H     0.18628   0.89601   0.09895   0.00000  Uiso   1.00
H77    H     0.53582   0.85248   0.99801   0.00000  Uiso   1.00
H78    H     0.58142   0.92197   0.87543   0.00000  Uiso   1.00
H79    H     0.58172   0.72454   0.05845   0.00000  Uiso   1.00
H80    H     0.46020   0.91897   0.06322   0.00000  Uiso   1.00
H81    H     0.60698   0.98625   0.73472   0.00000  Uiso   1.00
H82    H     0.60760   0.56997   0.12065   0.00000  Uiso   1.00
H83    H     0.35133   0.97996   0.13070   0.00000  Uiso   1.00
O84    O     0.55099   0.98820   0.63754   0.00000  Uiso   1.00
O85    O     0.55179   0.44206   0.14387   0.00000  Uiso   1.00
O86    O     0.21558   0.97995   0.15705   0.00000  Uiso   1.00
N87    N     0.47451   0.91254   0.72726   0.00000  Uiso   1.00
N88    N     0.47510   0.52334   0.08807   0.00000  Uiso   1.00
N89    N     0.23551   0.90663   0.09748   0.00000  Uiso   1.00
N90    N     0.56332   0.95771   0.74435   0.00000  Uiso   1.00
N91    N     0.56391   0.56851   0.10516   0.00000  Uiso   1.00
N92    N     0.32432   0.95180   0.11457   0.00000  Uiso   1.00
C93    C     0.91040   0.45055   0.87704   0.00000  Uiso   1.00
C94    C     0.88238   0.48152   0.81425   0.00000  Uiso   1.00
C95    C     0.91290   0.53666   0.75723   0.00000  Uiso   1.00
C96    C     0.87917   0.55729   0.70517   0.00000  Uiso   1.00
C97    C     0.84508   0.61048   0.60695   0.00000  Uiso   1.00
C98    C     0.85412   0.45927   0.92892   0.00000  Uiso   1.00
C99    C     0.86089   0.49570   0.96832   0.00000  Uiso   1.00
C100   C     0.80337   0.49759   0.01279   0.00000  Uiso   1.00
C101   C     0.72543   0.51620   0.09263   0.00000  Uiso   1.00
C102   C     0.91643   0.36877   0.89407   0.00000  Uiso   1.00
C103   C     0.97559   0.32909   0.90418   0.00000  Uiso   1.00
C104   C     0.97053   0.25478   0.91932   0.00000  Uiso   1.00
C105   C     0.98933   0.13287   0.94505   0.00000  Uiso   1.00
C106   C     0.79620   0.38913   0.88598   0.00000  Uiso   1.00
C107   C     0.82035   0.44816   0.81911   0.00000  Uiso   1.00
C108   C     0.78656   0.46871   0.76712   0.00000  Uiso   1.00
C109   C     0.81703   0.52387   0.71003   0.00000  Uiso   1.00
C110   C     0.79209   0.42592   0.93378   0.00000  Uiso   1.00
C111   C     0.73455   0.42775   0.97821   0.00000  Uiso   1.00
C112   C     0.74123   0.46417   0.01766   0.00000  Uiso   1.00
C113   C     0.85440   0.33541   0.89892   0.00000  Uiso   1.00
C114   C     0.84925   0.26114   0.91406   0.00000  Uiso   1.00
C115   C     0.90839   0.22136   0.92419   0.00000  Uiso   1.00
H116   H     0.95868   0.47652   0.87326   0.00000  Uiso   1.00
H117   H     0.96090   0.56247   0.75350   0.00000  Uiso   1.00
H118   H     0.90890   0.52150   0.96455   0.00000  Uiso   1.00
H119   H     0.02358   0.35493   0.90042   0.00000  Uiso   1.00
H120   H     0.93600   0.64306   0.62286   0.00000  Uiso   1.00
H121   H     0.82636   0.55667   0.06790   0.00000  Uiso   1.00
H122   H     0.06818   0.20540   0.93266   0.00000  Uiso   1.00
H123   H     0.74791   0.36316   0.88976   0.00000  Uiso   1.00
H124   H     0.73856   0.44288   0.77089   0.00000  Uiso   1.00
H125   H     0.68656   0.40192   0.98195   0.00000  Uiso   1.00
H126   H     0.80124   0.23535   0.91781   0.00000  Uiso   1.00
H127   H     0.75553   0.54600   0.63698   0.00000  Uiso   1.00
H128   H     0.64589   0.45961   0.08203   0.00000  Uiso   1.00
H129   H     0.88772   0.10835   0.94678   0.00000  Uiso   1.00
O130   O     0.84341   0.64904   0.55144   0.00000  Uiso   1.00
O131   O     0.69957   0.53568   0.13532   0.00000  Uiso   1.00
O132   O     0.01684   0.07484   0.95788   0.00000  Uiso   1.00
N133   N     0.89481   0.60927   0.64249   0.00000  Uiso   1.00
N134   N     0.79231   0.52850   0.05857   0.00000  Uiso   1.00
N135   N     0.01839   0.20010   0.93215   0.00000  Uiso   1.00
N136   N     0.79771   0.55704   0.65009   0.00000  Uiso   1.00
N137   N     0.69520   0.47628   0.06617   0.00000  Uiso   1.00
N138   N     0.92128   0.14787   0.93975   0.00000  Uiso   1.00
C139   C     0.42682   0.31603   0.47253   0.00000  Uiso   1.00
C140   C     0.39356   0.34008   0.41288   0.00000  Uiso   1.00
C141   C     0.42801   0.36201   0.34934   0.00000  Uiso   1.00
C142   C     0.38831   0.38192   0.30163   0.00000  Uiso   1.00
C143   C     0.34755   0.41953   0.20666   0.00000  Uiso   1.00
C144   C     0.39762   0.23998   0.51626   0.00000  Uiso   1.00
C145   C     0.43549   0.17776   0.53966   0.00000  Uiso   1.00
C146   C     0.39920   0.11341   0.57898   0.00000  Uiso   1.00
C147   C     0.36475   0.99563   0.64456   0.00000  Uiso   1.00
C148   C     0.39898   0.36554   0.50782   0.00000  Uiso   1.00
C149   C     0.43799   0.40886   0.52414   0.00000  Uiso   1.00
C150   C     0.40284   0.45021   0.55636   0.00000  Uiso   1.00
C151   C     0.37050   0.52736   0.60884   0.00000  Uiso   1.00
C152   C     0.29504   0.31240   0.50078   0.00000  Uiso   1.00
C153   C     0.32198   0.33810   0.42822   0.00000  Uiso   1.00
C154   C     0.28221   0.35799   0.38059   0.00000  Uiso   1.00
C155   C     0.31660   0.37995   0.31699   0.00000  Uiso   1.00
C156   C     0.32605   0.23801   0.53160   0.00000  Uiso   1.00
C157   C     0.28969   0.17374   0.57090   0.00000  Uiso   1.00
C158   C     0.32750   0.11143   0.59434   0.00000  Uiso   1.00
C159   C     0.32740   0.36356   0.52316   0.00000  Uiso   1.00
C160   C     0.29219   0.40484   0.55537   0.00000  Uiso   1.00
C161   C     0.33114   0.44823   0.57173   0.00000  Uiso   1.00
H162   H     0.48255   0.31757   0.46060   0.00000  Uiso   1.00
H163   H     0.48341   0.36353   0.33749   0.00000  Uiso   1.00
H164   H     0.49088   0.17931   0.52778   0.00000  Uiso   1.00
H165   H     0.49338   0.41038   0.51226   0.00000  Uiso   1.00
H166   H     0.45280   0.41359   0.20777   0.00000  Uiso   1.00
H167   H     0.46856   0.02515   0.60903   0.00000  Uiso   1.00
H168   H     0.47382   0.51241   0.57630   0.00000  Uiso   1.00
H169   H     0.23931   0.31086   0.51272   0.00000  Uiso   1.00
H170   H     0.22682   0.35646   0.39247   0.00000  Uiso   1.00
H171   H     0.23430   0.17223   0.58276   0.00000  Uiso   1.00
H172   H     0.23680   0.40330   0.56724   0.00000  Uiso   1.00
H173   H     0.24454   0.40784   0.25240   0.00000  Uiso   1.00
H174   H     0.26031   0.01941   0.65366   0.00000  Uiso   1.00
H175   H     0.26557   0.50666   0.62092   0.00000  Uiso   1.00
O176   O     0.34484   0.44081   0.15004   0.00000  Uiso   1.00
O177   O     0.36552   0.93120   0.67649   0.00000  Uiso   1.00
O178   O     0.37243   0.57047   0.63353   0.00000  Uiso   1.00
N179   N     0.40550   0.40599   0.23478   0.00000  Uiso   1.00
N180   N     0.42023   0.04282   0.60992   0.00000  Uiso   1.00
N181   N     0.42516   0.49835   0.57933   0.00000  Uiso   1.00
N182   N     0.29344   0.40290   0.25879   0.00000  Uiso   1.00
N183   N     0.30817   0.03974   0.63393   0.00000  Uiso   1.00
N184   N     0.31310   0.49526   0.60334   0.00000  Uiso   1.00
C185   C     0.30920   0.84533   0.48923   0.00000  Uiso   1.00
C186   C     0.35649   0.87889   0.42367   0.00000  Uiso   1.00
C187   C     0.36166   0.85611   0.37290   0.00000  Uiso   1.00
C188   C     0.40795   0.89394   0.31689   0.00000  Uiso   1.00
C189   C     0.47533   0.93718   0.21584   0.00000  Uiso   1.00
C190   C     0.26595   0.90739   0.49801   0.00000  Uiso   1.00
C191   C     0.19499   0.90855   0.50976   0.00000  Uiso   1.00
C192   C     0.16507   0.97036   0.51634   0.00000  Uiso   1.00
C193   C     0.09189   0.05782   0.53076   0.00000  Uiso   1.00
C194   C     0.35519   0.82352   0.53970   0.00000  Uiso   1.00
C195   C     0.35924   0.75416   0.58652   0.00000  Uiso   1.00
C196   C     0.40444   0.74537   0.62821   0.00000  Uiso   1.00
C197   C     0.46980   0.70260   0.70736   0.00000  Uiso   1.00
C198   C     0.38223   0.95303   0.48004   0.00000  Uiso   1.00
C199   C     0.39616   0.93740   0.41868   0.00000  Uiso   1.00
C200   C     0.44246   0.97527   0.36273   0.00000  Uiso   1.00
C201   C     0.44770   0.95254   0.31189   0.00000  Uiso   1.00
C202   C     0.30562   0.96589   0.49302   0.00000  Uiso   1.00
C203   C     0.27579   0.02771   0.49959   0.00000  Uiso   1.00
C204   C     0.20481   0.02897   0.51134   0.00000  Uiso   1.00
C205   C     0.39485   0.88202   0.53471   0.00000  Uiso   1.00
C206   C     0.44005   0.87333   0.57635   0.00000  Uiso   1.00
C207   C     0.44418   0.80398   0.62321   0.00000  Uiso   1.00
H208   H     0.27831   0.79978   0.49312   0.00000  Uiso   1.00
H209   H     0.33095   0.81083   0.37678   0.00000  Uiso   1.00
H210   H     0.16431   0.86326   0.51362   0.00000  Uiso   1.00
H211   H     0.32854   0.70890   0.59036   0.00000  Uiso   1.00
H212   H     0.40678   0.84890   0.24559   0.00000  Uiso   1.00
H213   H     0.05542   0.95944   0.53415   0.00000  Uiso   1.00
H214   H     0.40172   0.63394   0.69598   0.00000  Uiso   1.00
H215   H     0.41311   0.99858   0.47616   0.00000  Uiso   1.00
H216   H     0.47315   0.02054   0.35888   0.00000  Uiso   1.00
H217   H     0.30651   0.07297   0.49573   0.00000  Uiso   1.00
H218   H     0.47074   0.91861   0.57247   0.00000  Uiso   1.00
H219   H     0.52219   0.01911   0.23106   0.00000  Uiso   1.00
H220   H     0.17083   0.12965   0.51963   0.00000  Uiso   1.00
H221   H     0.51714   0.80415   0.68145   0.00000  Uiso   1.00
O222   O     0.50153   0.94488   0.16148   0.00000  Uiso   1.00
O223   O     0.04056   0.08990   0.54008   0.00000  Uiso   1.00
O224   O     0.49490   0.66285   0.75239   0.00000  Uiso   1.00
N225   N     0.42572   0.88594   0.25827   0.00000  Uiso   1.00
N226   N     0.09721   0.98929   0.52805   0.00000  Uiso   1.00
N227   N     0.42096   0.68498   0.67935   0.00000  Uiso   1.00
N228   N     0.48782   0.97753   0.25045   0.00000  Uiso   1.00
N229   N     0.15931   0.08088   0.52023   0.00000  Uiso   1.00
N230   N     0.48307   0.77657   0.67154   0.00000  Uiso   1.00
C231   C     0.86145   0.45934   0.45119   0.00000  Uiso   1.00
C232   C     0.85999   0.46903   0.38186   0.00000  Uiso   1.00
C233   C     0.87598   0.53293   0.32741   0.00000  Uiso   1.00
C234   C     0.87153   0.53064   0.26833   0.00000  Uiso   1.00
C235   C     0.87229   0.55540   0.16135   0.00000  Uiso   1.00
C236   C     0.90936   0.39651   0.47642   0.00000  Uiso   1.00
C237   C     0.96685   0.39945   0.50148   0.00000  Uiso   1.00
C238   C     0.00395   0.33611   0.52201   0.00000  Uiso   1.00
C239   C     0.08134   0.24828   0.56189   0.00000  Uiso   1.00
C240   C     0.79012   0.43179   0.48973   0.00000  Uiso   1.00
C241   C     0.74736   0.46438   0.52599   0.00000  Uiso   1.00
C242   C     0.68407   0.43073   0.55774   0.00000  Uiso   1.00
C243   C     0.57632   0.39767   0.61828   0.00000  Uiso   1.00
C244   C     0.82512   0.34161   0.44311   0.00000  Uiso   1.00
C245   C     0.84025   0.40508   0.37748   0.00000  Uiso   1.00
C246   C     0.83578   0.40269   0.31847   0.00000  Uiso   1.00
C247   C     0.85176   0.46658   0.26393   0.00000  Uiso   1.00
C248   C     0.88963   0.33257   0.47204   0.00000  Uiso   1.00
C249   C     0.92665   0.26921   0.49254   0.00000  Uiso   1.00
C250   C     0.98419   0.27205   0.51761   0.00000  Uiso   1.00
C251   C     0.77038   0.36785   0.48534   0.00000  Uiso   1.00
C252   C     0.70716   0.33414   0.51705   0.00000  Uiso   1.00
C253   C     0.66430   0.36667   0.55335   0.00000  Uiso   1.00
H254   H     0.87682   0.50912   0.45461   0.00000  Uiso   1.00
H255   H     0.89125   0.58241   0.33082   0.00000  Uiso   1.00
H256   H     0.98210   0.44894   0.50487   0.00000  Uiso   1.00
H257   H     0.76264   0.51386   0.52938   0.00000  Uiso   1.00
H258   H     0.89858   0.63546   0.19164   0.00000  Uiso   1.00
H259   H     0.09013   0.35403   0.55867   0.00000  Uiso   1.00
H260   H     0.62736   0.49093   0.61034   0.00000  Uiso   1.00
H261   H     0.80975   0.29183   0.43969   0.00000  Uiso   1.00
H262   H     0.82051   0.35320   0.31509   0.00000  Uiso   1.00
H263   H     0.91136   0.21973   0.48914   0.00000  Uiso   1.00
H264   H     0.69190   0.28465   0.51364   0.00000  Uiso   1.00
H265   H     0.84116   0.44942   0.17887   0.00000  Uiso   1.00
H266   H     0.03271   0.16799   0.54590   0.00000  Uiso   1.00
H267   H     0.56994   0.30489   0.59757   0.00000  Uiso   1.00
O268   O     0.87817   0.58672   0.10356   0.00000  Uiso   1.00
O269   O     0.12948   0.21750   0.58509   0.00000  Uiso   1.00
O270   O     0.52233   0.39711   0.65287   0.00000  Uiso   1.00
N271   N     0.88357   0.58325   0.20574   0.00000  Uiso   1.00
N272   N     0.06267   0.32014   0.54887   0.00000  Uiso   1.00
N273   N     0.63003   0.44812   0.59720   0.00000  Uiso   1.00
N274   N     0.85268   0.48315   0.19887   0.00000  Uiso   1.00
N275   N     0.03178   0.22004   0.54200   0.00000  Uiso   1.00
N276   N     0.59913   0.34802   0.59033   0.00000  Uiso   1.00
C277   C     0.18672   0.16371   0.84061   0.00000  Uiso   1.00
C278   C     0.18512   0.18129   0.90006   0.00000  Uiso   1.00
C279   C     0.17483   0.13120   0.96369   0.00000  Uiso   1.00
C280   C     0.17517   0.15816   0.01118   0.00000  Uiso   1.00
C281   C     0.17115   0.17414   0.10587   0.00000  Uiso   1.00
C282   C     0.25546   0.19294   0.79675   0.00000  Uiso   1.00
C283   C     0.30432   0.15263   0.77351   0.00000  Uiso   1.00
C284   C     0.36388   0.18940   0.73403   0.00000  Uiso   1.00
C285   C     0.46906   0.22346   0.66829   0.00000  Uiso   1.00
C286   C     0.13253   0.21077   0.80527   0.00000  Uiso   1.00
C287   C     0.07803   0.18546   0.78918   0.00000  Uiso   1.00
C288   C     0.03409   0.23724   0.75686   0.00000  Uiso   1.00
C289   C     0.94840   0.29899   0.70436   0.00000  Uiso   1.00
C290   C     0.20561   0.30068   0.81179   0.00000  Uiso   1.00
C291   C     0.19538   0.25569   0.88440   0.00000  Uiso   1.00
C292   C     0.19573   0.28274   0.93181   0.00000  Uiso   1.00
C293   C     0.18545   0.23269   0.99550   0.00000  Uiso   1.00
C294   C     0.26573   0.26733   0.78110   0.00000  Uiso   1.00
C295   C     0.32522   0.30417   0.74163   0.00000  Uiso   1.00
C296   C     0.37416   0.26393   0.71835   0.00000  Uiso   1.00
C297   C     0.14279   0.28517   0.78962   0.00000  Uiso   1.00
C298   C     0.09893   0.33700   0.75731   0.00000  Uiso   1.00
C299   C     0.04437   0.31177   0.74118   0.00000  Uiso   1.00
H300   H     0.17873   0.10579   0.85279   0.00000  Uiso   1.00
H301   H     0.16689   0.07362   0.97578   0.00000  Uiso   1.00
H302   H     0.29636   0.09506   0.78562   0.00000  Uiso   1.00
H303   H     0.07010   0.12788   0.80130   0.00000  Uiso   1.00
H304   H     0.15832   0.07077   0.10523   0.00000  Uiso   1.00
H305   H     0.43130   0.11596   0.70427   0.00000  Uiso   1.00
H306   H     0.95419   0.18518   0.73732   0.00000  Uiso   1.00
H307   H     0.21361   0.35861   0.79961   0.00000  Uiso   1.00
H308   H     0.20368   0.34032   0.91968   0.00000  Uiso   1.00
H309   H     0.33315   0.36175   0.72953   0.00000  Uiso   1.00
H310   H     0.10689   0.39457   0.74521   0.00000  Uiso   1.00
H311   H     0.18818   0.28723   0.05971   0.00000  Uiso   1.00
H312   H     0.46116   0.33242   0.65873   0.00000  Uiso   1.00
H313   H     0.98405   0.40164   0.69180   0.00000  Uiso   1.00
O314   O     0.16611   0.16240   0.16242   0.00000  Uiso   1.00
O315   O     0.52424   0.22170   0.63635   0.00000  Uiso   1.00
O316   O     0.89829   0.31250   0.67973   0.00000  Uiso   1.00
N317   N     0.16670   0.12422   0.07804   0.00000  Uiso   1.00
N318   N     0.42192   0.16648   0.70317   0.00000  Uiso   1.00
N319   N     0.97587   0.23119   0.73406   0.00000  Uiso   1.00
N320   N     0.18276   0.24070   0.05354   0.00000  Uiso   1.00
N321   N     0.43798   0.28295   0.67867   0.00000  Uiso   1.00
N322   N     0.99194   0.34766   0.70956   0.00000  Uiso   1.00
C323   C     0.62943   0.31438   0.84958   0.00000  Uiso   1.00
C324   C     0.61170   0.25277   0.91610   0.00000  Uiso   1.00
C325   C     0.64067   0.24299   0.96942   0.00000  Uiso   1.00
C326   C     0.61750   0.18325   0.02591   0.00000  Uiso   1.00
C327   C     0.59759   0.09494   0.12875   0.00000  Uiso   1.00
C328   C     0.56229   0.35181   0.83473   0.00000  Uiso   1.00
C329   C     0.54974   0.42530   0.81963   0.00000  Uiso   1.00
C330   C     0.48498   0.44893   0.80761   0.00000  Uiso   1.00
C331   C     0.38839   0.51438   0.78408   0.00000  Uiso   1.00
C332   C     0.65079   0.27779   0.80169   0.00000  Uiso   1.00
C333   C     0.71265   0.28906   0.75879   0.00000  Uiso   1.00
C334   C     0.72240   0.25038   0.71895   0.00000  Uiso   1.00
C335   C     0.76322   0.20091   0.64412   0.00000  Uiso   1.00
C336   C     0.53675   0.22569   0.85509   0.00000  Uiso   1.00
C337   C     0.56135   0.20460   0.91909   0.00000  Uiso   1.00
C338   C     0.53813   0.14486   0.97551   0.00000  Uiso   1.00
C339   C     0.56707   0.13499   0.02891   0.00000  Uiso   1.00
C340   C     0.51195   0.30364   0.83772   0.00000  Uiso   1.00
C341   C     0.44720   0.32717   0.82572   0.00000  Uiso   1.00
C342   C     0.43455   0.40067   0.81061   0.00000  Uiso   1.00
C343   C     0.60046   0.22962   0.80468   0.00000  Uiso   1.00
C344   C     0.61011   0.19092   0.76490   0.00000  Uiso   1.00
C345   C     0.67197   0.20212   0.72195   0.00000  Uiso   1.00
H346   H     0.66862   0.35189   0.84725   0.00000  Uiso   1.00
H347   H     0.67963   0.28029   0.96708   0.00000  Uiso   1.00
H348   H     0.58871   0.46257   0.81731   0.00000  Uiso   1.00
H349   H     0.75159   0.32634   0.75649   0.00000  Uiso   1.00
H350   H     0.66961   0.17967   0.10127   0.00000  Uiso   1.00
H351   H     0.47791   0.56402   0.78544   0.00000  Uiso   1.00
H352   H     0.82138   0.27676   0.65719   0.00000  Uiso   1.00
H353   H     0.49756   0.18819   0.85742   0.00000  Uiso   1.00
H354   H     0.49918   0.10759   0.97781   0.00000  Uiso   1.00
H355   H     0.40826   0.28987   0.82804   0.00000  Uiso   1.00
H356   H     0.57114   0.15365   0.76722   0.00000  Uiso   1.00
H357   H     0.52315   0.03950   0.10998   0.00000  Uiso   1.00
H358   H     0.33145   0.42386   0.79415   0.00000  Uiso   1.00
H359   H     0.67492   0.13660   0.66590   0.00000  Uiso   1.00
O360   O     0.60051   0.05954   0.18465   0.00000  Uiso   1.00
O361   O     0.34902   0.56379   0.77028   0.00000  Uiso   1.00
O362   O     0.79964   0.18692   0.60203   0.00000  Uiso   1.00
N363   N     0.63493   0.15773   0.08679   0.00000  Uiso   1.00
N364   N     0.45569   0.51708   0.79152   0.00000  Uiso   1.00
N365   N     0.77681   0.24853   0.67161   0.00000  Uiso   1.00
N366   N     0.55612   0.08231   0.09148   0.00000  Uiso   1.00
N367   N     0.37689   0.44165   0.79621   0.00000  Uiso   1.00
N368   N     0.69800   0.17311   0.67630   0.00000  Uiso   1.00
C369   C     0.04454   0.67782   0.89725   0.00000  Uiso   1.00
C370   C     0.07864   0.65515   0.95630   0.00000  Uiso   1.00
C371   C     0.04866   0.61247   0.01939   0.00000  Uiso   1.00
C372   C     0.08837   0.59780   0.06658   0.00000  Uiso   1.00
C373   C     0.13110   0.55846   0.16061   0.00000  Uiso   1.00
C374   C     0.09078   0.65161   0.84945   0.00000  Uiso   1.00
C375   C     0.07099   0.60595   0.82268   0.00000  Uiso   1.00
C376   C     0.12093   0.58831   0.77992   0.00000  Uiso   1.00
C377   C     0.18249   0.54350   0.70802   0.00000  Uiso   1.00
C378   C     0.04907   0.76085   0.86656   0.00000  Uiso   1.00
C379   C     0.99421   0.80706   0.85417   0.00000  Uiso   1.00
C380   C     0.00903   0.88140   0.82580   0.00000  Uiso   1.00
C381   C     0.00583   0.00622   0.78047   0.00000  Uiso   1.00
C382   C     0.16839   0.72767   0.86889   0.00000  Uiso   1.00
C383   C     0.14592   0.68223   0.94090   0.00000  Uiso   1.00
C384   C     0.18569   0.66763   0.98801   0.00000  Uiso   1.00
C385   C     0.15576   0.62493   0.05115   0.00000  Uiso   1.00
C386   C     0.15805   0.67868   0.83404   0.00000  Uiso   1.00
C387   C     0.20802   0.66111   0.79131   0.00000  Uiso   1.00
C388   C     0.18832   0.61544   0.76449   0.00000  Uiso   1.00
C389   C     0.11634   0.78793   0.85116   0.00000  Uiso   1.00
C390   C     0.13124   0.86222   0.82280   0.00000  Uiso   1.00
C391   C     0.07642   0.90853   0.81037   0.00000  Uiso   1.00
H392   H     0.99217   0.65674   0.90924   0.00000  Uiso   1.00
H393   H     0.99659   0.59152   0.03129   0.00000  Uiso   1.00
H394   H     0.01893   0.58501   0.83461   0.00000  Uiso   1.00
H395   H     0.94216   0.78609   0.86609   0.00000  Uiso   1.00
H396   H     0.03118   0.53114   0.15980   0.00000  Uiso   1.00
H397   H     0.07827   0.51743   0.74508   0.00000  Uiso   1.00
H398   H     0.91638   0.94144   0.81147   0.00000  Uiso   1.00
H399   H     0.22077   0.74875   0.85689   0.00000  Uiso   1.00
H400   H     0.23774   0.68859   0.97607   0.00000  Uiso   1.00
H401   H     0.26008   0.68208   0.77939   0.00000  Uiso   1.00
H402   H     0.18331   0.88315   0.81088   0.00000  Uiso   1.00
H403   H     0.22691   0.60992   0.11499   0.00000  Uiso   1.00
H404   H     0.27400   0.59621   0.70026   0.00000  Uiso   1.00
H405   H     0.11211   0.02022   0.76666   0.00000  Uiso   1.00
O406   O     0.13610   0.52927   0.21674   0.00000  Uiso   1.00
O407   O     0.19787   0.51130   0.67263   0.00000  Uiso   1.00
O408   O     0.98548   0.06759   0.75974   0.00000  Uiso   1.00
N409   N     0.07491   0.55795   0.13290   0.00000  Uiso   1.00
N410   N     0.11894   0.54512   0.74517   0.00000  Uiso   1.00
N411   N     0.96759   0.94154   0.80722   0.00000  Uiso   1.00
N412   N     0.18023   0.60034   0.10879   0.00000  Uiso   1.00
N413   N     0.22426   0.58751   0.72105   0.00000  Uiso   1.00
N414   N     0.07291   0.98393   0.78311   0.00000  Uiso   1.00
C415   C     0.62283   0.77969   0.33989   0.00000  Uiso   1.00
C416   C     0.64151   0.78631   0.39912   0.00000  Uiso   1.00
C417   C     0.59969   0.81294   0.44075   0.00000  Uiso   1.00
C418   C     0.62621   0.81457   0.49213   0.00000  Uiso   1.00
C419   C     0.64520   0.82855   0.58265   0.00000  Uiso   1.00
C420   C     0.67811   0.82244   0.28280   0.00000  Uiso   1.00
C421   C     0.66706   0.87944   0.22663   0.00000  Uiso   1.00
C422   C     0.72439   0.91149   0.18009   0.00000  Uiso   1.00
C423   C     0.80020   0.98153   0.09000   0.00000  Uiso   1.00
C424   C     0.63210   0.69987   0.34956   0.00000  Uiso   1.00
C425   C     0.58237   0.65381   0.34951   0.00000  Uiso   1.00
C426   C     0.60097   0.58266   0.35916   0.00000  Uiso   1.00
C427   C     0.60534   0.46239   0.37273   0.00000  Uiso   1.00
C428   C     0.74430   0.73523   0.35711   0.00000  Uiso   1.00
C429   C     0.70749   0.76216   0.40847   0.00000  Uiso   1.00
C430   C     0.73408   0.76375   0.45980   0.00000  Uiso   1.00
C431   C     0.69230   0.79038   0.50151   0.00000  Uiso   1.00
C432   C     0.74409   0.79829   0.29215   0.00000  Uiso   1.00
C433   C     0.80145   0.83026   0.24568   0.00000  Uiso   1.00
C434   C     0.79049   0.88730   0.18946   0.00000  Uiso   1.00
C435   C     0.69808   0.67572   0.35892   0.00000  Uiso   1.00
C436   C     0.71676   0.60462   0.36856   0.00000  Uiso   1.00
C437   C     0.66707   0.55847   0.36853   0.00000  Uiso   1.00
H438   H     0.57146   0.79849   0.33261   0.00000  Uiso   1.00
H439   H     0.54863   0.83163   0.43349   0.00000  Uiso   1.00
H440   H     0.61599   0.89811   0.21940   0.00000  Uiso   1.00
H441   H     0.53132   0.67252   0.34227   0.00000  Uiso   1.00
H442   H     0.55243   0.85773   0.54945   0.00000  Uiso   1.00
H443   H     0.69446   0.99791   0.09803   0.00000  Uiso   1.00
H444   H     0.51590   0.52220   0.35711   0.00000  Uiso   1.00
H445   H     0.79567   0.71643   0.36439   0.00000  Uiso   1.00
H446   H     0.78514   0.74506   0.46703   0.00000  Uiso   1.00
H447   H     0.85250   0.81155   0.25294   0.00000  Uiso   1.00
H448   H     0.76783   0.58595   0.37580   0.00000  Uiso   1.00
H449   H     0.74439   0.78748   0.57667   0.00000  Uiso   1.00
H450   H     0.88642   0.92766   0.12524   0.00000  Uiso   1.00
H451   H     0.70786   0.45194   0.38432   0.00000  Uiso   1.00
O452   O     0.63745   0.84294   0.62999   0.00000  Uiso   1.00
O453   O     0.82378   0.02684   0.03773   0.00000  Uiso   1.00
O454   O     0.58952   0.40272   0.37764   0.00000  Uiso   1.00
N455   N     0.59905   0.83726   0.54178   0.00000  Uiso   1.00
N456   N     0.73184   0.96832   0.11973   0.00000  Uiso   1.00
N457   N     0.56491   0.52358   0.36193   0.00000  Uiso   1.00
N458   N     0.70234   0.79945   0.55643   0.00000  Uiso   1.00
N459   N     0.83513   0.93052   0.13437   0.00000  Uiso   1.00
N460   N     0.66820   0.48577   0.37657   0.00000  Uiso   1.00
C461   C     0.77639   0.16995   0.32892   0.00000  Uiso   1.00
C462   C     0.75723   0.12149   0.40060   0.00000  Uiso   1.00
C463   C     0.76776   0.13865   0.45148   0.00000  Uiso   1.00
C464   C     0.74665   0.08699   0.51359   0.00000  Uiso   1.00
C465   C     0.72158   0.02182   0.62325   0.00000  Uiso   1.00
C466   C     0.82281   0.12481   0.29792   0.00000  Uiso   1.00
C467   C     0.88849   0.14478   0.26246   0.00000  Uiso   1.00
C468   C     0.92258   0.09591   0.23812   0.00000  Uiso   1.00
C469   C     0.99932   0.03593   0.18833   0.00000  Uiso   1.00
C470   C     0.71059   0.17976   0.30183   0.00000  Uiso   1.00
C471   C     0.68192   0.24592   0.26963   0.00000  Uiso   1.00
C472   C     0.62153   0.24332   0.24857   0.00000  Uiso   1.00
C473   C     0.52403   0.26866   0.20485   0.00000  Uiso   1.00
C474   C     0.72016   0.04767   0.34875   0.00000  Uiso   1.00
C475   C     0.72669   0.05507   0.41137   0.00000  Uiso   1.00
C476   C     0.70555   0.00337   0.47342   0.00000  Uiso   1.00
C477   C     0.71605   0.02045   0.52438   0.00000  Uiso   1.00
C478   C     0.79227   0.05840   0.30869   0.00000  Uiso   1.00
C479   C     0.82628   0.00949   0.28440   0.00000  Uiso   1.00
C480   C     0.89199   0.02938   0.24891   0.00000  Uiso   1.00
C481   C     0.68005   0.11334   0.31260   0.00000  Uiso   1.00
C482   C     0.61970   0.11064   0.29158   0.00000  Uiso   1.00
C483   C     0.59094   0.17679   0.25936   0.00000  Uiso   1.00
H484   H     0.80017   0.22165   0.32053   0.00000  Uiso   1.00
H485   H     0.79141   0.19005   0.44312   0.00000  Uiso   1.00
H486   H     0.91211   0.19618   0.25413   0.00000  Uiso   1.00
H487   H     0.70557   0.29731   0.26131   0.00000  Uiso   1.00
H488   H     0.76824   0.12571   0.58379   0.00000  Uiso   1.00
H489   H     0.02274   0.13864   0.18526   0.00000  Uiso   1.00
H490   H     0.58721   0.35190   0.20040   0.00000  Uiso   1.00
H491   H     0.69638   0.99596   0.35714   0.00000  Uiso   1.00
H492   H     0.68191   0.95197   0.48174   0.00000  Uiso   1.00
H493   H     0.80262   0.95810   0.29274   0.00000  Uiso   1.00
H494   H     0.59608   0.05923   0.29992   0.00000  Uiso   1.00
H495   H     0.67938   0.93248   0.61513   0.00000  Uiso   1.00
H496   H     0.93388   0.94541   0.21659   0.00000  Uiso   1.00
H497   H     0.49835   0.15866   0.23174   0.00000  Uiso   1.00
O498   O     0.71619   0.00422   0.68076   0.00000  Uiso   1.00
O499   O     0.05008   0.02120   0.15790   0.00000  Uiso   1.00
O500   O     0.47867   0.30098   0.17776   0.00000  Uiso   1.00
N501   N     0.74930   0.08628   0.57406   0.00000  Uiso   1.00
N502   N     0.98725   0.09836   0.20147   0.00000  Uiso   1.00
N503   N     0.58007   0.29774   0.21561   0.00000  Uiso   1.00
N504   N     0.70148   0.98230   0.59093   0.00000  Uiso   1.00
N505   N     0.93943   0.99439   0.21834   0.00000  Uiso   1.00
N506   N     0.53226   0.19376   0.23247   0.00000  Uiso   1.00
C507   C     0.15438   0.60764   0.33106   0.00000  Uiso   1.00
C508   C     0.13669   0.60066   0.40116   0.00000  Uiso   1.00
C509   C     0.10155   0.54250   0.45264   0.00000  Uiso   1.00
C510   C     0.09044   0.54644   0.51305   0.00000  Uiso   1.00
C511   C     0.05941   0.52651   0.62059   0.00000  Uiso   1.00
C512   C     0.12393   0.67912   0.29134   0.00000  Uiso   1.00
C513   C     0.07807   0.68691   0.25049   0.00000  Uiso   1.00
C514   C     0.05623   0.75690   0.21845   0.00000  Uiso   1.00
C515   C     0.00543   0.85877   0.15547   0.00000  Uiso   1.00
C516   C     0.23183   0.61881   0.31145   0.00000  Uiso   1.00
C517   C     0.27669   0.57591   0.28749   0.00000  Uiso   1.00
C518   C     0.34569   0.59513   0.27237   0.00000  Uiso   1.00
C519   C     0.46241   0.60336   0.24061   0.00000  Uiso   1.00
C520   C     0.19716   0.71806   0.34678   0.00000  Uiso   1.00
C521   C     0.15992   0.66064   0.40969   0.00000  Uiso   1.00
C522   C     0.14887   0.66467   0.47004   0.00000  Uiso   1.00
C523   C     0.11372   0.60652   0.52161   0.00000  Uiso   1.00
C524   C     0.14716   0.73909   0.29988   0.00000  Uiso   1.00
C525   C     0.12539   0.80908   0.26789   0.00000  Uiso   1.00
C526   C     0.07951   0.81698   0.22701   0.00000  Uiso   1.00
C527   C     0.25506   0.67878   0.31999   0.00000  Uiso   1.00
C528   C     0.32401   0.69808   0.30490   0.00000  Uiso   1.00
C529   C     0.36897   0.65521   0.28092   0.00000  Uiso   1.00
H530   H     0.13629   0.56095   0.32441   0.00000  Uiso   1.00
H531   H     0.08357   0.49610   0.44601   0.00000  Uiso   1.00
H532   H     0.06010   0.64049   0.24389   0.00000  Uiso   1.00
H533   H     0.25869   0.52950   0.28089   0.00000  Uiso   1.00
H534   H     0.03534   0.45067   0.58460   0.00000  Uiso   1.00
H535   H     0.98588   0.75513   0.15839   0.00000  Uiso   1.00
H536   H     0.40464   0.52109   0.23641   0.00000  Uiso   1.00
H537   H     0.21524   0.76475   0.35343   0.00000  Uiso   1.00
H538   H     0.16686   0.71109   0.47664   0.00000  Uiso   1.00
H539   H     0.14339   0.85548   0.27451   0.00000  Uiso   1.00
H540   H     0.34197   0.74449   0.31151   0.00000  Uiso   1.00
H541   H     0.10294   0.62516   0.60945   0.00000  Uiso   1.00
H542   H     0.05347   0.92962   0.18324   0.00000  Uiso   1.00
H543   H     0.47223   0.69558   0.26127   0.00000  Uiso   1.00
O544   O     0.03586   0.49895   0.67754   0.00000  Uiso   1.00
O545   O     0.97098   0.89838   0.11837   0.00000  Uiso   1.00
O546   O     0.52038   0.59133   0.22074   0.00000  Uiso   1.00
N547   N     0.05790   0.49910   0.57354   0.00000  Uiso   1.00
N548   N     0.01165   0.78374   0.17507   0.00000  Uiso   1.00
N549   N     0.40315   0.56495   0.24800   0.00000  Uiso   1.00
N550   N     0.09428   0.59299   0.58692   0.00000  Uiso   1.00
N551   N     0.04802   0.87764   0.18845   0.00000  Uiso   1.00
N552   N     0.43952   0.65884   0.26137   0.00000  Uiso   1.00
