data_job_04861
_audit_creation_date              2018-12-19
_audit_creation_method            'Materials Studio'
_symmetry_space_group_name_H-M    'P1'
_symmetry_Int_Tables_number       1
_symmetry_cell_setting            triclinic
loop_
_symmetry_equiv_pos_as_xyz
  x,y,z
_cell_length_a                    18.2822
_cell_length_b                    18.2822
_cell_length_c                    14.2332
_cell_angle_alpha                 90.0000
_cell_angle_beta                  90.0000
_cell_angle_gamma                 90.0000
loop_
_atom_site_label
_atom_site_type_symbol
_atom_site_fract_x
_atom_site_fract_y
_atom_site_fract_z
_atom_site_U_iso_or_equiv
_atom_site_adp_type
_atom_site_occupancy
C1     C     0.00005   0.73176   0.62957   0.00000  Uiso   1.00
C2     C     0.06669   0.76534   0.67746   0.00000  Uiso   1.00
C3     C     0.12269   0.72682   0.72086   0.00000  Uiso   1.00
C4     C     0.17878   0.76761   0.76060   0.00000  Uiso   1.00
C5     C     0.28223   0.80811   0.83554   0.00000  Uiso   1.00
C6     C     0.93343   0.76538   0.67743   0.00000  Uiso   1.00
C7     C     0.87738   0.72689   0.72080   0.00000  Uiso   1.00
C8     C     0.82130   0.76771   0.76050   0.00000  Uiso   1.00
C9     C     0.71782   0.80826   0.83534   0.00000  Uiso   1.00
C10    C     0.00007   0.76115   0.52931   0.00000  Uiso   1.00
C11    C     0.00003   0.71909   0.44813   0.00000  Uiso   1.00
C12    C     0.00003   0.75635   0.36312   0.00000  Uiso   1.00
C13    C     0.00003   0.79032   0.20797   0.00000  Uiso   1.00
C14    C     0.00009   0.87270   0.62295   0.00000  Uiso   1.00
C15    C     0.06670   0.84189   0.67386   0.00000  Uiso   1.00
C16    C     0.12273   0.88275   0.71354   0.00000  Uiso   1.00
C17    C     0.17881   0.84430   0.75700   0.00000  Uiso   1.00
C18    C     0.93345   0.84193   0.67384   0.00000  Uiso   1.00
C19    C     0.87742   0.88281   0.71348   0.00000  Uiso   1.00
C20    C     0.82131   0.84439   0.75690   0.00000  Uiso   1.00
C21    C     0.00009   0.83770   0.52571   0.00000  Uiso   1.00
C22    C     0.00008   0.87502   0.44081   0.00000  Uiso   1.00
C23    C     0.00005   0.83303   0.35952   0.00000  Uiso   1.00
H24    H     0.00003   0.67217   0.63237   0.00000  Uiso   1.00
H25    H     0.12265   0.66758   0.72364   0.00000  Uiso   1.00
H26    H     0.87738   0.66765   0.72356   0.00000  Uiso   1.00
H27    H     0.00002   0.65986   0.45094   0.00000  Uiso   1.00
H28    H     0.25859   0.69626   0.82327   0.00000  Uiso   1.00
H29    H     0.74141   0.69640   0.82308   0.00000  Uiso   1.00
H30    H     0.00001   0.67996   0.24819   0.00000  Uiso   1.00
H31    H     0.00010   0.93230   0.62016   0.00000  Uiso   1.00
H32    H     0.12273   0.94199   0.71075   0.00000  Uiso   1.00
H33    H     0.87746   0.94205   0.71068   0.00000  Uiso   1.00
H34    H     0.00009   0.93426   0.43805   0.00000  Uiso   1.00
H35    H     0.25865   0.91898   0.81281   0.00000  Uiso   1.00
H36    H     0.74147   0.91911   0.81262   0.00000  Uiso   1.00
H37    H     0.00007   0.90268   0.23774   0.00000  Uiso   1.00
O38    O     0.33927   0.80930   0.87788   0.00000  Uiso   1.00
O39    O     0.66075   0.80948   0.87762   0.00000  Uiso   1.00
O40    O     0.00003   0.78792   0.12339   0.00000  Uiso   1.00
N41    N     0.24178   0.74735   0.80836   0.00000  Uiso   1.00
N42    N     0.75826   0.74748   0.80820   0.00000  Uiso   1.00
N43    N     0.00001   0.73211   0.27073   0.00000  Uiso   1.00
N44    N     0.24182   0.86719   0.80273   0.00000  Uiso   1.00
N45    N     0.75829   0.86732   0.80257   0.00000  Uiso   1.00
N46    N     0.00004   0.85195   0.26510   0.00000  Uiso   1.00
C47    C     0.50005   0.23176   0.12957   0.00000  Uiso   1.00
C48    C     0.56669   0.26534   0.17746   0.00000  Uiso   1.00
C49    C     0.62269   0.22682   0.22086   0.00000  Uiso   1.00
C50    C     0.67878   0.26761   0.26060   0.00000  Uiso   1.00
C51    C     0.78223   0.30811   0.33554   0.00000  Uiso   1.00
C52    C     0.43343   0.26538   0.17743   0.00000  Uiso   1.00
C53    C     0.37738   0.22689   0.22080   0.00000  Uiso   1.00
C54    C     0.32130   0.26771   0.26050   0.00000  Uiso   1.00
C55    C     0.21782   0.30826   0.33534   0.00000  Uiso   1.00
C56    C     0.50007   0.26115   0.02931   0.00000  Uiso   1.00
C57    C     0.50003   0.21909   0.94813   0.00000  Uiso   1.00
C58    C     0.50003   0.25635   0.86312   0.00000  Uiso   1.00
C59    C     0.50003   0.29032   0.70797   0.00000  Uiso   1.00
C60    C     0.50009   0.37270   0.12295   0.00000  Uiso   1.00
C61    C     0.56670   0.34189   0.17386   0.00000  Uiso   1.00
C62    C     0.62273   0.38275   0.21354   0.00000  Uiso   1.00
C63    C     0.67881   0.34430   0.25700   0.00000  Uiso   1.00
C64    C     0.43345   0.34193   0.17384   0.00000  Uiso   1.00
C65    C     0.37742   0.38281   0.21348   0.00000  Uiso   1.00
C66    C     0.32131   0.34439   0.25690   0.00000  Uiso   1.00
C67    C     0.50009   0.33770   0.02571   0.00000  Uiso   1.00
C68    C     0.50008   0.37502   0.94081   0.00000  Uiso   1.00
C69    C     0.50005   0.33303   0.85952   0.00000  Uiso   1.00
H70    H     0.50003   0.17217   0.13237   0.00000  Uiso   1.00
H71    H     0.62265   0.16758   0.22364   0.00000  Uiso   1.00
H72    H     0.37738   0.16765   0.22356   0.00000  Uiso   1.00
H73    H     0.50002   0.15986   0.95094   0.00000  Uiso   1.00
H74    H     0.75859   0.19626   0.32327   0.00000  Uiso   1.00
H75    H     0.24141   0.19640   0.32308   0.00000  Uiso   1.00
H76    H     0.50001   0.17996   0.74819   0.00000  Uiso   1.00
H77    H     0.50010   0.43230   0.12016   0.00000  Uiso   1.00
H78    H     0.62273   0.44199   0.21075   0.00000  Uiso   1.00
H79    H     0.37746   0.44205   0.21068   0.00000  Uiso   1.00
H80    H     0.50009   0.43426   0.93805   0.00000  Uiso   1.00
H81    H     0.75865   0.41898   0.31281   0.00000  Uiso   1.00
H82    H     0.24147   0.41911   0.31262   0.00000  Uiso   1.00
H83    H     0.50007   0.40268   0.73774   0.00000  Uiso   1.00
O84    O     0.83927   0.30930   0.37788   0.00000  Uiso   1.00
O85    O     0.16075   0.30948   0.37762   0.00000  Uiso   1.00
O86    O     0.50003   0.28792   0.62339   0.00000  Uiso   1.00
N87    N     0.74178   0.24735   0.30836   0.00000  Uiso   1.00
N88    N     0.25826   0.24748   0.30820   0.00000  Uiso   1.00
N89    N     0.50001   0.23211   0.77073   0.00000  Uiso   1.00
N90    N     0.74182   0.36719   0.30273   0.00000  Uiso   1.00
N91    N     0.25829   0.36732   0.30257   0.00000  Uiso   1.00
N92    N     0.50004   0.35195   0.76510   0.00000  Uiso   1.00
C93    C     0.49995   0.76824   0.12957   0.00000  Uiso   1.00
C94    C     0.43331   0.73466   0.17746   0.00000  Uiso   1.00
C95    C     0.37731   0.77318   0.22086   0.00000  Uiso   1.00
C96    C     0.32122   0.73239   0.26060   0.00000  Uiso   1.00
C97    C     0.21777   0.69189   0.33554   0.00000  Uiso   1.00
C98    C     0.56657   0.73462   0.17743   0.00000  Uiso   1.00
C99    C     0.62262   0.77311   0.22080   0.00000  Uiso   1.00
C100   C     0.67870   0.73229   0.26050   0.00000  Uiso   1.00
C101   C     0.78218   0.69174   0.33534   0.00000  Uiso   1.00
C102   C     0.49993   0.73885   0.02931   0.00000  Uiso   1.00
C103   C     0.49997   0.78091   0.94813   0.00000  Uiso   1.00
C104   C     0.49997   0.74365   0.86312   0.00000  Uiso   1.00
C105   C     0.49997   0.70968   0.70797   0.00000  Uiso   1.00
C106   C     0.49991   0.62730   0.12295   0.00000  Uiso   1.00
C107   C     0.43330   0.65811   0.17386   0.00000  Uiso   1.00
C108   C     0.37727   0.61725   0.21354   0.00000  Uiso   1.00
C109   C     0.32119   0.65570   0.25700   0.00000  Uiso   1.00
C110   C     0.56655   0.65807   0.17384   0.00000  Uiso   1.00
C111   C     0.62258   0.61719   0.21348   0.00000  Uiso   1.00
C112   C     0.67869   0.65561   0.25690   0.00000  Uiso   1.00
C113   C     0.49991   0.66230   0.02571   0.00000  Uiso   1.00
C114   C     0.49992   0.62498   0.94081   0.00000  Uiso   1.00
C115   C     0.49995   0.66697   0.85952   0.00000  Uiso   1.00
H116   H     0.49997   0.82783   0.13237   0.00000  Uiso   1.00
H117   H     0.37735   0.83242   0.22364   0.00000  Uiso   1.00
H118   H     0.62262   0.83235   0.22356   0.00000  Uiso   1.00
H119   H     0.49998   0.84014   0.95094   0.00000  Uiso   1.00
H120   H     0.24141   0.80374   0.32327   0.00000  Uiso   1.00
H121   H     0.75859   0.80360   0.32308   0.00000  Uiso   1.00
H122   H     0.49999   0.82004   0.74819   0.00000  Uiso   1.00
H123   H     0.49990   0.56770   0.12016   0.00000  Uiso   1.00
H124   H     0.37727   0.55801   0.21075   0.00000  Uiso   1.00
H125   H     0.62254   0.55795   0.21068   0.00000  Uiso   1.00
H126   H     0.49991   0.56574   0.93805   0.00000  Uiso   1.00
H127   H     0.24135   0.58102   0.31281   0.00000  Uiso   1.00
H128   H     0.75853   0.58089   0.31262   0.00000  Uiso   1.00
H129   H     0.49993   0.59732   0.73774   0.00000  Uiso   1.00
O130   O     0.16073   0.69070   0.37788   0.00000  Uiso   1.00
O131   O     0.83925   0.69052   0.37762   0.00000  Uiso   1.00
O132   O     0.49997   0.71208   0.62339   0.00000  Uiso   1.00
N133   N     0.25822   0.75265   0.30836   0.00000  Uiso   1.00
N134   N     0.74174   0.75252   0.30820   0.00000  Uiso   1.00
N135   N     0.49999   0.76789   0.77073   0.00000  Uiso   1.00
N136   N     0.25818   0.63281   0.30273   0.00000  Uiso   1.00
N137   N     0.74171   0.63268   0.30257   0.00000  Uiso   1.00
N138   N     0.49996   0.64805   0.76510   0.00000  Uiso   1.00
C139   C     0.99995   0.26824   0.62957   0.00000  Uiso   1.00
C140   C     0.93331   0.23466   0.67746   0.00000  Uiso   1.00
C141   C     0.87731   0.27318   0.72086   0.00000  Uiso   1.00
C142   C     0.82122   0.23239   0.76060   0.00000  Uiso   1.00
C143   C     0.71777   0.19189   0.83554   0.00000  Uiso   1.00
C144   C     0.06657   0.23462   0.67743   0.00000  Uiso   1.00
C145   C     0.12262   0.27311   0.72080   0.00000  Uiso   1.00
C146   C     0.17870   0.23229   0.76050   0.00000  Uiso   1.00
C147   C     0.28218   0.19174   0.83534   0.00000  Uiso   1.00
C148   C     0.99993   0.23885   0.52931   0.00000  Uiso   1.00
C149   C     0.99997   0.28091   0.44813   0.00000  Uiso   1.00
C150   C     0.99997   0.24365   0.36312   0.00000  Uiso   1.00
C151   C     0.99997   0.20968   0.20797   0.00000  Uiso   1.00
C152   C     0.99991   0.12730   0.62295   0.00000  Uiso   1.00
C153   C     0.93330   0.15811   0.67386   0.00000  Uiso   1.00
C154   C     0.87727   0.11725   0.71354   0.00000  Uiso   1.00
C155   C     0.82119   0.15570   0.75700   0.00000  Uiso   1.00
C156   C     0.06655   0.15807   0.67384   0.00000  Uiso   1.00
C157   C     0.12258   0.11719   0.71348   0.00000  Uiso   1.00
C158   C     0.17869   0.15561   0.75690   0.00000  Uiso   1.00
C159   C     0.99991   0.16230   0.52571   0.00000  Uiso   1.00
C160   C     0.99992   0.12498   0.44081   0.00000  Uiso   1.00
C161   C     0.99995   0.16697   0.35952   0.00000  Uiso   1.00
H162   H     0.99997   0.32783   0.63237   0.00000  Uiso   1.00
H163   H     0.87735   0.33242   0.72364   0.00000  Uiso   1.00
H164   H     0.12262   0.33235   0.72356   0.00000  Uiso   1.00
H165   H     0.99998   0.34014   0.45094   0.00000  Uiso   1.00
H166   H     0.74141   0.30374   0.82327   0.00000  Uiso   1.00
H167   H     0.25859   0.30360   0.82308   0.00000  Uiso   1.00
H168   H     0.99999   0.32004   0.24819   0.00000  Uiso   1.00
H169   H     0.99990   0.06770   0.62016   0.00000  Uiso   1.00
H170   H     0.87727   0.05801   0.71075   0.00000  Uiso   1.00
H171   H     0.12254   0.05795   0.71068   0.00000  Uiso   1.00
H172   H     0.99991   0.06574   0.43805   0.00000  Uiso   1.00
H173   H     0.74135   0.08102   0.81281   0.00000  Uiso   1.00
H174   H     0.25853   0.08089   0.81262   0.00000  Uiso   1.00
H175   H     0.99993   0.09732   0.23774   0.00000  Uiso   1.00
O176   O     0.66073   0.19070   0.87788   0.00000  Uiso   1.00
O177   O     0.33925   0.19052   0.87762   0.00000  Uiso   1.00
O178   O     0.99997   0.21208   0.12339   0.00000  Uiso   1.00
N179   N     0.75822   0.25265   0.80836   0.00000  Uiso   1.00
N180   N     0.24174   0.25252   0.80820   0.00000  Uiso   1.00
N181   N    -0.00001   0.26789   0.27073   0.00000  Uiso   1.00
N182   N     0.75818   0.13281   0.80273   0.00000  Uiso   1.00
N183   N     0.24171   0.13268   0.80257   0.00000  Uiso   1.00
N184   N     0.99996   0.14805   0.26510   0.00000  Uiso   1.00
C185   C     0.26824   0.50005   0.87957   0.00000  Uiso   1.00
C186   C     0.23466   0.56669   0.92746   0.00000  Uiso   1.00
C187   C     0.27318   0.62269   0.97086   0.00000  Uiso   1.00
C188   C     0.23239   0.67878   0.01060   0.00000  Uiso   1.00
C189   C     0.19189   0.78223   0.08554   0.00000  Uiso   1.00
C190   C     0.23462   0.43343   0.92743   0.00000  Uiso   1.00
C191   C     0.27311   0.37738   0.97080   0.00000  Uiso   1.00
C192   C     0.23229   0.32130   0.01050   0.00000  Uiso   1.00
C193   C     0.19174   0.21782   0.08534   0.00000  Uiso   1.00
C194   C     0.23885   0.50007   0.77931   0.00000  Uiso   1.00
C195   C     0.28091   0.50003   0.69813   0.00000  Uiso   1.00
C196   C     0.24365   0.50003   0.61312   0.00000  Uiso   1.00
C197   C     0.20968   0.50003   0.45797   0.00000  Uiso   1.00
C198   C     0.12730   0.50009   0.87295   0.00000  Uiso   1.00
C199   C     0.15811   0.56670   0.92386   0.00000  Uiso   1.00
C200   C     0.11725   0.62273   0.96354   0.00000  Uiso   1.00
C201   C     0.15570   0.67881   0.00700   0.00000  Uiso   1.00
C202   C     0.15807   0.43345   0.92384   0.00000  Uiso   1.00
C203   C     0.11719   0.37742   0.96348   0.00000  Uiso   1.00
C204   C     0.15561   0.32131   0.00690   0.00000  Uiso   1.00
C205   C     0.16230   0.50009   0.77571   0.00000  Uiso   1.00
C206   C     0.12498   0.50008   0.69081   0.00000  Uiso   1.00
C207   C     0.16697   0.50005   0.60952   0.00000  Uiso   1.00
H208   H     0.32783   0.50003   0.88237   0.00000  Uiso   1.00
H209   H     0.33242   0.62265   0.97364   0.00000  Uiso   1.00
H210   H     0.33235   0.37738   0.97356   0.00000  Uiso   1.00
H211   H     0.34014   0.50002   0.70094   0.00000  Uiso   1.00
H212   H     0.30374   0.75859   0.07327   0.00000  Uiso   1.00
H213   H     0.30360   0.24141   0.07308   0.00000  Uiso   1.00
H214   H     0.32004   0.50001   0.49819   0.00000  Uiso   1.00
H215   H     0.06770   0.50010   0.87016   0.00000  Uiso   1.00
H216   H     0.05801   0.62273   0.96075   0.00000  Uiso   1.00
H217   H     0.05795   0.37746   0.96068   0.00000  Uiso   1.00
H218   H     0.06574   0.50009   0.68805   0.00000  Uiso   1.00
H219   H     0.08102   0.75865   0.06281   0.00000  Uiso   1.00
H220   H     0.08089   0.24147   0.06262   0.00000  Uiso   1.00
H221   H     0.09732   0.50007   0.48774   0.00000  Uiso   1.00
O222   O     0.19070   0.83927   0.12788   0.00000  Uiso   1.00
O223   O     0.19052   0.16075   0.12762   0.00000  Uiso   1.00
O224   O     0.21208   0.50003   0.37339   0.00000  Uiso   1.00
N225   N     0.25265   0.74178   0.05836   0.00000  Uiso   1.00
N226   N     0.25252   0.25826   0.05820   0.00000  Uiso   1.00
N227   N     0.26789   0.50001   0.52073   0.00000  Uiso   1.00
N228   N     0.13281   0.74182   0.05273   0.00000  Uiso   1.00
N229   N     0.13268   0.25829   0.05257   0.00000  Uiso   1.00
N230   N     0.14805   0.50004   0.51510   0.00000  Uiso   1.00
C231   C     0.76824   0.00005   0.37957   0.00000  Uiso   1.00
C232   C     0.73466   0.06669   0.42746   0.00000  Uiso   1.00
C233   C     0.77318   0.12269   0.47086   0.00000  Uiso   1.00
C234   C     0.73239   0.17878   0.51060   0.00000  Uiso   1.00
C235   C     0.69189   0.28223   0.58554   0.00000  Uiso   1.00
C236   C     0.73462   0.93343   0.42743   0.00000  Uiso   1.00
C237   C     0.77311   0.87738   0.47080   0.00000  Uiso   1.00
C238   C     0.73229   0.82130   0.51050   0.00000  Uiso   1.00
C239   C     0.69174   0.71782   0.58534   0.00000  Uiso   1.00
C240   C     0.73885   0.00007   0.27931   0.00000  Uiso   1.00
C241   C     0.78091   0.00003   0.19813   0.00000  Uiso   1.00
C242   C     0.74365   0.00003   0.11312   0.00000  Uiso   1.00
C243   C     0.70968   0.00003   0.95797   0.00000  Uiso   1.00
C244   C     0.62730   0.00009   0.37295   0.00000  Uiso   1.00
C245   C     0.65811   0.06670   0.42386   0.00000  Uiso   1.00
C246   C     0.61725   0.12273   0.46354   0.00000  Uiso   1.00
C247   C     0.65570   0.17881   0.50700   0.00000  Uiso   1.00
C248   C     0.65807   0.93345   0.42384   0.00000  Uiso   1.00
C249   C     0.61719   0.87742   0.46348   0.00000  Uiso   1.00
C250   C     0.65561   0.82131   0.50690   0.00000  Uiso   1.00
C251   C     0.66230   0.00009   0.27571   0.00000  Uiso   1.00
C252   C     0.62498   0.00008   0.19081   0.00000  Uiso   1.00
C253   C     0.66697   0.00005   0.10952   0.00000  Uiso   1.00
H254   H     0.82783   0.00003   0.38237   0.00000  Uiso   1.00
H255   H     0.83242   0.12265   0.47364   0.00000  Uiso   1.00
H256   H     0.83235   0.87738   0.47356   0.00000  Uiso   1.00
H257   H     0.84014   0.00002   0.20094   0.00000  Uiso   1.00
H258   H     0.80374   0.25859   0.57327   0.00000  Uiso   1.00
H259   H     0.80360   0.74141   0.57308   0.00000  Uiso   1.00
H260   H     0.82004   0.00001   0.99819   0.00000  Uiso   1.00
H261   H     0.56770   0.00010   0.37016   0.00000  Uiso   1.00
H262   H     0.55801   0.12273   0.46075   0.00000  Uiso   1.00
H263   H     0.55795   0.87746   0.46068   0.00000  Uiso   1.00
H264   H     0.56574   0.00009   0.18805   0.00000  Uiso   1.00
H265   H     0.58102   0.25865   0.56281   0.00000  Uiso   1.00
H266   H     0.58089   0.74147   0.56262   0.00000  Uiso   1.00
H267   H     0.59732   0.00007   0.98774   0.00000  Uiso   1.00
O268   O     0.69070   0.33927   0.62788   0.00000  Uiso   1.00
O269   O     0.69052   0.66075   0.62762   0.00000  Uiso   1.00
O270   O     0.71208   0.00003   0.87339   0.00000  Uiso   1.00
N271   N     0.75265   0.24178   0.55836   0.00000  Uiso   1.00
N272   N     0.75252   0.75826   0.55820   0.00000  Uiso   1.00
N273   N     0.76789   0.00001   0.02073   0.00000  Uiso   1.00
N274   N     0.63281   0.24182   0.55273   0.00000  Uiso   1.00
N275   N     0.63268   0.75829   0.55257   0.00000  Uiso   1.00
N276   N     0.64805   0.00004   0.01510   0.00000  Uiso   1.00
C277   C     0.23176   0.99995   0.37957   0.00000  Uiso   1.00
C278   C     0.26534   0.93331   0.42746   0.00000  Uiso   1.00
C279   C     0.22682   0.87731   0.47086   0.00000  Uiso   1.00
C280   C     0.26761   0.82122   0.51060   0.00000  Uiso   1.00
C281   C     0.30811   0.71777   0.58554   0.00000  Uiso   1.00
C282   C     0.26538   0.06657   0.42743   0.00000  Uiso   1.00
C283   C     0.22689   0.12262   0.47080   0.00000  Uiso   1.00
C284   C     0.26771   0.17870   0.51050   0.00000  Uiso   1.00
C285   C     0.30826   0.28218   0.58534   0.00000  Uiso   1.00
C286   C     0.26115   0.99993   0.27931   0.00000  Uiso   1.00
C287   C     0.21909   0.99997   0.19813   0.00000  Uiso   1.00
C288   C     0.25635   0.99997   0.11312   0.00000  Uiso   1.00
C289   C     0.29032   0.99997   0.95797   0.00000  Uiso   1.00
C290   C     0.37270   0.99991   0.37295   0.00000  Uiso   1.00
C291   C     0.34189   0.93330   0.42386   0.00000  Uiso   1.00
C292   C     0.38275   0.87727   0.46354   0.00000  Uiso   1.00
C293   C     0.34430   0.82119   0.50700   0.00000  Uiso   1.00
C294   C     0.34193   0.06655   0.42384   0.00000  Uiso   1.00
C295   C     0.38281   0.12258   0.46348   0.00000  Uiso   1.00
C296   C     0.34439   0.17869   0.50690   0.00000  Uiso   1.00
C297   C     0.33770   0.99991   0.27571   0.00000  Uiso   1.00
C298   C     0.37502   0.99992   0.19081   0.00000  Uiso   1.00
C299   C     0.33303   0.99995   0.10952   0.00000  Uiso   1.00
H300   H     0.17217   0.99997   0.38237   0.00000  Uiso   1.00
H301   H     0.16758   0.87735   0.47364   0.00000  Uiso   1.00
H302   H     0.16765   0.12262   0.47356   0.00000  Uiso   1.00
H303   H     0.15986   0.99998   0.20094   0.00000  Uiso   1.00
H304   H     0.19626   0.74141   0.57327   0.00000  Uiso   1.00
H305   H     0.19640   0.25859   0.57308   0.00000  Uiso   1.00
H306   H     0.17996   0.99999   0.99819   0.00000  Uiso   1.00
H307   H     0.43230   0.99990   0.37016   0.00000  Uiso   1.00
H308   H     0.44199   0.87727   0.46075   0.00000  Uiso   1.00
H309   H     0.44205   0.12254   0.46068   0.00000  Uiso   1.00
H310   H     0.43426   0.99991   0.18805   0.00000  Uiso   1.00
H311   H     0.41898   0.74135   0.56281   0.00000  Uiso   1.00
H312   H     0.41911   0.25853   0.56262   0.00000  Uiso   1.00
H313   H     0.40268   0.99993   0.98774   0.00000  Uiso   1.00
O314   O     0.30930   0.66073   0.62788   0.00000  Uiso   1.00
O315   O     0.30948   0.33925   0.62762   0.00000  Uiso   1.00
O316   O     0.28792   0.99997   0.87339   0.00000  Uiso   1.00
N317   N     0.24735   0.75822   0.55836   0.00000  Uiso   1.00
N318   N     0.24748   0.24174   0.55820   0.00000  Uiso   1.00
N319   N     0.23211  -0.00001   0.02073   0.00000  Uiso   1.00
N320   N     0.36719   0.75818   0.55273   0.00000  Uiso   1.00
N321   N     0.36732   0.24171   0.55257   0.00000  Uiso   1.00
N322   N     0.35195   0.99996   0.01510   0.00000  Uiso   1.00
C323   C     0.73176   0.49995   0.87957   0.00000  Uiso   1.00
C324   C     0.76534   0.43331   0.92746   0.00000  Uiso   1.00
C325   C     0.72682   0.37731   0.97086   0.00000  Uiso   1.00
C326   C     0.76761   0.32122   0.01060   0.00000  Uiso   1.00
C327   C     0.80811   0.21777   0.08554   0.00000  Uiso   1.00
C328   C     0.76538   0.56657   0.92743   0.00000  Uiso   1.00
C329   C     0.72689   0.62262   0.97080   0.00000  Uiso   1.00
C330   C     0.76771   0.67870   0.01050   0.00000  Uiso   1.00
C331   C     0.80826   0.78218   0.08534   0.00000  Uiso   1.00
C332   C     0.76115   0.49993   0.77931   0.00000  Uiso   1.00
C333   C     0.71909   0.49997   0.69813   0.00000  Uiso   1.00
C334   C     0.75635   0.49997   0.61312   0.00000  Uiso   1.00
C335   C     0.79032   0.49997   0.45797   0.00000  Uiso   1.00
C336   C     0.87270   0.49991   0.87295   0.00000  Uiso   1.00
C337   C     0.84189   0.43330   0.92386   0.00000  Uiso   1.00
C338   C     0.88275   0.37727   0.96354   0.00000  Uiso   1.00
C339   C     0.84430   0.32119   0.00700   0.00000  Uiso   1.00
C340   C     0.84193   0.56655   0.92384   0.00000  Uiso   1.00
C341   C     0.88281   0.62258   0.96348   0.00000  Uiso   1.00
C342   C     0.84439   0.67869   0.00690   0.00000  Uiso   1.00
C343   C     0.83770   0.49991   0.77571   0.00000  Uiso   1.00
C344   C     0.87502   0.49992   0.69081   0.00000  Uiso   1.00
C345   C     0.83303   0.49995   0.60952   0.00000  Uiso   1.00
H346   H     0.67217   0.49997   0.88237   0.00000  Uiso   1.00
H347   H     0.66758   0.37735   0.97364   0.00000  Uiso   1.00
H348   H     0.66765   0.62262   0.97356   0.00000  Uiso   1.00
H349   H     0.65986   0.49998   0.70094   0.00000  Uiso   1.00
H350   H     0.69626   0.24141   0.07327   0.00000  Uiso   1.00
H351   H     0.69640   0.75859   0.07308   0.00000  Uiso   1.00
H352   H     0.67996   0.49999   0.49819   0.00000  Uiso   1.00
H353   H     0.93230   0.49990   0.87016   0.00000  Uiso   1.00
H354   H     0.94199   0.37727   0.96075   0.00000  Uiso   1.00
H355   H     0.94205   0.62254   0.96068   0.00000  Uiso   1.00
H356   H     0.93426   0.49991   0.68805   0.00000  Uiso   1.00
H357   H     0.91898   0.24135   0.06281   0.00000  Uiso   1.00
H358   H     0.91911   0.75853   0.06262   0.00000  Uiso   1.00
H359   H     0.90268   0.49993   0.48774   0.00000  Uiso   1.00
O360   O     0.80930   0.16073   0.12788   0.00000  Uiso   1.00
O361   O     0.80948   0.83925   0.12762   0.00000  Uiso   1.00
O362   O     0.78792   0.49997   0.37339   0.00000  Uiso   1.00
N363   N     0.74735   0.25822   0.05836   0.00000  Uiso   1.00
N364   N     0.74748   0.74174   0.05820   0.00000  Uiso   1.00
N365   N     0.73211   0.49999   0.52073   0.00000  Uiso   1.00
N366   N     0.86719   0.25818   0.05273   0.00000  Uiso   1.00
N367   N     0.86732   0.74171   0.05257   0.00000  Uiso   1.00
N368   N     0.85195   0.49996   0.51510   0.00000  Uiso   1.00
