data_job_02068
_audit_creation_date              2018-12-19
_audit_creation_method            'Materials Studio'
_symmetry_space_group_name_H-M    'P1'
_symmetry_Int_Tables_number       1
_symmetry_cell_setting            triclinic
loop_
_symmetry_equiv_pos_as_xyz
  x,y,z
_cell_length_a                    16.5494
_cell_length_b                    16.5494
_cell_length_c                    14.1094
_cell_angle_alpha                 90.0000
_cell_angle_beta                  90.0000
_cell_angle_gamma                 120.0000
loop_
_atom_site_label
_atom_site_type_symbol
_atom_site_fract_x
_atom_site_fract_y
_atom_site_fract_z
_atom_site_U_iso_or_equiv
_atom_site_adp_type
_atom_site_occupancy
C1     C     0.39298   0.10721   0.75031   0.00000  Uiso   1.00
C2     C     0.38845   0.17549   0.81969   0.00000  Uiso   1.00
C3     C     0.38124   0.16560   0.91750   0.00000  Uiso   1.00
C4     C     0.37804   0.23569   0.96850   0.00000  Uiso   1.00
C5     C     0.37037   0.32995   0.08311   0.00000  Uiso   1.00
C6     C     0.31293   0.07986   0.68068   0.00000  Uiso   1.00
C7     C     0.24224   0.98956   0.66161   0.00000  Uiso   1.00
C8     C     0.17549   0.97915   0.59558   0.00000  Uiso   1.00
C9     C     0.05061   0.92494   0.49433   0.00000  Uiso   1.00
C10    C     0.48244   0.16364   0.69345   0.00000  Uiso   1.00
C11    C     0.55427   0.14377   0.68509   0.00000  Uiso   1.00
C12    C     0.63022   0.20389   0.62980   0.00000  Uiso   1.00
C13    C     0.76854   0.27975   0.54837   0.00000  Uiso   1.00
C14    C     0.40013   0.24929   0.66697   0.00000  Uiso   1.00
C15    C     0.39233   0.25266   0.77442   0.00000  Uiso   1.00
C16    C     0.38915   0.32279   0.82528   0.00000  Uiso   1.00
C17    C     0.38194   0.31301   0.92315   0.00000  Uiso   1.00
C18    C     0.31681   0.15703   0.63541   0.00000  Uiso   1.00
C19    C     0.25015   0.14676   0.56939   0.00000  Uiso   1.00
C20    C     0.17937   0.05646   0.55023   0.00000  Uiso   1.00
C21    C     0.48633   0.24082   0.64818   0.00000  Uiso   1.00
C22    C     0.56218   0.30097   0.59288   0.00000  Uiso   1.00
C23    C     0.63411   0.28120   0.58444   0.00000  Uiso   1.00
H24    H     0.38995   0.04713   0.78556   0.00000  Uiso   1.00
H25    H     0.37823   0.10586   0.95250   0.00000  Uiso   1.00
H26    H     0.23926   0.92985   0.69665   0.00000  Uiso   1.00
H27    H     0.55124   0.08405   0.72013   0.00000  Uiso   1.00
H28    H     0.36691   0.20499   0.11763   0.00000  Uiso   1.00
H29    H     0.07390   0.83387   0.57812   0.00000  Uiso   1.00
H30    H     0.73178   0.15901   0.62764   0.00000  Uiso   1.00
H31    H     0.40315   0.30938   0.63172   0.00000  Uiso   1.00
H32    H     0.39215   0.38251   0.79023   0.00000  Uiso   1.00
H33    H     0.25318   0.20649   0.53437   0.00000  Uiso   1.00
H34    H     0.56516   0.36068   0.55786   0.00000  Uiso   1.00
H35    H     0.37820   0.42953   0.98592   0.00000  Uiso   1.00
H36    H     0.08520   0.05840   0.44641   0.00000  Uiso   1.00
H37    H     0.74307   0.38354   0.49593   0.00000  Uiso   1.00
O38    O     0.36505   0.36062   0.15882   0.00000  Uiso   1.00
O39    O     0.98065   0.87372   0.45099   0.00000  Uiso   1.00
O40    O     0.84377   0.30029   0.51597   0.00000  Uiso   1.00
N41    N     0.37110   0.24781   0.06488   0.00000  Uiso   1.00
N42    N     0.09714   0.90083   0.56048   0.00000  Uiso   1.00
N43    N     0.71219   0.20479   0.60676   0.00000  Uiso   1.00
N44    N     0.37718   0.36863   0.99401   0.00000  Uiso   1.00
N45    N     0.10322   0.02165   0.48961   0.00000  Uiso   1.00
N46    N     0.71827   0.32561   0.53589   0.00000  Uiso   1.00
C47    C     0.89279   0.28577   0.08365   0.00000  Uiso   1.00
C48    C     0.82451   0.21295   0.15302   0.00000  Uiso   1.00
C49    C     0.83440   0.21564   0.25083   0.00000  Uiso   1.00
C50    C     0.76431   0.14235   0.30183   0.00000  Uiso   1.00
C51    C     0.67005   0.04042   0.41644   0.00000  Uiso   1.00
C52    C     0.92014   0.23307   0.01402   0.00000  Uiso   1.00
C53    C     0.01044   0.25268   0.99494   0.00000  Uiso   1.00
C54    C     0.02085   0.19633   0.92892   0.00000  Uiso   1.00
C55    C     0.07506   0.12567   0.82766   0.00000  Uiso   1.00
C56    C     0.83636   0.31880   0.02679   0.00000  Uiso   1.00
C57    C     0.85623   0.41050   0.01842   0.00000  Uiso   1.00
C58    C     0.79611   0.42634   0.96313   0.00000  Uiso   1.00
C59    C     0.72025   0.48879   0.88170   0.00000  Uiso   1.00
C60    C     0.75071   0.15083   0.00030   0.00000  Uiso   1.00
C61    C     0.74734   0.13966   0.10775   0.00000  Uiso   1.00
C62    C     0.67721   0.06635   0.15862   0.00000  Uiso   1.00
C63    C     0.68699   0.06893   0.25648   0.00000  Uiso   1.00
C64    C     0.84297   0.15978   0.96875   0.00000  Uiso   1.00
C65    C     0.85324   0.10339   0.90273   0.00000  Uiso   1.00
C66    C     0.94354   0.12291   0.88356   0.00000  Uiso   1.00
C67    C     0.75918   0.24551   0.98152   0.00000  Uiso   1.00
C68    C     0.69903   0.26121   0.92622   0.00000  Uiso   1.00
C69    C     0.71880   0.35291   0.91778   0.00000  Uiso   1.00
H70    H     0.95287   0.34282   0.11889   0.00000  Uiso   1.00
H71    H     0.89414   0.27237   0.28584   0.00000  Uiso   1.00
H72    H     0.07015   0.30941   0.02998   0.00000  Uiso   1.00
H73    H     0.91595   0.46720   0.05347   0.00000  Uiso   1.00
H74    H     0.79501   0.16192   0.45096   0.00000  Uiso   1.00
H75    H     0.16613   0.24003   0.91145   0.00000  Uiso   1.00
H76    H     0.84099   0.57277   0.96097   0.00000  Uiso   1.00
H77    H     0.69062   0.09377   0.96505   0.00000  Uiso   1.00
H78    H     0.61749   0.00965   0.12356   0.00000  Uiso   1.00
H79    H     0.79351   0.04669   0.86771   0.00000  Uiso   1.00
H80    H     0.63932   0.20448   0.89119   0.00000  Uiso   1.00
H81    H     0.57047   0.94868   0.31926   0.00000  Uiso   1.00
H82    H     0.94160   0.02680   0.77974   0.00000  Uiso   1.00
H83    H     0.61646   0.35954   0.82927   0.00000  Uiso   1.00
O84    O     0.63938   0.00443   0.49216   0.00000  Uiso   1.00
O85    O     0.12628   0.10694   0.78432   0.00000  Uiso   1.00
O86    O     0.69971   0.54348   0.84931   0.00000  Uiso   1.00
N87    N     0.75219   0.12328   0.39822   0.00000  Uiso   1.00
N88    N     0.09917   0.19631   0.89381   0.00000  Uiso   1.00
N89    N     0.79521   0.50740   0.94009   0.00000  Uiso   1.00
N90    N     0.63137   0.00854   0.32735   0.00000  Uiso   1.00
N91    N     0.97835   0.08157   0.82294   0.00000  Uiso   1.00
N92    N     0.67439   0.39266   0.86922   0.00000  Uiso   1.00
C93    C     0.71423   0.60702   0.41698   0.00000  Uiso   1.00
C94    C     0.78705   0.61155   0.48636   0.00000  Uiso   1.00
C95    C     0.78436   0.61876   0.58416   0.00000  Uiso   1.00
C96    C     0.85765   0.62196   0.63517   0.00000  Uiso   1.00
C97    C     0.95958   0.62963   0.74977   0.00000  Uiso   1.00
C98    C     0.76693   0.68707   0.34735   0.00000  Uiso   1.00
C99    C     0.74732   0.75776   0.32827   0.00000  Uiso   1.00
C100   C     0.80367   0.82451   0.26225   0.00000  Uiso   1.00
C101   C     0.87433   0.94939   0.16099   0.00000  Uiso   1.00
C102   C     0.68120   0.51756   0.36012   0.00000  Uiso   1.00
C103   C     0.58950   0.44573   0.35176   0.00000  Uiso   1.00
C104   C     0.57366   0.36978   0.29647   0.00000  Uiso   1.00
C105   C     0.51121   0.23146   0.21504   0.00000  Uiso   1.00
C106   C     0.84917   0.59987   0.33363   0.00000  Uiso   1.00
C107   C     0.86034   0.60767   0.44108   0.00000  Uiso   1.00
C108   C     0.93365   0.61085   0.49195   0.00000  Uiso   1.00
C109   C     0.93107   0.61806   0.58982   0.00000  Uiso   1.00
C110   C     0.84022   0.68319   0.30208   0.00000  Uiso   1.00
C111   C     0.89661   0.74985   0.23606   0.00000  Uiso   1.00
C112   C     0.87709   0.82063   0.21690   0.00000  Uiso   1.00
C113   C     0.75449   0.51367   0.31485   0.00000  Uiso   1.00
C114   C     0.73879   0.43782   0.25955   0.00000  Uiso   1.00
C115   C     0.64709   0.36589   0.25111   0.00000  Uiso   1.00
H116   H     0.65718   0.61005   0.45222   0.00000  Uiso   1.00
H117   H     0.72763   0.62177   0.61917   0.00000  Uiso   1.00
H118   H     0.69059   0.76074   0.36331   0.00000  Uiso   1.00
H119   H     0.53280   0.44876   0.38680   0.00000  Uiso   1.00
H120   H     0.83808   0.63309   0.78430   0.00000  Uiso   1.00
H121   H     0.75997   0.92610   0.24478   0.00000  Uiso   1.00
H122   H     0.42723   0.26822   0.29431   0.00000  Uiso   1.00
H123   H     0.90623   0.59685   0.29839   0.00000  Uiso   1.00
H124   H     0.99035   0.60785   0.45690   0.00000  Uiso   1.00
H125   H     0.95331   0.74682   0.20104   0.00000  Uiso   1.00
H126   H     0.79552   0.43484   0.22453   0.00000  Uiso   1.00
H127   H     0.05132   0.62180   0.65259   0.00000  Uiso   1.00
H128   H     0.97320   0.91480   0.11307   0.00000  Uiso   1.00
H129   H     0.64046   0.25693   0.16260   0.00000  Uiso   1.00
O130   O     0.99557   0.63495   0.82549   0.00000  Uiso   1.00
O131   O     0.89306   0.01935   0.11766   0.00000  Uiso   1.00
O132   O     0.45652   0.15623   0.18264   0.00000  Uiso   1.00
N133   N     0.87672   0.62890   0.73155   0.00000  Uiso   1.00
N134   N     0.80369   0.90286   0.22715   0.00000  Uiso   1.00
N135   N     0.49260   0.28781   0.27343   0.00000  Uiso   1.00
N136   N     0.99146   0.62282   0.66068   0.00000  Uiso   1.00
N137   N     0.91843   0.89678   0.15628   0.00000  Uiso   1.00
N138   N     0.60734   0.28173   0.20256   0.00000  Uiso   1.00
C139   C     0.60702   0.89279   0.75031   0.00000  Uiso   1.00
C140   C     0.61155   0.82451   0.81969   0.00000  Uiso   1.00
C141   C     0.61876   0.83440   0.91750   0.00000  Uiso   1.00
C142   C     0.62196   0.76431   0.96850   0.00000  Uiso   1.00
C143   C     0.62963   0.67005   0.08311   0.00000  Uiso   1.00
C144   C     0.68707   0.92014   0.68068   0.00000  Uiso   1.00
C145   C     0.75776   0.01044   0.66161   0.00000  Uiso   1.00
C146   C     0.82451   0.02085   0.59558   0.00000  Uiso   1.00
C147   C     0.94939   0.07506   0.49433   0.00000  Uiso   1.00
C148   C     0.51756   0.83636   0.69345   0.00000  Uiso   1.00
C149   C     0.44573   0.85623   0.68509   0.00000  Uiso   1.00
C150   C     0.36978   0.79611   0.62980   0.00000  Uiso   1.00
C151   C     0.23146   0.72025   0.54837   0.00000  Uiso   1.00
C152   C     0.59987   0.75071   0.66697   0.00000  Uiso   1.00
C153   C     0.60767   0.74734   0.77442   0.00000  Uiso   1.00
C154   C     0.61085   0.67721   0.82528   0.00000  Uiso   1.00
C155   C     0.61806   0.68699   0.92315   0.00000  Uiso   1.00
C156   C     0.68319   0.84297   0.63541   0.00000  Uiso   1.00
C157   C     0.74985   0.85324   0.56939   0.00000  Uiso   1.00
C158   C     0.82063   0.94354   0.55023   0.00000  Uiso   1.00
C159   C     0.51367   0.75918   0.64818   0.00000  Uiso   1.00
C160   C     0.43782   0.69903   0.59288   0.00000  Uiso   1.00
C161   C     0.36589   0.71880   0.58444   0.00000  Uiso   1.00
H162   H     0.61005   0.95287   0.78556   0.00000  Uiso   1.00
H163   H     0.62177   0.89414   0.95250   0.00000  Uiso   1.00
H164   H     0.76074   0.07015   0.69665   0.00000  Uiso   1.00
H165   H     0.44876   0.91595   0.72013   0.00000  Uiso   1.00
H166   H     0.63309   0.79501   0.11763   0.00000  Uiso   1.00
H167   H     0.92610   0.16613   0.57812   0.00000  Uiso   1.00
H168   H     0.26822   0.84099   0.62764   0.00000  Uiso   1.00
H169   H     0.59685   0.69062   0.63172   0.00000  Uiso   1.00
H170   H     0.60785   0.61749   0.79023   0.00000  Uiso   1.00
H171   H     0.74682   0.79351   0.53437   0.00000  Uiso   1.00
H172   H     0.43484   0.63932   0.55786   0.00000  Uiso   1.00
H173   H     0.62180   0.57047   0.98592   0.00000  Uiso   1.00
H174   H     0.91480   0.94160   0.44641   0.00000  Uiso   1.00
H175   H     0.25693   0.61646   0.49593   0.00000  Uiso   1.00
O176   O     0.63495   0.63938   0.15882   0.00000  Uiso   1.00
O177   O     0.01935   0.12628   0.45099   0.00000  Uiso   1.00
O178   O     0.15623   0.69971   0.51597   0.00000  Uiso   1.00
N179   N     0.62890   0.75219   0.06488   0.00000  Uiso   1.00
N180   N     0.90286   0.09917   0.56048   0.00000  Uiso   1.00
N181   N     0.28781   0.79521   0.60676   0.00000  Uiso   1.00
N182   N     0.62282   0.63137   0.99401   0.00000  Uiso   1.00
N183   N     0.89678   0.97835   0.48961   0.00000  Uiso   1.00
N184   N     0.28173   0.67439   0.53589   0.00000  Uiso   1.00
C185   C     0.10721   0.71423   0.08365   0.00000  Uiso   1.00
C186   C     0.17549   0.78705   0.15302   0.00000  Uiso   1.00
C187   C     0.16560   0.78436   0.25083   0.00000  Uiso   1.00
C188   C     0.23569   0.85765   0.30183   0.00000  Uiso   1.00
C189   C     0.32995   0.95958   0.41644   0.00000  Uiso   1.00
C190   C     0.07986   0.76693   0.01402   0.00000  Uiso   1.00
C191   C     0.98956   0.74732   0.99494   0.00000  Uiso   1.00
C192   C     0.97915   0.80367   0.92892   0.00000  Uiso   1.00
C193   C     0.92494   0.87433   0.82766   0.00000  Uiso   1.00
C194   C     0.16364   0.68120   0.02679   0.00000  Uiso   1.00
C195   C     0.14377   0.58950   0.01842   0.00000  Uiso   1.00
C196   C     0.20389   0.57366   0.96313   0.00000  Uiso   1.00
C197   C     0.27975   0.51121   0.88170   0.00000  Uiso   1.00
C198   C     0.24929   0.84917   0.00030   0.00000  Uiso   1.00
C199   C     0.25266   0.86034   0.10775   0.00000  Uiso   1.00
C200   C     0.32279   0.93365   0.15862   0.00000  Uiso   1.00
C201   C     0.31301   0.93107   0.25648   0.00000  Uiso   1.00
C202   C     0.15703   0.84022   0.96875   0.00000  Uiso   1.00
C203   C     0.14676   0.89661   0.90273   0.00000  Uiso   1.00
C204   C     0.05646   0.87709   0.88356   0.00000  Uiso   1.00
C205   C     0.24082   0.75449   0.98152   0.00000  Uiso   1.00
C206   C     0.30097   0.73879   0.92622   0.00000  Uiso   1.00
C207   C     0.28120   0.64709   0.91778   0.00000  Uiso   1.00
H208   H     0.04713   0.65718   0.11889   0.00000  Uiso   1.00
H209   H     0.10586   0.72763   0.28584   0.00000  Uiso   1.00
H210   H     0.92985   0.69059   0.02998   0.00000  Uiso   1.00
H211   H     0.08405   0.53280   0.05347   0.00000  Uiso   1.00
H212   H     0.20499   0.83808   0.45096   0.00000  Uiso   1.00
H213   H     0.83387   0.75997   0.91145   0.00000  Uiso   1.00
H214   H     0.15901   0.42723   0.96097   0.00000  Uiso   1.00
H215   H     0.30938   0.90623   0.96505   0.00000  Uiso   1.00
H216   H     0.38251   0.99035   0.12356   0.00000  Uiso   1.00
H217   H     0.20649   0.95331   0.86771   0.00000  Uiso   1.00
H218   H     0.36068   0.79552   0.89119   0.00000  Uiso   1.00
H219   H     0.42953   0.05132   0.31926   0.00000  Uiso   1.00
H220   H     0.05840   0.97320   0.77974   0.00000  Uiso   1.00
H221   H     0.38354   0.64046   0.82927   0.00000  Uiso   1.00
O222   O     0.36062   0.99557   0.49216   0.00000  Uiso   1.00
O223   O     0.87372   0.89306   0.78432   0.00000  Uiso   1.00
O224   O     0.30029   0.45652   0.84931   0.00000  Uiso   1.00
N225   N     0.24781   0.87672   0.39822   0.00000  Uiso   1.00
N226   N     0.90083   0.80369   0.89381   0.00000  Uiso   1.00
N227   N     0.20479   0.49260   0.94009   0.00000  Uiso   1.00
N228   N     0.36863   0.99146   0.32735   0.00000  Uiso   1.00
N229   N     0.02165   0.91843   0.82294   0.00000  Uiso   1.00
N230   N     0.32561   0.60734   0.86922   0.00000  Uiso   1.00
C231   C     0.28577   0.39298   0.41698   0.00000  Uiso   1.00
C232   C     0.21295   0.38845   0.48636   0.00000  Uiso   1.00
C233   C     0.21564   0.38124   0.58416   0.00000  Uiso   1.00
C234   C     0.14235   0.37804   0.63517   0.00000  Uiso   1.00
C235   C     0.04042   0.37037   0.74977   0.00000  Uiso   1.00
C236   C     0.23307   0.31293   0.34735   0.00000  Uiso   1.00
C237   C     0.25268   0.24224   0.32827   0.00000  Uiso   1.00
C238   C     0.19633   0.17549   0.26225   0.00000  Uiso   1.00
C239   C     0.12567   0.05061   0.16099   0.00000  Uiso   1.00
C240   C     0.31880   0.48244   0.36012   0.00000  Uiso   1.00
C241   C     0.41050   0.55427   0.35176   0.00000  Uiso   1.00
C242   C     0.42634   0.63022   0.29647   0.00000  Uiso   1.00
C243   C     0.48879   0.76854   0.21504   0.00000  Uiso   1.00
C244   C     0.15083   0.40013   0.33363   0.00000  Uiso   1.00
C245   C     0.13966   0.39233   0.44108   0.00000  Uiso   1.00
C246   C     0.06635   0.38915   0.49195   0.00000  Uiso   1.00
C247   C     0.06893   0.38194   0.58982   0.00000  Uiso   1.00
C248   C     0.15978   0.31681   0.30208   0.00000  Uiso   1.00
C249   C     0.10339   0.25015   0.23606   0.00000  Uiso   1.00
C250   C     0.12291   0.17937   0.21690   0.00000  Uiso   1.00
C251   C     0.24551   0.48633   0.31485   0.00000  Uiso   1.00
C252   C     0.26121   0.56218   0.25955   0.00000  Uiso   1.00
C253   C     0.35291   0.63411   0.25111   0.00000  Uiso   1.00
H254   H     0.34282   0.38995   0.45222   0.00000  Uiso   1.00
H255   H     0.27237   0.37823   0.61917   0.00000  Uiso   1.00
H256   H     0.30941   0.23926   0.36331   0.00000  Uiso   1.00
H257   H     0.46720   0.55124   0.38680   0.00000  Uiso   1.00
H258   H     0.16192   0.36691   0.78430   0.00000  Uiso   1.00
H259   H     0.24003   0.07390   0.24478   0.00000  Uiso   1.00
H260   H     0.57277   0.73178   0.29431   0.00000  Uiso   1.00
H261   H     0.09377   0.40315   0.29839   0.00000  Uiso   1.00
H262   H     0.00965   0.39215   0.45690   0.00000  Uiso   1.00
H263   H     0.04669   0.25318   0.20104   0.00000  Uiso   1.00
H264   H     0.20448   0.56516   0.22453   0.00000  Uiso   1.00
H265   H     0.94868   0.37820   0.65259   0.00000  Uiso   1.00
H266   H     0.02680   0.08520   0.11307   0.00000  Uiso   1.00
H267   H     0.35954   0.74307   0.16260   0.00000  Uiso   1.00
O268   O     0.00443   0.36505   0.82549   0.00000  Uiso   1.00
O269   O     0.10694   0.98065   0.11766   0.00000  Uiso   1.00
O270   O     0.54348   0.84377   0.18264   0.00000  Uiso   1.00
N271   N     0.12328   0.37110   0.73155   0.00000  Uiso   1.00
N272   N     0.19631   0.09714   0.22715   0.00000  Uiso   1.00
N273   N     0.50740   0.71219   0.27343   0.00000  Uiso   1.00
N274   N     0.00854   0.37718   0.66068   0.00000  Uiso   1.00
N275   N     0.08157   0.10322   0.15628   0.00000  Uiso   1.00
N276   N     0.39266   0.71827   0.20256   0.00000  Uiso   1.00
