data_job_06542
_audit_creation_date              2018-12-19
_audit_creation_method            'Materials Studio'
_symmetry_space_group_name_H-M    'P1'
_symmetry_Int_Tables_number       1
_symmetry_cell_setting            triclinic
loop_
_symmetry_equiv_pos_as_xyz
  x,y,z
_cell_length_a                    20.7225
_cell_length_b                    22.2405
_cell_length_c                    22.6895
_cell_angle_alpha                 100.6969
_cell_angle_beta                  104.9818
_cell_angle_gamma                 114.7083
loop_
_atom_site_label
_atom_site_type_symbol
_atom_site_fract_x
_atom_site_fract_y
_atom_site_fract_z
_atom_site_U_iso_or_equiv
_atom_site_adp_type
_atom_site_occupancy
C1     C     0.16976   0.79378   0.62174   0.00000  Uiso   1.00
C2     C     0.22678   0.79816   0.58935   0.00000  Uiso   1.00
C3     C     0.22775   0.74140   0.55267   0.00000  Uiso   1.00
C4     C     0.28457   0.75642   0.52718   0.00000  Uiso   1.00
C5     C     0.36494   0.75267   0.47526   0.00000  Uiso   1.00
C6     C     0.21764   0.83549   0.69341   0.00000  Uiso   1.00
C7     C     0.21090   0.81012   0.74423   0.00000  Uiso   1.00
C8     C     0.26002   0.85657   0.80633   0.00000  Uiso   1.00
C9     C     0.32614   0.91079   0.91597   0.00000  Uiso   1.00
C10    C     0.13284   0.83513   0.59614   0.00000  Uiso   1.00
C11    C     0.05482   0.80947   0.56519   0.00000  Uiso   1.00
C12    C     0.03254   0.85562   0.54541   0.00000  Uiso   1.00
C13    C     0.96701   0.90929   0.50402   0.00000  Uiso   1.00
C14    C     0.26894   0.92136   0.64168   0.00000  Uiso   1.00
C15    C     0.28066   0.86746   0.60018   0.00000  Uiso   1.00
C16    C     0.33749   0.88256   0.57473   0.00000  Uiso   1.00
C17    C     0.33854   0.82584   0.53803   0.00000  Uiso   1.00
C18    C     0.27150   0.90478   0.70424   0.00000  Uiso   1.00
C19    C     0.32063   0.95128   0.76628   0.00000  Uiso   1.00
C20    C     0.31398   0.92599   0.81718   0.00000  Uiso   1.00
C21    C     0.18671   0.90443   0.60697   0.00000  Uiso   1.00
C22    C     0.16455   0.95063   0.58724   0.00000  Uiso   1.00
C23    C     0.08651   0.92504   0.55626   0.00000  Uiso   1.00
H24    H     0.12782   0.73983   0.61332   0.00000  Uiso   1.00
H25    H     0.18606   0.68778   0.54431   0.00000  Uiso   1.00
H26    H     0.16920   0.75650   0.73583   0.00000  Uiso   1.00
H27    H     0.01315   0.75584   0.55682   0.00000  Uiso   1.00
H28    H     0.27440   0.66064   0.47260   0.00000  Uiso   1.00
H29    H     0.23884   0.80553   0.87644   0.00000  Uiso   1.00
H30    H     0.90976   0.80415   0.49895   0.00000  Uiso   1.00
H31    H     0.31089   0.97532   0.65011   0.00000  Uiso   1.00
H32    H     0.37917   0.93619   0.58312   0.00000  Uiso   1.00
H33    H     0.36231   0.00490   0.77464   0.00000  Uiso   1.00
H34    H     0.20625   0.00425   0.59563   0.00000  Uiso   1.00
H35    H     0.43113   0.86225   0.50410   0.00000  Uiso   1.00
H36    H     0.39557   0.00714   0.90794   0.00000  Uiso   1.00
H37    H     0.06649   0.00577   0.53045   0.00000  Uiso   1.00
O38    O     0.39440   0.73146   0.44364   0.00000  Uiso   1.00
O39    O     0.34773   0.92155   0.97346   0.00000  Uiso   1.00
O40    O     0.91599   0.91975   0.47820   0.00000  Uiso   1.00
N41    N     0.30190   0.71346   0.48920   0.00000  Uiso   1.00
N42    N     0.26867   0.84892   0.86676   0.00000  Uiso   1.00
N43    N     0.96100   0.84764   0.51386   0.00000  Uiso   1.00
N44    N     0.38624   0.82195   0.50615   0.00000  Uiso   1.00
N45    N     0.35301   0.95740   0.88371   0.00000  Uiso   1.00
N46    N     0.04534   0.95613   0.53080   0.00000  Uiso   1.00
C47    C     0.46583   0.99861   0.26716   0.00000  Uiso   1.00
C48    C     0.47721   0.95341   0.30736   0.00000  Uiso   1.00
C49    C     0.53848   0.94050   0.32167   0.00000  Uiso   1.00
C50    C     0.53836   0.89773   0.35915   0.00000  Uiso   1.00
C51    C     0.56503   0.83190   0.41814   0.00000  Uiso   1.00
C52    C     0.38767   0.95161   0.21227   0.00000  Uiso   1.00
C53    C     0.37365   0.93721   0.14664   0.00000  Uiso   1.00
C54    C     0.29816   0.89294   0.10408   0.00000  Uiso   1.00
C55    C     0.18581   0.82436   0.01545   0.00000  Uiso   1.00
C56    C     0.45779   0.05447   0.31002   0.00000  Uiso   1.00
C57    C     0.50273   0.12656   0.32657   0.00000  Uiso   1.00
C58    C     0.48626   0.16888   0.36630   0.00000  Uiso   1.00
C59    C     0.48279   0.26001   0.42945   0.00000  Uiso   1.00
C60    C     0.35666   0.94560   0.30828   0.00000  Uiso   1.00
C61    C     0.41791   0.92461   0.32969   0.00000  Uiso   1.00
C62    C     0.41770   0.88185   0.36716   0.00000  Uiso   1.00
C63    C     0.47896   0.86889   0.38153   0.00000  Uiso   1.00
C64    C     0.32837   0.92282   0.23460   0.00000  Uiso   1.00
C65    C     0.25288   0.87856   0.19213   0.00000  Uiso   1.00
C66    C     0.23875   0.86409   0.12645   0.00000  Uiso   1.00
C67    C     0.39850   0.02568   0.33236   0.00000  Uiso   1.00
C68    C     0.38195   0.06790   0.37207   0.00000  Uiso   1.00
C69    C     0.42686   0.14004   0.38867   0.00000  Uiso   1.00
H70    H     0.51198   0.02102   0.24977   0.00000  Uiso   1.00
H71    H     0.58435   0.96279   0.30437   0.00000  Uiso   1.00
H72    H     0.41955   0.95951   0.12937   0.00000  Uiso   1.00
H73    H     0.54861   0.14882   0.30928   0.00000  Uiso   1.00
H74    H     0.63841   0.88551   0.37474   0.00000  Uiso   1.00
H75    H     0.29092   0.87861   0.00574   0.00000  Uiso   1.00
H76    H     0.56307   0.27781   0.38511   0.00000  Uiso   1.00
H77    H     0.31050   0.92318   0.32567   0.00000  Uiso   1.00
H78    H     0.37181   0.85958   0.38444   0.00000  Uiso   1.00
H79    H     0.20701   0.85629   0.20943   0.00000  Uiso   1.00
H80    H     0.33606   0.04560   0.38934   0.00000  Uiso   1.00
H81    H     0.46590   0.80174   0.43972   0.00000  Uiso   1.00
H82    H     0.11841   0.79483   0.07072   0.00000  Uiso   1.00
H83    H     0.39056   0.19403   0.45009   0.00000  Uiso   1.00
O84    O     0.59611   0.80353   0.44450   0.00000  Uiso   1.00
O85    O     0.14022   0.79448   0.96039   0.00000  Uiso   1.00
O86    O     0.49727   0.31822   0.45812   0.00000  Uiso   1.00
N87    N     0.58941   0.87454   0.38198   0.00000  Uiso   1.00
N88    N     0.26453   0.86807   0.03699   0.00000  Uiso   1.00
N89    N     0.51894   0.24129   0.39165   0.00000  Uiso   1.00
N90    N     0.49658   0.82946   0.41694   0.00000  Uiso   1.00
N91    N     0.17170   0.82299   0.07195   0.00000  Uiso   1.00
N92    N     0.42612   0.19621   0.42661   0.00000  Uiso   1.00
C93    C     0.87003   0.31336   0.80326   0.00000  Uiso   1.00
C94    C     0.85843   0.25681   0.74559   0.00000  Uiso   1.00
C95    C     0.89048   0.21320   0.74841   0.00000  Uiso   1.00
C96    C     0.87288   0.16487   0.69023   0.00000  Uiso   1.00
C97    C     0.86218   0.07778   0.60962   0.00000  Uiso   1.00
C98    C     0.90114   0.38166   0.78828   0.00000  Uiso   1.00
C99    C     0.96911   0.44302   0.82700   0.00000  Uiso   1.00
C100   C     0.98746   0.49979   0.80476   0.00000  Uiso   1.00
C101   C     0.04306   0.60655   0.79046   0.00000  Uiso   1.00
C102   C     0.79005   0.29593   0.80168   0.00000  Uiso   1.00
C103   C     0.76461   0.28522   0.85168   0.00000  Uiso   1.00
C104   C     0.68945   0.26983   0.84072   0.00000  Uiso   1.00
C105   C     0.57256   0.24347   0.84722   0.00000  Uiso   1.00
C106   C     0.78178   0.30508   0.69492   0.00000  Uiso   1.00
C107   C     0.81049   0.25232   0.68674   0.00000  Uiso   1.00
C108   C     0.79284   0.20404   0.62854   0.00000  Uiso   1.00
C109   C     0.82486   0.16036   0.63128   0.00000  Uiso   1.00
C110   C     0.85321   0.37717   0.72943   0.00000  Uiso   1.00
C111   C     0.87147   0.43387   0.70713   0.00000  Uiso   1.00
C112   C     0.93945   0.49529   0.74581   0.00000  Uiso   1.00
C113   C     0.74212   0.29144   0.74283   0.00000  Uiso   1.00
C114   C     0.66698   0.27606   0.73180   0.00000  Uiso   1.00
C115   C     0.64143   0.26533   0.78177   0.00000  Uiso   1.00
H116   H     0.90735   0.31686   0.84908   0.00000  Uiso   1.00
H117   H     0.92758   0.21670   0.79396   0.00000  Uiso   1.00
H118   H     0.00619   0.44649   0.87254   0.00000  Uiso   1.00
H119   H     0.80172   0.28871   0.89721   0.00000  Uiso   1.00
H120   H     0.92888   0.10368   0.70690   0.00000  Uiso   1.00
H121   H     0.09462   0.58821   0.87260   0.00000  Uiso   1.00
H122   H     0.66348   0.25551   0.92462   0.00000  Uiso   1.00
H123   H     0.74446   0.30159   0.64910   0.00000  Uiso   1.00
H124   H     0.75575   0.20058   0.58301   0.00000  Uiso   1.00
H125   H     0.83436   0.43037   0.66159   0.00000  Uiso   1.00
H126   H     0.62990   0.27259   0.68626   0.00000  Uiso   1.00
H127   H     0.78942   0.09060   0.53568   0.00000  Uiso   1.00
H128   H     0.95517   0.57514   0.70139   0.00000  Uiso   1.00
H129   H     0.52402   0.24243   0.75340   0.00000  Uiso   1.00
O130   O     0.86953   0.03099   0.58142   0.00000  Uiso   1.00
O131   O     0.08697   0.66668   0.79882   0.00000  Uiso   1.00
O132   O     0.52132   0.23017   0.86706   0.00000  Uiso   1.00
N133   N     0.89450   0.11446   0.67567   0.00000  Uiso   1.00
N134   N     0.04946   0.56746   0.83059   0.00000  Uiso   1.00
N135   N     0.64639   0.25643   0.87923   0.00000  Uiso   1.00
N136   N     0.81945   0.10742   0.58354   0.00000  Uiso   1.00
N137   N     0.97442   0.56042   0.73846   0.00000  Uiso   1.00
N138   N     0.57134   0.24939   0.78710   0.00000  Uiso   1.00
C139   C     0.69379   0.72367   0.68542   0.00000  Uiso   1.00
C140   C     0.76435   0.72688   0.73132   0.00000  Uiso   1.00
C141   C     0.76912   0.67005   0.74449   0.00000  Uiso   1.00
C142   C     0.83875   0.68390   0.78789   0.00000  Uiso   1.00
C143   C     0.93880   0.67849   0.85469   0.00000  Uiso   1.00
C144   C     0.71917   0.75612   0.63628   0.00000  Uiso   1.00
C145   C     0.68595   0.72388   0.56954   0.00000  Uiso   1.00
C146   C     0.71755   0.76236   0.53293   0.00000  Uiso   1.00
C147   C     0.74743   0.80236   0.45219   0.00000  Uiso   1.00
C148   C     0.67679   0.77414   0.72543   0.00000  Uiso   1.00
C149   C     0.60792   0.75705   0.73363   0.00000  Uiso   1.00
C150   C     0.60383   0.81070   0.77207   0.00000  Uiso   1.00
C151   C     0.56790   0.87868   0.82974   0.00000  Uiso   1.00
C152   C     0.80897   0.84933   0.73906   0.00000  Uiso   1.00
C153   C     0.82691   0.79513   0.76045   0.00000  Uiso   1.00
C154   C     0.89655   0.80908   0.80384   0.00000  Uiso   1.00
C155   C     0.90142   0.75228   0.81708   0.00000  Uiso   1.00
C156   C     0.78173   0.82437   0.66541   0.00000  Uiso   1.00
C157   C     0.81339   0.86291   0.62889   0.00000  Uiso   1.00
C158   C     0.78022   0.83073   0.56212   0.00000  Uiso   1.00
C159   C     0.73935   0.84239   0.75456   0.00000  Uiso   1.00
C160   C     0.73536   0.89608   0.79299   0.00000  Uiso   1.00
C161   C     0.66651   0.87908   0.80126   0.00000  Uiso   1.00
H162   H     0.64508   0.67054   0.66274   0.00000  Uiso   1.00
H163   H     0.72069   0.61724   0.72193   0.00000  Uiso   1.00
H164   H     0.63753   0.67106   0.54701   0.00000  Uiso   1.00
H165   H     0.55952   0.70423   0.71108   0.00000  Uiso   1.00
H166   H     0.83211   0.58824   0.80039   0.00000  Uiso   1.00
H167   H     0.65675   0.70175   0.43156   0.00000  Uiso   1.00
H168   H     0.49225   0.77168   0.77753   0.00000  Uiso   1.00
H169   H     0.85768   0.90247   0.76175   0.00000  Uiso   1.00
H170   H     0.94496   0.86190   0.82638   0.00000  Uiso   1.00
H171   H     0.86180   0.91572   0.65146   0.00000  Uiso   1.00
H172   H     0.78379   0.94889   0.81552   0.00000  Uiso   1.00
H173   H     0.01414   0.78681   0.88516   0.00000  Uiso   1.00
H174   H     0.83877   0.90032   0.51633   0.00000  Uiso   1.00
H175   H     0.67427   0.97025   0.86230   0.00000  Uiso   1.00
O176   O     0.97671   0.65665   0.88349   0.00000  Uiso   1.00
O177   O     0.74663   0.80557   0.39960   0.00000  Uiso   1.00
O178   O     0.53081   0.89731   0.85350   0.00000  Uiso   1.00
N179   N     0.86297   0.64054   0.81148   0.00000  Uiso   1.00
N180   N     0.69903   0.74666   0.46665   0.00000  Uiso   1.00
N181   N     0.54522   0.81205   0.79009   0.00000  Uiso   1.00
N182   N     0.96091   0.74740   0.85710   0.00000  Uiso   1.00
N183   N     0.79697   0.85351   0.51226   0.00000  Uiso   1.00
N184   N     0.64317   0.91890   0.83570   0.00000  Uiso   1.00
C185   C     0.95048   0.01289   0.25457   0.00000  Uiso   1.00
C186   C     0.95749   0.98704   0.19063   0.00000  Uiso   1.00
C187   C     0.00850   0.96403   0.18283   0.00000  Uiso   1.00
C188   C     0.00593   0.94249   0.12038   0.00000  Uiso   1.00
C189   C     0.02466   0.90210   0.02912   0.00000  Uiso   1.00
C190   C     0.86709   0.96700   0.24506   0.00000  Uiso   1.00
C191   C     0.84211   0.92716   0.28304   0.00000  Uiso   1.00
C192   C     0.76344   0.88876   0.26641   0.00000  Uiso   1.00
C193   C     0.64183   0.81729   0.25968   0.00000  Uiso   1.00
C194   C     0.96156   0.08644   0.26152   0.00000  Uiso   1.00
C195   C     0.01599   0.14703   0.31334   0.00000  Uiso   1.00
C196   C     0.01685   0.20920   0.31058   0.00000  Uiso   1.00
C197   C     0.04192   0.32319   0.32940   0.00000  Uiso   1.00
C198   C     0.85520   0.01554   0.15753   0.00000  Uiso   1.00
C199   C     0.90573   0.98848   0.13792   0.00000  Uiso   1.00
C200   C     0.90308   0.96697   0.07547   0.00000  Uiso   1.00
C201   C     0.95409   0.94394   0.06758   0.00000  Uiso   1.00
C202   C     0.81534   0.96844   0.19236   0.00000  Uiso   1.00
C203   C     0.73669   0.93009   0.17568   0.00000  Uiso   1.00
C204   C     0.71159   0.89020   0.21361   0.00000  Uiso   1.00
C205   C     0.90981   0.08789   0.20881   0.00000  Uiso   1.00
C206   C     0.91058   0.14997   0.20597   0.00000  Uiso   1.00
C207   C     0.96500   0.21064   0.25778   0.00000  Uiso   1.00
H208   H     0.99077   0.01177   0.29560   0.00000  Uiso   1.00
H209   H     0.04854   0.96292   0.22363   0.00000  Uiso   1.00
H210   H     0.88217   0.92606   0.32382   0.00000  Uiso   1.00
H211   H     0.05603   0.14590   0.35412   0.00000  Uiso   1.00
H212   H     0.08975   0.90938   0.12059   0.00000  Uiso   1.00
H213   H     0.73895   0.83167   0.33186   0.00000  Uiso   1.00
H214   H     0.10557   0.29525   0.39575   0.00000  Uiso   1.00
H215   H     0.81490   0.01666   0.11650   0.00000  Uiso   1.00
H216   H     0.86303   0.96809   0.03469   0.00000  Uiso   1.00
H217   H     0.69666   0.93122   0.13489   0.00000  Uiso   1.00
H218   H     0.87052   0.15106   0.16518   0.00000  Uiso   1.00
H219   H     0.93918   0.91357   0.96724   0.00000  Uiso   1.00
H220   H     0.58838   0.83586   0.17852   0.00000  Uiso   1.00
H221   H     0.95500   0.29944   0.24240   0.00000  Uiso   1.00
O222   O     0.04927   0.87941   0.99333   0.00000  Uiso   1.00
O223   O     0.58905   0.77747   0.27052   0.00000  Uiso   1.00
O224   O     0.07005   0.38567   0.35433   0.00000  Uiso   1.00
N225   N     0.04772   0.91704   0.09573   0.00000  Uiso   1.00
N226   N     0.71974   0.84438   0.29325   0.00000  Uiso   1.00
N227   N     0.06249   0.27778   0.35298   0.00000  Uiso   1.00
N228   N     0.96670   0.91930   0.01321   0.00000  Uiso   1.00
N229   N     0.63872   0.84664   0.21073   0.00000  Uiso   1.00
N230   N     0.98147   0.28004   0.27047   0.00000  Uiso   1.00
C231   C     0.36671   0.37098   0.04481   0.00000  Uiso   1.00
C232   C     0.38030   0.30823   0.03377   0.00000  Uiso   1.00
C233   C     0.41453   0.29239   0.99266   0.00000  Uiso   1.00
C234   C     0.42171   0.23265   0.98934   0.00000  Uiso   1.00
C235   C     0.44683   0.14166   0.96668   0.00000  Uiso   1.00
C236   C     0.40595   0.41060   0.11749   0.00000  Uiso   1.00
C237   C     0.46173   0.48084   0.14677   0.00000  Uiso   1.00
C238   C     0.49050   0.50727   0.21393   0.00000  Uiso   1.00
C239   C     0.55539   0.57523   0.32123   0.00000  Uiso   1.00
C240   C     0.28091   0.34070   0.02922   0.00000  Uiso   1.00
C241   C     0.23156   0.35219   0.98430   0.00000  Uiso   1.00
C242   C     0.15505   0.31978   0.97716   0.00000  Uiso   1.00
C243   C     0.02580   0.27922   0.94742   0.00000  Uiso   1.00
C244   C     0.31859   0.29302   0.11201   0.00000  Uiso   1.00
C245   C     0.35417   0.26588   0.07027   0.00000  Uiso   1.00
C246   C     0.36130   0.20614   0.06702   0.00000  Uiso   1.00
C247   C     0.39553   0.19022   0.02591   0.00000  Uiso   1.00
C248   C     0.37982   0.36826   0.15399   0.00000  Uiso   1.00
C249   C     0.40850   0.39459   0.22112   0.00000  Uiso   1.00
C250   C     0.46432   0.46485   0.25050   0.00000  Uiso   1.00
C251   C     0.25477   0.29835   0.06573   0.00000  Uiso   1.00
C252   C     0.17833   0.26593   0.05866   0.00000  Uiso   1.00
C253   C     0.12887   0.27736   0.01373   0.00000  Uiso   1.00
H254   H     0.38705   0.40395   0.01639   0.00000  Uiso   1.00
H255   H     0.43475   0.32518   0.96442   0.00000  Uiso   1.00
H256   H     0.48194   0.51359   0.11851   0.00000  Uiso   1.00
H257   H     0.25180   0.38496   0.95606   0.00000  Uiso   1.00
H258   H     0.47613   0.21919   0.92292   0.00000  Uiso   1.00
H259   H     0.57561   0.61648   0.24781   0.00000  Uiso   1.00
H260   H     0.09032   0.34522   0.90528   0.00000  Uiso   1.00
H261   H     0.29825   0.26006   0.14043   0.00000  Uiso   1.00
H262   H     0.34107   0.17339   0.09527   0.00000  Uiso   1.00
H263   H     0.38826   0.36181   0.24935   0.00000  Uiso   1.00
H264   H     0.15813   0.23317   0.08691   0.00000  Uiso   1.00
H265   H     0.40010   0.09599   0.02913   0.00000  Uiso   1.00
H266   H     0.49958   0.49329   0.35402   0.00000  Uiso   1.00
H267   H     0.01429   0.22203   0.01148   0.00000  Uiso   1.00
O268   O     0.46791   0.10318   0.94410   0.00000  Uiso   1.00
O269   O     0.59842   0.62442   0.37033   0.00000  Uiso   1.00
O270   O     0.96173   0.26854   0.92093   0.00000  Uiso   1.00
N271   N     0.45235   0.20208   0.95411   0.00000  Uiso   1.00
N272   N     0.54536   0.57352   0.25786   0.00000  Uiso   1.00
N273   N     0.09166   0.31994   0.93763   0.00000  Uiso   1.00
N274   N     0.41143   0.13579   0.01125   0.00000  Uiso   1.00
N275   N     0.50445   0.50723   0.31501   0.00000  Uiso   1.00
N276   N     0.05075   0.25364   0.99478   0.00000  Uiso   1.00
C277   C     0.83024   0.20622   0.37826   0.00000  Uiso   1.00
C278   C     0.77322   0.20184   0.41065   0.00000  Uiso   1.00
C279   C     0.77225   0.25860   0.44733   0.00000  Uiso   1.00
C280   C     0.71543   0.24358   0.47282   0.00000  Uiso   1.00
C281   C     0.63506   0.24733   0.52474   0.00000  Uiso   1.00
C282   C     0.78236   0.16451   0.30659   0.00000  Uiso   1.00
C283   C     0.78910   0.18988   0.25577   0.00000  Uiso   1.00
C284   C     0.73998   0.14343   0.19367   0.00000  Uiso   1.00
C285   C     0.67386   0.08921   0.08403   0.00000  Uiso   1.00
C286   C     0.86716   0.16487   0.40386   0.00000  Uiso   1.00
C287   C     0.94518   0.19053   0.43481   0.00000  Uiso   1.00
C288   C     0.96746   0.14438   0.45459   0.00000  Uiso   1.00
C289   C     0.03299   0.09071   0.49598   0.00000  Uiso   1.00
C290   C     0.73106   0.07864   0.35832   0.00000  Uiso   1.00
C291   C     0.71934   0.13254   0.39982   0.00000  Uiso   1.00
C292   C     0.66251   0.11744   0.42527   0.00000  Uiso   1.00
C293   C     0.66146   0.17416   0.46197   0.00000  Uiso   1.00
C294   C     0.72850   0.09522   0.29576   0.00000  Uiso   1.00
C295   C     0.67937   0.04872   0.23372   0.00000  Uiso   1.00
C296   C     0.68602   0.07401   0.18282   0.00000  Uiso   1.00
C297   C     0.81329   0.09557   0.39303   0.00000  Uiso   1.00
C298   C     0.83545   0.04937   0.41276   0.00000  Uiso   1.00
C299   C     0.91349   0.07496   0.44374   0.00000  Uiso   1.00
H300   H     0.87218   0.26017   0.38668   0.00000  Uiso   1.00
H301   H     0.81394   0.31222   0.45569   0.00000  Uiso   1.00
H302   H     0.83080   0.24350   0.26417   0.00000  Uiso   1.00
H303   H     0.98685   0.24416   0.44318   0.00000  Uiso   1.00
H304   H     0.72560   0.33936   0.52740   0.00000  Uiso   1.00
H305   H     0.76116   0.19447   0.12356   0.00000  Uiso   1.00
H306   H     0.09024   0.19585   0.50105   0.00000  Uiso   1.00
H307   H     0.68911   0.02468   0.34989   0.00000  Uiso   1.00
H308   H     0.62083   0.06381   0.41688   0.00000  Uiso   1.00
H309   H     0.63769   0.99510   0.22536   0.00000  Uiso   1.00
H310   H     0.79375   0.99575   0.40437   0.00000  Uiso   1.00
H311   H     0.56887   0.13775   0.49590   0.00000  Uiso   1.00
H312   H     0.60443   0.99286   0.09206   0.00000  Uiso   1.00
H313   H     0.93351   0.99423   0.46955   0.00000  Uiso   1.00
O314   O     0.60560   0.26854   0.55636   0.00000  Uiso   1.00
O315   O     0.65227   0.07845   0.02654   0.00000  Uiso   1.00
O316   O     0.08401   0.08025   0.52180   0.00000  Uiso   1.00
N317   N     0.69810   0.28654   0.51080   0.00000  Uiso   1.00
N318   N     0.73133   0.15108   0.13324   0.00000  Uiso   1.00
N319   N     0.03900   0.15236   0.48614   0.00000  Uiso   1.00
N320   N     0.61376   0.17805   0.49385   0.00000  Uiso   1.00
N321   N     0.64699   0.04260   0.11629   0.00000  Uiso   1.00
N322   N     0.95466   0.04387   0.46920   0.00000  Uiso   1.00
C323   C     0.53417   0.00139   0.73284   0.00000  Uiso   1.00
C324   C     0.52279   0.04659   0.69264   0.00000  Uiso   1.00
C325   C     0.46152   0.05950   0.67833   0.00000  Uiso   1.00
C326   C     0.46164   0.10227   0.64085   0.00000  Uiso   1.00
C327   C     0.43497   0.16810   0.58186   0.00000  Uiso   1.00
C328   C     0.61233   0.04839   0.78773   0.00000  Uiso   1.00
C329   C     0.62635   0.06279   0.85336   0.00000  Uiso   1.00
C330   C     0.70184   0.10706   0.89592   0.00000  Uiso   1.00
C331   C     0.81419   0.17564   0.98455   0.00000  Uiso   1.00
C332   C     0.54221   0.94553   0.68998   0.00000  Uiso   1.00
C333   C     0.49727   0.87344   0.67343   0.00000  Uiso   1.00
C334   C     0.51374   0.83112   0.63370   0.00000  Uiso   1.00
C335   C     0.51721   0.73999   0.57055   0.00000  Uiso   1.00
C336   C     0.64334   0.05440   0.69172   0.00000  Uiso   1.00
C337   C     0.58209   0.07539   0.67031   0.00000  Uiso   1.00
C338   C     0.58230   0.11815   0.63284   0.00000  Uiso   1.00
C339   C     0.52104   0.13111   0.61847   0.00000  Uiso   1.00
C340   C     0.67163   0.07718   0.76540   0.00000  Uiso   1.00
C341   C     0.74712   0.12144   0.80787   0.00000  Uiso   1.00
C342   C     0.76125   0.13591   0.87355   0.00000  Uiso   1.00
C343   C     0.60150   0.97432   0.66764   0.00000  Uiso   1.00
C344   C     0.61805   0.93210   0.62793   0.00000  Uiso   1.00
C345   C     0.57314   0.85996   0.61133   0.00000  Uiso   1.00
H346   H     0.48802   0.97898   0.75023   0.00000  Uiso   1.00
H347   H     0.41565   0.03721   0.69563   0.00000  Uiso   1.00
H348   H     0.58045   0.04049   0.87063   0.00000  Uiso   1.00
H349   H     0.45139   0.85118   0.69072   0.00000  Uiso   1.00
H350   H     0.36159   0.11449   0.62526   0.00000  Uiso   1.00
H351   H     0.70908   0.12139   0.99426   0.00000  Uiso   1.00
H352   H     0.43693   0.72219   0.61489   0.00000  Uiso   1.00
H353   H     0.68950   0.07682   0.67433   0.00000  Uiso   1.00
H354   H     0.62819   0.14042   0.61556   0.00000  Uiso   1.00
H355   H     0.79299   0.14371   0.79057   0.00000  Uiso   1.00
H356   H     0.66394   0.95440   0.61066   0.00000  Uiso   1.00
H357   H     0.53410   0.19826   0.56028   0.00000  Uiso   1.00
H358   H     0.88159   0.20517   0.92928   0.00000  Uiso   1.00
H359   H     0.60944   0.80597   0.54991   0.00000  Uiso   1.00
O360   O     0.40389   0.19647   0.55550   0.00000  Uiso   1.00
O361   O     0.85978   0.20552   0.03961   0.00000  Uiso   1.00
O362   O     0.50273   0.68178   0.54188   0.00000  Uiso   1.00
N363   N     0.41059   0.12546   0.61802   0.00000  Uiso   1.00
N364   N     0.73547   0.13193   0.96301   0.00000  Uiso   1.00
N365   N     0.48106   0.75871   0.60835   0.00000  Uiso   1.00
N366   N     0.50342   0.17054   0.58306   0.00000  Uiso   1.00
N367   N     0.82830   0.17701   0.92805   0.00000  Uiso   1.00
N368   N     0.57388   0.80379   0.57339   0.00000  Uiso   1.00
C369   C     0.12997   0.68664   0.19674   0.00000  Uiso   1.00
C370   C     0.14157   0.74319   0.25441   0.00000  Uiso   1.00
C371   C     0.10952   0.78680   0.25159   0.00000  Uiso   1.00
C372   C     0.12712   0.83513   0.30977   0.00000  Uiso   1.00
C373   C     0.13782   0.92222   0.39038   0.00000  Uiso   1.00
C374   C     0.09886   0.61834   0.21172   0.00000  Uiso   1.00
C375   C     0.03089   0.55698   0.17300   0.00000  Uiso   1.00
C376   C     0.01254   0.50021   0.19524   0.00000  Uiso   1.00
C377   C     0.95694   0.39345   0.20954   0.00000  Uiso   1.00
C378   C     0.20995   0.70407   0.19832   0.00000  Uiso   1.00
C379   C     0.23539   0.71478   0.14832   0.00000  Uiso   1.00
C380   C     0.31055   0.73017   0.15928   0.00000  Uiso   1.00
C381   C     0.42744   0.75653   0.15278   0.00000  Uiso   1.00
C382   C     0.21822   0.69492   0.30508   0.00000  Uiso   1.00
C383   C     0.18951   0.74768   0.31326   0.00000  Uiso   1.00
C384   C     0.20716   0.79596   0.37146   0.00000  Uiso   1.00
C385   C     0.17514   0.83964   0.36872   0.00000  Uiso   1.00
C386   C     0.14679   0.62283   0.27057   0.00000  Uiso   1.00
C387   C     0.12853   0.56613   0.29287   0.00000  Uiso   1.00
C388   C     0.06055   0.50471   0.25419   0.00000  Uiso   1.00
C389   C     0.25788   0.70856   0.25717   0.00000  Uiso   1.00
C390   C     0.33302   0.72394   0.26820   0.00000  Uiso   1.00
C391   C     0.35857   0.73467   0.21823   0.00000  Uiso   1.00
H392   H     0.09265   0.68314   0.15092   0.00000  Uiso   1.00
H393   H     0.07242   0.78330   0.20604   0.00000  Uiso   1.00
H394   H     0.99381   0.55351   0.12746   0.00000  Uiso   1.00
H395   H     0.19828   0.71129   0.10279   0.00000  Uiso   1.00
H396   H     0.07112   0.89632   0.29310   0.00000  Uiso   1.00
H397   H     0.90538   0.41179   0.12740   0.00000  Uiso   1.00
H398   H     0.33652   0.74449   0.07538   0.00000  Uiso   1.00
H399   H     0.25554   0.69841   0.35090   0.00000  Uiso   1.00
H400   H     0.24425   0.79942   0.41699   0.00000  Uiso   1.00
H401   H     0.16564   0.56963   0.33841   0.00000  Uiso   1.00
H402   H     0.37010   0.72741   0.31374   0.00000  Uiso   1.00
H403   H     0.21058   0.90940   0.46432   0.00000  Uiso   1.00
H404   H     0.04483   0.42486   0.29861   0.00000  Uiso   1.00
H405   H     0.47598   0.75757   0.24660   0.00000  Uiso   1.00
O406   O     0.13047   0.96901   0.41858   0.00000  Uiso   1.00
O407   O     0.91303   0.33332   0.20118   0.00000  Uiso   1.00
O408   O     0.47868   0.76983   0.13294   0.00000  Uiso   1.00
N409   N     0.10550   0.88554   0.32433   0.00000  Uiso   1.00
N410   N     0.95054   0.43254   0.16941   0.00000  Uiso   1.00
N411   N     0.35361   0.74357   0.12077   0.00000  Uiso   1.00
N412   N     0.18055   0.89258   0.41646   0.00000  Uiso   1.00
N413   N     0.02558   0.43958   0.26154   0.00000  Uiso   1.00
N414   N     0.42866   0.75061   0.21290   0.00000  Uiso   1.00
C415   C     0.30621   0.27633   0.31458   0.00000  Uiso   1.00
C416   C     0.23565   0.27312   0.26868   0.00000  Uiso   1.00
C417   C     0.23088   0.32995   0.25551   0.00000  Uiso   1.00
C418   C     0.16125   0.31610   0.21211   0.00000  Uiso   1.00
C419   C     0.06120   0.32151   0.14531   0.00000  Uiso   1.00
C420   C     0.28083   0.24388   0.36372   0.00000  Uiso   1.00
C421   C     0.31405   0.27612   0.43046   0.00000  Uiso   1.00
C422   C     0.28245   0.23764   0.46707   0.00000  Uiso   1.00
C423   C     0.25257   0.19764   0.54781   0.00000  Uiso   1.00
C424   C     0.32321   0.22586   0.27457   0.00000  Uiso   1.00
C425   C     0.39208   0.24295   0.26637   0.00000  Uiso   1.00
C426   C     0.39617   0.18930   0.22793   0.00000  Uiso   1.00
C427   C     0.43210   0.12132   0.17026   0.00000  Uiso   1.00
C428   C     0.19103   0.15067   0.26094   0.00000  Uiso   1.00
C429   C     0.17309   0.20487   0.23955   0.00000  Uiso   1.00
C430   C     0.10345   0.19092   0.19616   0.00000  Uiso   1.00
C431   C     0.09858   0.24772   0.18292   0.00000  Uiso   1.00
C432   C     0.21827   0.17563   0.33459   0.00000  Uiso   1.00
C433   C     0.18661   0.13709   0.37111   0.00000  Uiso   1.00
C434   C     0.21978   0.16927   0.43788   0.00000  Uiso   1.00
C435   C     0.26065   0.15761   0.24544   0.00000  Uiso   1.00
C436   C     0.26464   0.10392   0.20701   0.00000  Uiso   1.00
C437   C     0.33349   0.12092   0.19874   0.00000  Uiso   1.00
H438   H     0.35492   0.32946   0.33726   0.00000  Uiso   1.00
H439   H     0.27931   0.38276   0.27807   0.00000  Uiso   1.00
H440   H     0.36247   0.32894   0.45299   0.00000  Uiso   1.00
H441   H     0.44048   0.29577   0.28892   0.00000  Uiso   1.00
H442   H     0.16789   0.41176   0.19961   0.00000  Uiso   1.00
H443   H     0.34325   0.29825   0.56844   0.00000  Uiso   1.00
H444   H     0.50775   0.22832   0.22247   0.00000  Uiso   1.00
H445   H     0.14232   0.09753   0.23825   0.00000  Uiso   1.00
H446   H     0.05504   0.13810   0.17362   0.00000  Uiso   1.00
H447   H     0.13820   0.08428   0.34854   0.00000  Uiso   1.00
H448   H     0.21621   0.05111   0.18448   0.00000  Uiso   1.00
H449   H     0.98586   0.21319   0.11484   0.00000  Uiso   1.00
H450   H     0.16123   0.09968   0.48367   0.00000  Uiso   1.00
H451   H     0.32573   0.02975   0.13770   0.00000  Uiso   1.00
O452   O     0.02329   0.34335   0.11651   0.00000  Uiso   1.00
O453   O     0.25337   0.19443   0.60040   0.00000  Uiso   1.00
O454   O     0.46919   0.10269   0.14650   0.00000  Uiso   1.00
N455   N     0.13703   0.35946   0.18852   0.00000  Uiso   1.00
N456   N     0.30097   0.25334   0.53335   0.00000  Uiso   1.00
N457   N     0.45478   0.18795   0.20991   0.00000  Uiso   1.00
N458   N     0.03909   0.25260   0.14290   0.00000  Uiso   1.00
N459   N     0.20303   0.14649   0.48774   0.00000  Uiso   1.00
N460   N     0.35683   0.08110   0.16430   0.00000  Uiso   1.00
C461   C     0.04952   0.98711   0.74543   0.00000  Uiso   1.00
C462   C     0.04251   0.01296   0.80937   0.00000  Uiso   1.00
C463   C     0.99150   0.03597   0.81717   0.00000  Uiso   1.00
C464   C     0.99407   0.05751   0.87962   0.00000  Uiso   1.00
C465   C     0.97534   0.09790   0.97088   0.00000  Uiso   1.00
C466   C     0.13291   0.03300   0.75494   0.00000  Uiso   1.00
C467   C     0.15789   0.07284   0.71696   0.00000  Uiso   1.00
C468   C     0.23656   0.11124   0.73359   0.00000  Uiso   1.00
C469   C     0.35817   0.18271   0.74032   0.00000  Uiso   1.00
C470   C     0.03844   0.91356   0.73848   0.00000  Uiso   1.00
C471   C     0.98401   0.85297   0.68666   0.00000  Uiso   1.00
C472   C     0.98315   0.79080   0.68942   0.00000  Uiso   1.00
C473   C     0.95808   0.67681   0.67060   0.00000  Uiso   1.00
C474   C     0.14480   0.98446   0.84247   0.00000  Uiso   1.00
C475   C     0.09427   0.01152   0.86208   0.00000  Uiso   1.00
C476   C     0.09692   0.03303   0.92453   0.00000  Uiso   1.00
C477   C     0.04591   0.05606   0.93242   0.00000  Uiso   1.00
C478   C     0.18466   0.03156   0.80764   0.00000  Uiso   1.00
C479   C     0.26331   0.06991   0.82432   0.00000  Uiso   1.00
C480   C     0.28841   0.10980   0.78639   0.00000  Uiso   1.00
C481   C     0.09019   0.91211   0.79119   0.00000  Uiso   1.00
C482   C     0.08942   0.85003   0.79403   0.00000  Uiso   1.00
C483   C     0.03500   0.78936   0.74222   0.00000  Uiso   1.00
H484   H     0.00923   0.98823   0.70440   0.00000  Uiso   1.00
H485   H     0.95146   0.03708   0.77637   0.00000  Uiso   1.00
H486   H     0.11783   0.07394   0.67618   0.00000  Uiso   1.00
H487   H     0.94397   0.85410   0.64588   0.00000  Uiso   1.00
H488   H     0.91025   0.09062   0.87941   0.00000  Uiso   1.00
H489   H     0.26105   0.16833   0.66814   0.00000  Uiso   1.00
H490   H     0.89443   0.70475   0.60425   0.00000  Uiso   1.00
H491   H     0.18510   0.98334   0.88350   0.00000  Uiso   1.00
H492   H     0.13697   0.03191   0.96531   0.00000  Uiso   1.00
H493   H     0.30334   0.06878   0.86511   0.00000  Uiso   1.00
H494   H     0.12948   0.84894   0.83482   0.00000  Uiso   1.00
H495   H     0.06082   0.08643   0.03276   0.00000  Uiso   1.00
H496   H     0.41162   0.16414   0.82148   0.00000  Uiso   1.00
H497   H     0.04500   0.70056   0.75760   0.00000  Uiso   1.00
O498   O     0.95073   0.12059   0.00667   0.00000  Uiso   1.00
O499   O     0.41095   0.22253   0.72948   0.00000  Uiso   1.00
O500   O     0.92995   0.61433   0.64567   0.00000  Uiso   1.00
N501   N     0.95228   0.08296   0.90427   0.00000  Uiso   1.00
N502   N     0.28026   0.15562   0.70675   0.00000  Uiso   1.00
N503   N     0.93751   0.72222   0.64702   0.00000  Uiso   1.00
N504   N     0.03330   0.08070   0.98679   0.00000  Uiso   1.00
N505   N     0.36128   0.15336   0.78927   0.00000  Uiso   1.00
N506   N     0.01853   0.71996   0.72953   0.00000  Uiso   1.00
C507   C     0.63329   0.62902   0.95519   0.00000  Uiso   1.00
C508   C     0.61970   0.69177   0.96623   0.00000  Uiso   1.00
C509   C     0.58547   0.70761   0.00734   0.00000  Uiso   1.00
C510   C     0.57829   0.76735   0.01066   0.00000  Uiso   1.00
C511   C     0.55317   0.85834   0.03332   0.00000  Uiso   1.00
C512   C     0.59405   0.58940   0.88251   0.00000  Uiso   1.00
C513   C     0.53827   0.51916   0.85323   0.00000  Uiso   1.00
C514   C     0.50950   0.49273   0.78607   0.00000  Uiso   1.00
C515   C     0.44461   0.42477   0.67877   0.00000  Uiso   1.00
C516   C     0.71909   0.65930   0.97078   0.00000  Uiso   1.00
C517   C     0.76844   0.64781   0.01570   0.00000  Uiso   1.00
C518   C     0.84495   0.68022   0.02284   0.00000  Uiso   1.00
C519   C     0.97420   0.72078   0.05258   0.00000  Uiso   1.00
C520   C     0.68141   0.70698   0.88799   0.00000  Uiso   1.00
C521   C     0.64583   0.73412   0.92973   0.00000  Uiso   1.00
C522   C     0.63870   0.79386   0.93298   0.00000  Uiso   1.00
C523   C     0.60447   0.80978   0.97409   0.00000  Uiso   1.00
C524   C     0.62018   0.63174   0.84601   0.00000  Uiso   1.00
C525   C     0.59150   0.60541   0.77888   0.00000  Uiso   1.00
C526   C     0.53568   0.53515   0.74950   0.00000  Uiso   1.00
C527   C     0.74523   0.70165   0.93427   0.00000  Uiso   1.00
C528   C     0.82167   0.73407   0.94134   0.00000  Uiso   1.00
C529   C     0.87113   0.72264   0.98627   0.00000  Uiso   1.00
H530   H     0.61295   0.59605   0.98361   0.00000  Uiso   1.00
H531   H     0.56525   0.67482   0.03558   0.00000  Uiso   1.00
H532   H     0.51806   0.48641   0.88149   0.00000  Uiso   1.00
H533   H     0.74820   0.61504   0.04394   0.00000  Uiso   1.00
H534   H     0.52387   0.78081   0.07708   0.00000  Uiso   1.00
H535   H     0.42439   0.38352   0.75219   0.00000  Uiso   1.00
H536   H     0.90968   0.65478   0.09472   0.00000  Uiso   1.00
H537   H     0.70175   0.73994   0.85957   0.00000  Uiso   1.00
H538   H     0.65893   0.82661   0.90473   0.00000  Uiso   1.00
H539   H     0.61174   0.63819   0.75065   0.00000  Uiso   1.00
H540   H     0.84187   0.76683   0.91309   0.00000  Uiso   1.00
H541   H     0.59990   0.90401   0.97087   0.00000  Uiso   1.00
H542   H     0.50042   0.50671   0.64598   0.00000  Uiso   1.00
H543   H     0.98571   0.77797   0.98852   0.00000  Uiso   1.00
O544   O     0.53209   0.89682   0.05590   0.00000  Uiso   1.00
O545   O     0.40158   0.37558   0.62967   0.00000  Uiso   1.00
O546   O     0.03827   0.73146   0.07907   0.00000  Uiso   1.00
N547   N     0.54765   0.79792   0.04589   0.00000  Uiso   1.00
N548   N     0.45464   0.42648   0.74214   0.00000  Uiso   1.00
N549   N     0.90834   0.68006   0.06237   0.00000  Uiso   1.00
N550   N     0.58857   0.86421   0.98875   0.00000  Uiso   1.00
N551   N     0.49555   0.49277   0.68499   0.00000  Uiso   1.00
N552   N     0.94925   0.74636   0.00522   0.00000  Uiso   1.00
