data_job_01763
_audit_creation_date              2018-12-19
_audit_creation_method            'Materials Studio'
_symmetry_space_group_name_H-M    'P1'
_symmetry_Int_Tables_number       1
_symmetry_cell_setting            triclinic
loop_
_symmetry_equiv_pos_as_xyz
  x,y,z
_cell_length_a                    19.0750
_cell_length_b                    27.7030
_cell_length_c                    9.6132
_cell_angle_alpha                 90.0000
_cell_angle_beta                  107.2300
_cell_angle_gamma                 90.0000
loop_
_atom_site_label
_atom_site_type_symbol
_atom_site_fract_x
_atom_site_fract_y
_atom_site_fract_z
_atom_site_U_iso_or_equiv
_atom_site_adp_type
_atom_site_occupancy
C1     C     0.29570   0.08227   0.14485   0.00000  Uiso   1.00
C2     C     0.23385   0.06403   0.01543   0.00000  Uiso   1.00
C3     C     0.21662   0.01598   0.98093   0.00000  Uiso   1.00
C4     C     0.15804   0.00676   0.85802   0.00000  Uiso   1.00
C5     C     0.06809   0.97274   0.66999   0.00000  Uiso   1.00
C6     C     0.34323   0.11462   0.08137   0.00000  Uiso   1.00
C7     C     0.41797   0.10910   0.10233   0.00000  Uiso   1.00
C8     C     0.45147   0.14247   0.03494   0.00000  Uiso   1.00
C9     C     0.53134   0.18700   0.94937   0.00000  Uiso   1.00
C10    C     0.25973   0.11550   0.23021   0.00000  Uiso   1.00
C11    C     0.26427   0.11073   0.37633   0.00000  Uiso   1.00
C12    C     0.22748   0.14485   0.43428   0.00000  Uiso   1.00
C13    C     0.17771   0.19074   0.57981   0.00000  Uiso   1.00
C14    C     0.22231   0.15136   0.98794   0.00000  Uiso   1.00
C15    C     0.19399   0.10156   0.93020   0.00000  Uiso   1.00
C16    C     0.13541   0.09242   0.80732   0.00000  Uiso   1.00
C17    C     0.11810   0.04435   0.77264   0.00000  Uiso   1.00
C18    C     0.30337   0.15214   0.99614   0.00000  Uiso   1.00
C19    C     0.33677   0.18553   0.92872   0.00000  Uiso   1.00
C20    C     0.41153   0.18006   0.94956   0.00000  Uiso   1.00
C21    C     0.21986   0.15303   0.14498   0.00000  Uiso   1.00
C22    C     0.18307   0.18716   0.20272   0.00000  Uiso   1.00
C23    C     0.18755   0.18244   0.34890   0.00000  Uiso   1.00
H24    H     0.32674   0.05305   0.21120   0.00000  Uiso   1.00
H25    H     0.24749   0.98694   0.04690   0.00000  Uiso   1.00
H26    H     0.44880   0.08005   0.16830   0.00000  Uiso   1.00
H27    H     0.29513   0.08168   0.44225   0.00000  Uiso   1.00
H28    H     0.14205   0.93020   0.82713   0.00000  Uiso   1.00
H29    H     0.56655   0.12653   0.08314   0.00000  Uiso   1.00
H30    H     0.24249   0.12997   0.66083   0.00000  Uiso   1.00
H31    H     0.19127   0.18058   0.92158   0.00000  Uiso   1.00
H32    H     0.10458   0.12146   0.74138   0.00000  Uiso   1.00
H33    H     0.30590   0.21457   0.86278   0.00000  Uiso   1.00
H34    H     0.15222   0.21620   0.13673   0.00000  Uiso   1.00
H35    H     0.02607   0.03938   0.57916   0.00000  Uiso   1.00
H36    H     0.45057   0.23572   0.83517   0.00000  Uiso   1.00
H37    H     0.12651   0.23915   0.41286   0.00000  Uiso   1.00
O38    O     0.02949   0.94360   0.58980   0.00000  Uiso   1.00
O39    O     0.58642   0.20119   0.92571   0.00000  Uiso   1.00
O40    O     0.16126   0.20569   0.68362   0.00000  Uiso   1.00
N41    N     0.12664   0.96401   0.79352   0.00000  Uiso   1.00
N42    N     0.52352   0.14756   0.03285   0.00000  Uiso   1.00
N43    N     0.22057   0.15078   0.57296   0.00000  Uiso   1.00
N44    N     0.06423   0.02276   0.66008   0.00000  Uiso   1.00
N45    N     0.46111   0.20631   0.89942   0.00000  Uiso   1.00
N46    N     0.15816   0.20953   0.43952   0.00000  Uiso   1.00
C47    C     0.79570   0.58227   0.14485   0.00000  Uiso   1.00
C48    C     0.73385   0.56403   0.01543   0.00000  Uiso   1.00
C49    C     0.71662   0.51598   0.98093   0.00000  Uiso   1.00
C50    C     0.65804   0.50676   0.85802   0.00000  Uiso   1.00
C51    C     0.56809   0.47274   0.66999   0.00000  Uiso   1.00
C52    C     0.84323   0.61462   0.08137   0.00000  Uiso   1.00
C53    C     0.91797   0.60910   0.10233   0.00000  Uiso   1.00
C54    C     0.95147   0.64247   0.03494   0.00000  Uiso   1.00
C55    C     0.03134   0.68700   0.94937   0.00000  Uiso   1.00
C56    C     0.75973   0.61550   0.23021   0.00000  Uiso   1.00
C57    C     0.76427   0.61073   0.37633   0.00000  Uiso   1.00
C58    C     0.72748   0.64485   0.43428   0.00000  Uiso   1.00
C59    C     0.67771   0.69074   0.57981   0.00000  Uiso   1.00
C60    C     0.72231   0.65136   0.98794   0.00000  Uiso   1.00
C61    C     0.69399   0.60156   0.93020   0.00000  Uiso   1.00
C62    C     0.63541   0.59242   0.80732   0.00000  Uiso   1.00
C63    C     0.61810   0.54435   0.77264   0.00000  Uiso   1.00
C64    C     0.80337   0.65214   0.99614   0.00000  Uiso   1.00
C65    C     0.83677   0.68553   0.92872   0.00000  Uiso   1.00
C66    C     0.91153   0.68006   0.94956   0.00000  Uiso   1.00
C67    C     0.71986   0.65303   0.14498   0.00000  Uiso   1.00
C68    C     0.68307   0.68716   0.20272   0.00000  Uiso   1.00
C69    C     0.68755   0.68244   0.34890   0.00000  Uiso   1.00
H70    H     0.82674   0.55305   0.21120   0.00000  Uiso   1.00
H71    H     0.74749   0.48694   0.04690   0.00000  Uiso   1.00
H72    H     0.94880   0.58005   0.16830   0.00000  Uiso   1.00
H73    H     0.79513   0.58168   0.44225   0.00000  Uiso   1.00
H74    H     0.64205   0.43020   0.82713   0.00000  Uiso   1.00
H75    H     0.06655   0.62653   0.08314   0.00000  Uiso   1.00
H76    H     0.74249   0.62997   0.66083   0.00000  Uiso   1.00
H77    H     0.69127   0.68058   0.92158   0.00000  Uiso   1.00
H78    H     0.60458   0.62146   0.74138   0.00000  Uiso   1.00
H79    H     0.80590   0.71457   0.86278   0.00000  Uiso   1.00
H80    H     0.65222   0.71620   0.13673   0.00000  Uiso   1.00
H81    H     0.52607   0.53938   0.57916   0.00000  Uiso   1.00
H82    H     0.95057   0.73572   0.83517   0.00000  Uiso   1.00
H83    H     0.62651   0.73915   0.41286   0.00000  Uiso   1.00
O84    O     0.52949   0.44360   0.58980   0.00000  Uiso   1.00
O85    O     0.08642   0.70119   0.92571   0.00000  Uiso   1.00
O86    O     0.66126   0.70569   0.68362   0.00000  Uiso   1.00
N87    N     0.62664   0.46401   0.79352   0.00000  Uiso   1.00
N88    N     0.02352   0.64756   0.03285   0.00000  Uiso   1.00
N89    N     0.72057   0.65078   0.57296   0.00000  Uiso   1.00
N90    N     0.56423   0.52276   0.66008   0.00000  Uiso   1.00
N91    N     0.96111   0.70631   0.89942   0.00000  Uiso   1.00
N92    N     0.65816   0.70953   0.43952   0.00000  Uiso   1.00
C93    C     0.70430   0.08227   0.35515   0.00000  Uiso   1.00
C94    C     0.76615   0.06403   0.48457   0.00000  Uiso   1.00
C95    C     0.78338   0.01598   0.51907   0.00000  Uiso   1.00
C96    C     0.84196   0.00676   0.64198   0.00000  Uiso   1.00
C97    C     0.93191   0.97274   0.83001   0.00000  Uiso   1.00
C98    C     0.65677   0.11462   0.41863   0.00000  Uiso   1.00
C99    C     0.58203   0.10910   0.39767   0.00000  Uiso   1.00
C100   C     0.54853   0.14247   0.46506   0.00000  Uiso   1.00
C101   C     0.46866   0.18700   0.55063   0.00000  Uiso   1.00
C102   C     0.74027   0.11550   0.26979   0.00000  Uiso   1.00
C103   C     0.73573   0.11073   0.12367   0.00000  Uiso   1.00
C104   C     0.77252   0.14485   0.06572   0.00000  Uiso   1.00
C105   C     0.82229   0.19074   0.92019   0.00000  Uiso   1.00
C106   C     0.77769   0.15136   0.51206   0.00000  Uiso   1.00
C107   C     0.80601   0.10156   0.56980   0.00000  Uiso   1.00
C108   C     0.86459   0.09242   0.69268   0.00000  Uiso   1.00
C109   C     0.88190   0.04435   0.72736   0.00000  Uiso   1.00
C110   C     0.69663   0.15214   0.50386   0.00000  Uiso   1.00
C111   C     0.66323   0.18553   0.57128   0.00000  Uiso   1.00
C112   C     0.58847   0.18006   0.55044   0.00000  Uiso   1.00
C113   C     0.78014   0.15303   0.35502   0.00000  Uiso   1.00
C114   C     0.81693   0.18716   0.29728   0.00000  Uiso   1.00
C115   C     0.81245   0.18244   0.15110   0.00000  Uiso   1.00
H116   H     0.67326   0.05305   0.28880   0.00000  Uiso   1.00
H117   H     0.75251   0.98694   0.45310   0.00000  Uiso   1.00
H118   H     0.55120   0.08005   0.33170   0.00000  Uiso   1.00
H119   H     0.70487   0.08168   0.05775   0.00000  Uiso   1.00
H120   H     0.85795   0.93020   0.67287   0.00000  Uiso   1.00
H121   H     0.43345   0.12653   0.41686   0.00000  Uiso   1.00
H122   H     0.75751   0.12997   0.83917   0.00000  Uiso   1.00
H123   H     0.80873   0.18058   0.57842   0.00000  Uiso   1.00
H124   H     0.89542   0.12146   0.75862   0.00000  Uiso   1.00
H125   H     0.69410   0.21457   0.63722   0.00000  Uiso   1.00
H126   H     0.84778   0.21620   0.36327   0.00000  Uiso   1.00
H127   H     0.97393   0.03938   0.92084   0.00000  Uiso   1.00
H128   H     0.54943   0.23572   0.66483   0.00000  Uiso   1.00
H129   H     0.87349   0.23915   0.08714   0.00000  Uiso   1.00
O130   O     0.97051   0.94360   0.91020   0.00000  Uiso   1.00
O131   O     0.41358   0.20119   0.57429   0.00000  Uiso   1.00
O132   O     0.83874   0.20569   0.81638   0.00000  Uiso   1.00
N133   N     0.87336   0.96401   0.70648   0.00000  Uiso   1.00
N134   N     0.47648   0.14756   0.46715   0.00000  Uiso   1.00
N135   N     0.77943   0.15078   0.92704   0.00000  Uiso   1.00
N136   N     0.93577   0.02276   0.83992   0.00000  Uiso   1.00
N137   N     0.53889   0.20631   0.60058   0.00000  Uiso   1.00
N138   N     0.84184   0.20953   0.06048   0.00000  Uiso   1.00
C139   C     0.20430   0.58227   0.35515   0.00000  Uiso   1.00
C140   C     0.26615   0.56403   0.48457   0.00000  Uiso   1.00
C141   C     0.28338   0.51598   0.51907   0.00000  Uiso   1.00
C142   C     0.34196   0.50676   0.64198   0.00000  Uiso   1.00
C143   C     0.43191   0.47274   0.83001   0.00000  Uiso   1.00
C144   C     0.15677   0.61462   0.41863   0.00000  Uiso   1.00
C145   C     0.08203   0.60910   0.39767   0.00000  Uiso   1.00
C146   C     0.04853   0.64247   0.46506   0.00000  Uiso   1.00
C147   C     0.96866   0.68700   0.55063   0.00000  Uiso   1.00
C148   C     0.24027   0.61550   0.26979   0.00000  Uiso   1.00
C149   C     0.23573   0.61073   0.12367   0.00000  Uiso   1.00
C150   C     0.27252   0.64485   0.06572   0.00000  Uiso   1.00
C151   C     0.32229   0.69074   0.92019   0.00000  Uiso   1.00
C152   C     0.27769   0.65136   0.51206   0.00000  Uiso   1.00
C153   C     0.30601   0.60156   0.56980   0.00000  Uiso   1.00
C154   C     0.36459   0.59242   0.69268   0.00000  Uiso   1.00
C155   C     0.38190   0.54435   0.72736   0.00000  Uiso   1.00
C156   C     0.19663   0.65214   0.50386   0.00000  Uiso   1.00
C157   C     0.16323   0.68553   0.57128   0.00000  Uiso   1.00
C158   C     0.08847   0.68006   0.55044   0.00000  Uiso   1.00
C159   C     0.28014   0.65303   0.35502   0.00000  Uiso   1.00
C160   C     0.31693   0.68716   0.29728   0.00000  Uiso   1.00
C161   C     0.31245   0.68244   0.15110   0.00000  Uiso   1.00
H162   H     0.17326   0.55305   0.28880   0.00000  Uiso   1.00
H163   H     0.25251   0.48694   0.45310   0.00000  Uiso   1.00
H164   H     0.05120   0.58005   0.33170   0.00000  Uiso   1.00
H165   H     0.20487   0.58168   0.05775   0.00000  Uiso   1.00
H166   H     0.35795   0.43020   0.67287   0.00000  Uiso   1.00
H167   H     0.93345   0.62653   0.41686   0.00000  Uiso   1.00
H168   H     0.25751   0.62997   0.83917   0.00000  Uiso   1.00
H169   H     0.30873   0.68058   0.57842   0.00000  Uiso   1.00
H170   H     0.39542   0.62146   0.75862   0.00000  Uiso   1.00
H171   H     0.19410   0.71457   0.63722   0.00000  Uiso   1.00
H172   H     0.34778   0.71620   0.36327   0.00000  Uiso   1.00
H173   H     0.47393   0.53938   0.92084   0.00000  Uiso   1.00
H174   H     0.04943   0.73572   0.66483   0.00000  Uiso   1.00
H175   H     0.37349   0.73915   0.08714   0.00000  Uiso   1.00
O176   O     0.47051   0.44360   0.91020   0.00000  Uiso   1.00
O177   O     0.91358   0.70119   0.57429   0.00000  Uiso   1.00
O178   O     0.33874   0.70569   0.81638   0.00000  Uiso   1.00
N179   N     0.37336   0.46401   0.70648   0.00000  Uiso   1.00
N180   N     0.97648   0.64756   0.46715   0.00000  Uiso   1.00
N181   N     0.27943   0.65078   0.92704   0.00000  Uiso   1.00
N182   N     0.43577   0.52276   0.83992   0.00000  Uiso   1.00
N183   N     0.03889   0.70631   0.60058   0.00000  Uiso   1.00
N184   N     0.34184   0.70953   0.06048   0.00000  Uiso   1.00
C185   C     0.70430   0.91773   0.85515   0.00000  Uiso   1.00
C186   C     0.76615   0.93597   0.98457   0.00000  Uiso   1.00
C187   C     0.78338   0.98402   0.01907   0.00000  Uiso   1.00
C188   C     0.84196   0.99324   0.14198   0.00000  Uiso   1.00
C189   C     0.93191   0.02726   0.33001   0.00000  Uiso   1.00
C190   C     0.65677   0.88538   0.91863   0.00000  Uiso   1.00
C191   C     0.58203   0.89090   0.89767   0.00000  Uiso   1.00
C192   C     0.54853   0.85753   0.96506   0.00000  Uiso   1.00
C193   C     0.46866   0.81300   0.05063   0.00000  Uiso   1.00
C194   C     0.74027   0.88450   0.76979   0.00000  Uiso   1.00
C195   C     0.73573   0.88927   0.62367   0.00000  Uiso   1.00
C196   C     0.77252   0.85515   0.56572   0.00000  Uiso   1.00
C197   C     0.82229   0.80926   0.42019   0.00000  Uiso   1.00
C198   C     0.77769   0.84864   0.01206   0.00000  Uiso   1.00
C199   C     0.80601   0.89844   0.06980   0.00000  Uiso   1.00
C200   C     0.86459   0.90758   0.19268   0.00000  Uiso   1.00
C201   C     0.88190   0.95565   0.22736   0.00000  Uiso   1.00
C202   C     0.69663   0.84786   0.00386   0.00000  Uiso   1.00
C203   C     0.66323   0.81447   0.07128   0.00000  Uiso   1.00
C204   C     0.58847   0.81994   0.05044   0.00000  Uiso   1.00
C205   C     0.78014   0.84697   0.85502   0.00000  Uiso   1.00
C206   C     0.81693   0.81284   0.79728   0.00000  Uiso   1.00
C207   C     0.81245   0.81756   0.65110   0.00000  Uiso   1.00
H208   H     0.67326   0.94695   0.78880   0.00000  Uiso   1.00
H209   H     0.75251   0.01306   0.95310   0.00000  Uiso   1.00
H210   H     0.55120   0.91995   0.83170   0.00000  Uiso   1.00
H211   H     0.70487   0.91832   0.55775   0.00000  Uiso   1.00
H212   H     0.85795   0.06980   0.17287   0.00000  Uiso   1.00
H213   H     0.43345   0.87347   0.91686   0.00000  Uiso   1.00
H214   H     0.75751   0.87003   0.33917   0.00000  Uiso   1.00
H215   H     0.80873   0.81942   0.07842   0.00000  Uiso   1.00
H216   H     0.89542   0.87854   0.25862   0.00000  Uiso   1.00
H217   H     0.69410   0.78543   0.13722   0.00000  Uiso   1.00
H218   H     0.84778   0.78380   0.86327   0.00000  Uiso   1.00
H219   H     0.97393   0.96062   0.42084   0.00000  Uiso   1.00
H220   H     0.54943   0.76428   0.16483   0.00000  Uiso   1.00
H221   H     0.87349   0.76085   0.58714   0.00000  Uiso   1.00
O222   O     0.97051   0.05640   0.41020   0.00000  Uiso   1.00
O223   O     0.41358   0.79881   0.07429   0.00000  Uiso   1.00
O224   O     0.83874   0.79431   0.31638   0.00000  Uiso   1.00
N225   N     0.87336   0.03599   0.20648   0.00000  Uiso   1.00
N226   N     0.47648   0.85244   0.96715   0.00000  Uiso   1.00
N227   N     0.77943   0.84922   0.42704   0.00000  Uiso   1.00
N228   N     0.93577   0.97724   0.33992   0.00000  Uiso   1.00
N229   N     0.53889   0.79369   0.10058   0.00000  Uiso   1.00
N230   N     0.84184   0.79047   0.56048   0.00000  Uiso   1.00
C231   C     0.20430   0.41773   0.85515   0.00000  Uiso   1.00
C232   C     0.26615   0.43597   0.98457   0.00000  Uiso   1.00
C233   C     0.28338   0.48402   0.01907   0.00000  Uiso   1.00
C234   C     0.34196   0.49324   0.14198   0.00000  Uiso   1.00
C235   C     0.43191   0.52726   0.33001   0.00000  Uiso   1.00
C236   C     0.15677   0.38538   0.91863   0.00000  Uiso   1.00
C237   C     0.08203   0.39090   0.89767   0.00000  Uiso   1.00
C238   C     0.04853   0.35753   0.96506   0.00000  Uiso   1.00
C239   C     0.96866   0.31300   0.05063   0.00000  Uiso   1.00
C240   C     0.24027   0.38450   0.76979   0.00000  Uiso   1.00
C241   C     0.23573   0.38927   0.62367   0.00000  Uiso   1.00
C242   C     0.27252   0.35515   0.56572   0.00000  Uiso   1.00
C243   C     0.32229   0.30926   0.42019   0.00000  Uiso   1.00
C244   C     0.27769   0.34864   0.01206   0.00000  Uiso   1.00
C245   C     0.30601   0.39844   0.06980   0.00000  Uiso   1.00
C246   C     0.36459   0.40758   0.19268   0.00000  Uiso   1.00
C247   C     0.38190   0.45565   0.22736   0.00000  Uiso   1.00
C248   C     0.19663   0.34786   0.00386   0.00000  Uiso   1.00
C249   C     0.16323   0.31447   0.07128   0.00000  Uiso   1.00
C250   C     0.08847   0.31994   0.05044   0.00000  Uiso   1.00
C251   C     0.28014   0.34697   0.85502   0.00000  Uiso   1.00
C252   C     0.31693   0.31284   0.79728   0.00000  Uiso   1.00
C253   C     0.31245   0.31756   0.65110   0.00000  Uiso   1.00
H254   H     0.17326   0.44695   0.78880   0.00000  Uiso   1.00
H255   H     0.25251   0.51306   0.95310   0.00000  Uiso   1.00
H256   H     0.05120   0.41995   0.83170   0.00000  Uiso   1.00
H257   H     0.20487   0.41832   0.55775   0.00000  Uiso   1.00
H258   H     0.35795   0.56980   0.17287   0.00000  Uiso   1.00
H259   H     0.93345   0.37347   0.91686   0.00000  Uiso   1.00
H260   H     0.25751   0.37003   0.33917   0.00000  Uiso   1.00
H261   H     0.30873   0.31942   0.07842   0.00000  Uiso   1.00
H262   H     0.39542   0.37854   0.25862   0.00000  Uiso   1.00
H263   H     0.19410   0.28543   0.13722   0.00000  Uiso   1.00
H264   H     0.34778   0.28380   0.86327   0.00000  Uiso   1.00
H265   H     0.47393   0.46062   0.42084   0.00000  Uiso   1.00
H266   H     0.04943   0.26428   0.16483   0.00000  Uiso   1.00
H267   H     0.37349   0.26085   0.58714   0.00000  Uiso   1.00
O268   O     0.47051   0.55640   0.41020   0.00000  Uiso   1.00
O269   O     0.91358   0.29881   0.07429   0.00000  Uiso   1.00
O270   O     0.33874   0.29431   0.31638   0.00000  Uiso   1.00
N271   N     0.37336   0.53599   0.20648   0.00000  Uiso   1.00
N272   N     0.97648   0.35244   0.96715   0.00000  Uiso   1.00
N273   N     0.27943   0.34922   0.42704   0.00000  Uiso   1.00
N274   N     0.43577   0.47724   0.33992   0.00000  Uiso   1.00
N275   N     0.03889   0.29369   0.10058   0.00000  Uiso   1.00
N276   N     0.34184   0.29047   0.56048   0.00000  Uiso   1.00
C277   C     0.29570   0.91773   0.64485   0.00000  Uiso   1.00
C278   C     0.23385   0.93597   0.51543   0.00000  Uiso   1.00
C279   C     0.21662   0.98402   0.48093   0.00000  Uiso   1.00
C280   C     0.15804   0.99324   0.35802   0.00000  Uiso   1.00
C281   C     0.06809   0.02726   0.16999   0.00000  Uiso   1.00
C282   C     0.34323   0.88538   0.58137   0.00000  Uiso   1.00
C283   C     0.41797   0.89090   0.60233   0.00000  Uiso   1.00
C284   C     0.45147   0.85753   0.53494   0.00000  Uiso   1.00
C285   C     0.53134   0.81300   0.44937   0.00000  Uiso   1.00
C286   C     0.25973   0.88450   0.73021   0.00000  Uiso   1.00
C287   C     0.26427   0.88927   0.87633   0.00000  Uiso   1.00
C288   C     0.22748   0.85515   0.93428   0.00000  Uiso   1.00
C289   C     0.17771   0.80926   0.07981   0.00000  Uiso   1.00
C290   C     0.22231   0.84864   0.48794   0.00000  Uiso   1.00
C291   C     0.19399   0.89844   0.43020   0.00000  Uiso   1.00
C292   C     0.13541   0.90758   0.30732   0.00000  Uiso   1.00
C293   C     0.11810   0.95565   0.27264   0.00000  Uiso   1.00
C294   C     0.30337   0.84786   0.49614   0.00000  Uiso   1.00
C295   C     0.33677   0.81447   0.42872   0.00000  Uiso   1.00
C296   C     0.41153   0.81994   0.44956   0.00000  Uiso   1.00
C297   C     0.21986   0.84697   0.64498   0.00000  Uiso   1.00
C298   C     0.18307   0.81284   0.70272   0.00000  Uiso   1.00
C299   C     0.18755   0.81756   0.84890   0.00000  Uiso   1.00
H300   H     0.32674   0.94695   0.71120   0.00000  Uiso   1.00
H301   H     0.24749   0.01306   0.54690   0.00000  Uiso   1.00
H302   H     0.44880   0.91995   0.66830   0.00000  Uiso   1.00
H303   H     0.29513   0.91832   0.94225   0.00000  Uiso   1.00
H304   H     0.14205   0.06980   0.32713   0.00000  Uiso   1.00
H305   H     0.56655   0.87347   0.58314   0.00000  Uiso   1.00
H306   H     0.24249   0.87003   0.16083   0.00000  Uiso   1.00
H307   H     0.19127   0.81942   0.42158   0.00000  Uiso   1.00
H308   H     0.10458   0.87854   0.24138   0.00000  Uiso   1.00
H309   H     0.30590   0.78543   0.36278   0.00000  Uiso   1.00
H310   H     0.15222   0.78380   0.63673   0.00000  Uiso   1.00
H311   H     0.02607   0.96062   0.07916   0.00000  Uiso   1.00
H312   H     0.45057   0.76428   0.33517   0.00000  Uiso   1.00
H313   H     0.12651   0.76085   0.91286   0.00000  Uiso   1.00
O314   O     0.02949   0.05640   0.08980   0.00000  Uiso   1.00
O315   O     0.58642   0.79881   0.42571   0.00000  Uiso   1.00
O316   O     0.16126   0.79431   0.18362   0.00000  Uiso   1.00
N317   N     0.12664   0.03599   0.29352   0.00000  Uiso   1.00
N318   N     0.52352   0.85244   0.53285   0.00000  Uiso   1.00
N319   N     0.22057   0.84922   0.07296   0.00000  Uiso   1.00
N320   N     0.06423   0.97724   0.16008   0.00000  Uiso   1.00
N321   N     0.46111   0.79369   0.39942   0.00000  Uiso   1.00
N322   N     0.15816   0.79047   0.93952   0.00000  Uiso   1.00
C323   C     0.79570   0.41773   0.64485   0.00000  Uiso   1.00
C324   C     0.73385   0.43597   0.51543   0.00000  Uiso   1.00
C325   C     0.71662   0.48402   0.48093   0.00000  Uiso   1.00
C326   C     0.65804   0.49324   0.35802   0.00000  Uiso   1.00
C327   C     0.56809   0.52726   0.16999   0.00000  Uiso   1.00
C328   C     0.84323   0.38538   0.58137   0.00000  Uiso   1.00
C329   C     0.91797   0.39090   0.60233   0.00000  Uiso   1.00
C330   C     0.95147   0.35753   0.53494   0.00000  Uiso   1.00
C331   C     0.03134   0.31300   0.44937   0.00000  Uiso   1.00
C332   C     0.75973   0.38450   0.73021   0.00000  Uiso   1.00
C333   C     0.76427   0.38927   0.87633   0.00000  Uiso   1.00
C334   C     0.72748   0.35515   0.93428   0.00000  Uiso   1.00
C335   C     0.67771   0.30926   0.07981   0.00000  Uiso   1.00
C336   C     0.72231   0.34864   0.48794   0.00000  Uiso   1.00
C337   C     0.69399   0.39844   0.43020   0.00000  Uiso   1.00
C338   C     0.63541   0.40758   0.30732   0.00000  Uiso   1.00
C339   C     0.61810   0.45565   0.27264   0.00000  Uiso   1.00
C340   C     0.80337   0.34786   0.49614   0.00000  Uiso   1.00
C341   C     0.83677   0.31447   0.42872   0.00000  Uiso   1.00
C342   C     0.91153   0.31994   0.44956   0.00000  Uiso   1.00
C343   C     0.71986   0.34697   0.64498   0.00000  Uiso   1.00
C344   C     0.68307   0.31284   0.70272   0.00000  Uiso   1.00
C345   C     0.68755   0.31756   0.84890   0.00000  Uiso   1.00
H346   H     0.82674   0.44695   0.71120   0.00000  Uiso   1.00
H347   H     0.74749   0.51306   0.54690   0.00000  Uiso   1.00
H348   H     0.94880   0.41995   0.66830   0.00000  Uiso   1.00
H349   H     0.79513   0.41832   0.94225   0.00000  Uiso   1.00
H350   H     0.64205   0.56980   0.32713   0.00000  Uiso   1.00
H351   H     0.06655   0.37347   0.58314   0.00000  Uiso   1.00
H352   H     0.74249   0.37003   0.16083   0.00000  Uiso   1.00
H353   H     0.69127   0.31942   0.42158   0.00000  Uiso   1.00
H354   H     0.60458   0.37854   0.24138   0.00000  Uiso   1.00
H355   H     0.80590   0.28543   0.36278   0.00000  Uiso   1.00
H356   H     0.65222   0.28380   0.63673   0.00000  Uiso   1.00
H357   H     0.52607   0.46062   0.07916   0.00000  Uiso   1.00
H358   H     0.95057   0.26428   0.33517   0.00000  Uiso   1.00
H359   H     0.62651   0.26085   0.91286   0.00000  Uiso   1.00
O360   O     0.52949   0.55640   0.08980   0.00000  Uiso   1.00
O361   O     0.08642   0.29881   0.42571   0.00000  Uiso   1.00
O362   O     0.66126   0.29431   0.18362   0.00000  Uiso   1.00
N363   N     0.62664   0.53599   0.29352   0.00000  Uiso   1.00
N364   N     0.02352   0.35244   0.53285   0.00000  Uiso   1.00
N365   N     0.72057   0.34922   0.07296   0.00000  Uiso   1.00
N366   N     0.56423   0.47724   0.16008   0.00000  Uiso   1.00
N367   N     0.96111   0.29369   0.39942   0.00000  Uiso   1.00
N368   N     0.65816   0.29047   0.93952   0.00000  Uiso   1.00
