data_job_00431
_audit_creation_date              2018-12-19
_audit_creation_method            'Materials Studio'
_symmetry_space_group_name_H-M    'P1'
_symmetry_Int_Tables_number       1
_symmetry_cell_setting            triclinic
loop_
_symmetry_equiv_pos_as_xyz
  x,y,z
_cell_length_a                    81.0281
_cell_length_b                    7.0515
_cell_length_c                    46.8387
_cell_angle_alpha                 90.0000
_cell_angle_beta                  149.8936
_cell_angle_gamma                 90.0000
loop_
_atom_site_label
_atom_site_type_symbol
_atom_site_fract_x
_atom_site_fract_y
_atom_site_fract_z
_atom_site_U_iso_or_equiv
_atom_site_adp_type
_atom_site_occupancy
C1     C     0.67106   0.19429   0.75861   0.00000  Uiso   1.00
C2     C     0.68603   0.30380   0.80590   0.00000  Uiso   1.00
C3     C     0.70267   0.22481   0.85378   0.00000  Uiso   1.00
C4     C     0.71451   0.34907   0.89207   0.00000  Uiso   1.00
C5     C     0.73845   0.48926   0.96690   0.00000  Uiso   1.00
C6     C     0.63482   0.24984   0.70348   0.00000  Uiso   1.00
C7     C     0.60839   0.12546   0.66524   0.00000  Uiso   1.00
C8     C     0.57712   0.20431   0.61730   0.00000  Uiso   1.00
C9     C     0.52154   0.26071   0.53311   0.00000  Uiso   1.00
C10    C     0.68647   0.27672   0.75469   0.00000  Uiso   1.00
C11    C     0.70346   0.17495   0.75950   0.00000  Uiso   1.00
C12    C     0.71567   0.27643   0.75467   0.00000  Uiso   1.00
C13    C     0.74029   0.37458   0.75000   0.00000  Uiso   1.00
C14    C     0.66250   0.55544   0.74146   0.00000  Uiso   1.00
C15    C     0.68138   0.49996   0.79659   0.00000  Uiso   1.00
C16    C     0.69320   0.62438   0.83481   0.00000  Uiso   1.00
C17    C     0.70985   0.54558   0.88274   0.00000  Uiso   1.00
C18    C     0.63016   0.44599   0.69417   0.00000  Uiso   1.00
C19    C     0.59892   0.52504   0.64627   0.00000  Uiso   1.00
C20    C     0.57246   0.40082   0.60797   0.00000  Uiso   1.00
C21    C     0.68182   0.47289   0.74538   0.00000  Uiso   1.00
C22    C     0.69399   0.57453   0.74054   0.00000  Uiso   1.00
C23    C     0.71101   0.47294   0.74534   0.00000  Uiso   1.00
H24    H     0.67468   0.04157   0.76585   0.00000  Uiso   1.00
H25    H     0.70626   0.07299   0.86097   0.00000  Uiso   1.00
H26    H     0.61200   0.97367   0.67245   0.00000  Uiso   1.00
H27    H     0.70706   0.02316   0.76671   0.00000  Uiso   1.00
H28    H     0.73922   0.19433   0.96230   0.00000  Uiso   1.00
H29    H     0.54046   0.98490   0.56480   0.00000  Uiso   1.00
H30    H     0.74090   0.08925   0.76355   0.00000  Uiso   1.00
H31    H     0.65888   0.70817   0.73421   0.00000  Uiso   1.00
H32    H     0.68959   0.77618   0.82760   0.00000  Uiso   1.00
H33    H     0.59533   0.67685   0.63908   0.00000  Uiso   1.00
H34    H     0.69039   0.72633   0.73333   0.00000  Uiso   1.00
H35    H     0.72569   0.76506   0.93521   0.00000  Uiso   1.00
H36    H     0.52693   0.55562   0.53771   0.00000  Uiso   1.00
H37    H     0.72737   0.65998   0.73646   0.00000  Uiso   1.00
O38    O     0.75293   0.51240   0.01075   0.00000  Uiso   1.00
O39    O     0.49217   0.23762   0.48924   0.00000  Uiso   1.00
O40    O     0.75515   0.37453   0.75000   0.00000  Uiso   1.00
N41    N     0.73182   0.31932   0.94312   0.00000  Uiso   1.00
N42    N     0.54600   0.12351   0.57148   0.00000  Uiso   1.00
N43    N     0.73339   0.22106   0.75728   0.00000  Uiso   1.00
N44    N     0.72454   0.62643   0.92854   0.00000  Uiso   1.00
N45    N     0.53872   0.43062   0.55691   0.00000  Uiso   1.00
N46    N     0.72611   0.52817   0.74271   0.00000  Uiso   1.00
C47    C     0.17106   0.69429   0.75861   0.00000  Uiso   1.00
C48    C     0.18603   0.80380   0.80590   0.00000  Uiso   1.00
C49    C     0.20267   0.72481   0.85378   0.00000  Uiso   1.00
C50    C     0.21451   0.84907   0.89207   0.00000  Uiso   1.00
C51    C     0.23845   0.98926   0.96690   0.00000  Uiso   1.00
C52    C     0.13482   0.74984   0.70348   0.00000  Uiso   1.00
C53    C     0.10839   0.62546   0.66524   0.00000  Uiso   1.00
C54    C     0.07712   0.70431   0.61730   0.00000  Uiso   1.00
C55    C     0.02154   0.76071   0.53311   0.00000  Uiso   1.00
C56    C     0.18647   0.77672   0.75469   0.00000  Uiso   1.00
C57    C     0.20346   0.67495   0.75950   0.00000  Uiso   1.00
C58    C     0.21567   0.77643   0.75467   0.00000  Uiso   1.00
C59    C     0.24029   0.87458   0.75000   0.00000  Uiso   1.00
C60    C     0.16250   0.05544   0.74146   0.00000  Uiso   1.00
C61    C     0.18138   0.99996   0.79659   0.00000  Uiso   1.00
C62    C     0.19320   0.12438   0.83481   0.00000  Uiso   1.00
C63    C     0.20985   0.04558   0.88274   0.00000  Uiso   1.00
C64    C     0.13016   0.94599   0.69417   0.00000  Uiso   1.00
C65    C     0.09892   0.02504   0.64627   0.00000  Uiso   1.00
C66    C     0.07246   0.90082   0.60797   0.00000  Uiso   1.00
C67    C     0.18182   0.97289   0.74538   0.00000  Uiso   1.00
C68    C     0.19399   0.07453   0.74054   0.00000  Uiso   1.00
C69    C     0.21101   0.97294   0.74534   0.00000  Uiso   1.00
H70    H     0.17468   0.54157   0.76585   0.00000  Uiso   1.00
H71    H     0.20626   0.57299   0.86097   0.00000  Uiso   1.00
H72    H     0.11200   0.47367   0.67245   0.00000  Uiso   1.00
H73    H     0.20706   0.52316   0.76671   0.00000  Uiso   1.00
H74    H     0.23922   0.69433   0.96230   0.00000  Uiso   1.00
H75    H     0.04046   0.48490   0.56480   0.00000  Uiso   1.00
H76    H     0.24090   0.58925   0.76355   0.00000  Uiso   1.00
H77    H     0.15888   0.20817   0.73421   0.00000  Uiso   1.00
H78    H     0.18959   0.27618   0.82760   0.00000  Uiso   1.00
H79    H     0.09533   0.17685   0.63908   0.00000  Uiso   1.00
H80    H     0.19039   0.22633   0.73333   0.00000  Uiso   1.00
H81    H     0.22569   0.26506   0.93521   0.00000  Uiso   1.00
H82    H     0.02693   0.05562   0.53771   0.00000  Uiso   1.00
H83    H     0.22737   0.15998   0.73646   0.00000  Uiso   1.00
O84    O     0.25293   0.01240   0.01075   0.00000  Uiso   1.00
O85    O     0.99217   0.73762   0.48924   0.00000  Uiso   1.00
O86    O     0.25515   0.87453   0.75000   0.00000  Uiso   1.00
N87    N     0.23182   0.81932   0.94312   0.00000  Uiso   1.00
N88    N     0.04600   0.62351   0.57148   0.00000  Uiso   1.00
N89    N     0.23339   0.72106   0.75728   0.00000  Uiso   1.00
N90    N     0.22454   0.12643   0.92854   0.00000  Uiso   1.00
N91    N     0.03872   0.93062   0.55691   0.00000  Uiso   1.00
N92    N     0.22611   0.02817   0.74271   0.00000  Uiso   1.00
C93    C     0.32894   0.19429   0.74139   0.00000  Uiso   1.00
C94    C     0.31397   0.30380   0.69410   0.00000  Uiso   1.00
C95    C     0.29733   0.22481   0.64622   0.00000  Uiso   1.00
C96    C     0.28549   0.34907   0.60793   0.00000  Uiso   1.00
C97    C     0.26155   0.48926   0.53310   0.00000  Uiso   1.00
C98    C     0.36518   0.24984   0.79652   0.00000  Uiso   1.00
C99    C     0.39161   0.12546   0.83476   0.00000  Uiso   1.00
C100   C     0.42288   0.20431   0.88270   0.00000  Uiso   1.00
C101   C     0.47846   0.26071   0.96689   0.00000  Uiso   1.00
C102   C     0.31353   0.27672   0.74531   0.00000  Uiso   1.00
C103   C     0.29654   0.17495   0.74050   0.00000  Uiso   1.00
C104   C     0.28433   0.27643   0.74533   0.00000  Uiso   1.00
C105   C     0.25971   0.37458   0.75000   0.00000  Uiso   1.00
C106   C     0.33750   0.55544   0.75854   0.00000  Uiso   1.00
C107   C     0.31862   0.49996   0.70341   0.00000  Uiso   1.00
C108   C     0.30680   0.62438   0.66519   0.00000  Uiso   1.00
C109   C     0.29015   0.54558   0.61726   0.00000  Uiso   1.00
C110   C     0.36984   0.44599   0.80583   0.00000  Uiso   1.00
C111   C     0.40108   0.52504   0.85373   0.00000  Uiso   1.00
C112   C     0.42754   0.40082   0.89203   0.00000  Uiso   1.00
C113   C     0.31818   0.47289   0.75462   0.00000  Uiso   1.00
C114   C     0.30601   0.57453   0.75946   0.00000  Uiso   1.00
C115   C     0.28899   0.47294   0.75466   0.00000  Uiso   1.00
H116   H     0.32532   0.04157   0.73415   0.00000  Uiso   1.00
H117   H     0.29374   0.07299   0.63903   0.00000  Uiso   1.00
H118   H     0.38800   0.97367   0.82755   0.00000  Uiso   1.00
H119   H     0.29294   0.02316   0.73329   0.00000  Uiso   1.00
H120   H     0.26078   0.19433   0.53770   0.00000  Uiso   1.00
H121   H     0.45954   0.98490   0.93520   0.00000  Uiso   1.00
H122   H     0.25910   0.08925   0.73645   0.00000  Uiso   1.00
H123   H     0.34112   0.70817   0.76579   0.00000  Uiso   1.00
H124   H     0.31041   0.77618   0.67240   0.00000  Uiso   1.00
H125   H     0.40467   0.67685   0.86092   0.00000  Uiso   1.00
H126   H     0.30961   0.72633   0.76667   0.00000  Uiso   1.00
H127   H     0.27431   0.76506   0.56479   0.00000  Uiso   1.00
H128   H     0.47307   0.55562   0.96229   0.00000  Uiso   1.00
H129   H     0.27263   0.65998   0.76354   0.00000  Uiso   1.00
O130   O     0.24707   0.51240   0.48925   0.00000  Uiso   1.00
O131   O     0.50783   0.23762   0.01076   0.00000  Uiso   1.00
O132   O     0.24485   0.37453   0.75000   0.00000  Uiso   1.00
N133   N     0.26818   0.31932   0.55688   0.00000  Uiso   1.00
N134   N     0.45400   0.12351   0.92852   0.00000  Uiso   1.00
N135   N     0.26661   0.22106   0.74272   0.00000  Uiso   1.00
N136   N     0.27546   0.62643   0.57146   0.00000  Uiso   1.00
N137   N     0.46128   0.43062   0.94309   0.00000  Uiso   1.00
N138   N     0.27389   0.52817   0.75729   0.00000  Uiso   1.00
C139   C     0.82894   0.69429   0.74139   0.00000  Uiso   1.00
C140   C     0.81397   0.80380   0.69410   0.00000  Uiso   1.00
C141   C     0.79733   0.72481   0.64622   0.00000  Uiso   1.00
C142   C     0.78549   0.84907   0.60793   0.00000  Uiso   1.00
C143   C     0.76155   0.98926   0.53310   0.00000  Uiso   1.00
C144   C     0.86518   0.74984   0.79652   0.00000  Uiso   1.00
C145   C     0.89161   0.62546   0.83476   0.00000  Uiso   1.00
C146   C     0.92288   0.70431   0.88270   0.00000  Uiso   1.00
C147   C     0.97846   0.76071   0.96689   0.00000  Uiso   1.00
C148   C     0.81353   0.77672   0.74531   0.00000  Uiso   1.00
C149   C     0.79654   0.67495   0.74050   0.00000  Uiso   1.00
C150   C     0.78433   0.77643   0.74533   0.00000  Uiso   1.00
C151   C     0.75971   0.87458   0.75000   0.00000  Uiso   1.00
C152   C     0.83750   0.05544   0.75854   0.00000  Uiso   1.00
C153   C     0.81862   0.99996   0.70341   0.00000  Uiso   1.00
C154   C     0.80680   0.12438   0.66519   0.00000  Uiso   1.00
C155   C     0.79015   0.04558   0.61726   0.00000  Uiso   1.00
C156   C     0.86984   0.94599   0.80583   0.00000  Uiso   1.00
C157   C     0.90108   0.02504   0.85373   0.00000  Uiso   1.00
C158   C     0.92754   0.90082   0.89203   0.00000  Uiso   1.00
C159   C     0.81818   0.97289   0.75462   0.00000  Uiso   1.00
C160   C     0.80601   0.07453   0.75946   0.00000  Uiso   1.00
C161   C     0.78899   0.97294   0.75466   0.00000  Uiso   1.00
H162   H     0.82532   0.54157   0.73415   0.00000  Uiso   1.00
H163   H     0.79374   0.57299   0.63903   0.00000  Uiso   1.00
H164   H     0.88800   0.47367   0.82755   0.00000  Uiso   1.00
H165   H     0.79294   0.52316   0.73329   0.00000  Uiso   1.00
H166   H     0.76078   0.69433   0.53770   0.00000  Uiso   1.00
H167   H     0.95954   0.48490   0.93520   0.00000  Uiso   1.00
H168   H     0.75910   0.58925   0.73645   0.00000  Uiso   1.00
H169   H     0.84112   0.20817   0.76579   0.00000  Uiso   1.00
H170   H     0.81041   0.27618   0.67240   0.00000  Uiso   1.00
H171   H     0.90467   0.17685   0.86092   0.00000  Uiso   1.00
H172   H     0.80961   0.22633   0.76667   0.00000  Uiso   1.00
H173   H     0.77431   0.26506   0.56479   0.00000  Uiso   1.00
H174   H     0.97307   0.05562   0.96229   0.00000  Uiso   1.00
H175   H     0.77263   0.15998   0.76354   0.00000  Uiso   1.00
O176   O     0.74707   0.01240   0.48925   0.00000  Uiso   1.00
O177   O     0.00783   0.73762   0.01076   0.00000  Uiso   1.00
O178   O     0.74485   0.87453   0.75000   0.00000  Uiso   1.00
N179   N     0.76818   0.81932   0.55688   0.00000  Uiso   1.00
N180   N     0.95400   0.62351   0.92852   0.00000  Uiso   1.00
N181   N     0.76661   0.72106   0.74272   0.00000  Uiso   1.00
N182   N     0.77546   0.12643   0.57146   0.00000  Uiso   1.00
N183   N     0.96128   0.93062   0.94309   0.00000  Uiso   1.00
N184   N     0.77389   0.02817   0.75729   0.00000  Uiso   1.00
C185   C     0.32894   0.80571   0.24139   0.00000  Uiso   1.00
C186   C     0.31397   0.69620   0.19410   0.00000  Uiso   1.00
C187   C     0.29733   0.77519   0.14622   0.00000  Uiso   1.00
C188   C     0.28549   0.65093   0.10793   0.00000  Uiso   1.00
C189   C     0.26155   0.51074   0.03310   0.00000  Uiso   1.00
C190   C     0.36518   0.75016   0.29652   0.00000  Uiso   1.00
C191   C     0.39161   0.87454   0.33476   0.00000  Uiso   1.00
C192   C     0.42288   0.79569   0.38270   0.00000  Uiso   1.00
C193   C     0.47846   0.73929   0.46689   0.00000  Uiso   1.00
C194   C     0.31353   0.72328   0.24531   0.00000  Uiso   1.00
C195   C     0.29654   0.82505   0.24050   0.00000  Uiso   1.00
C196   C     0.28433   0.72357   0.24533   0.00000  Uiso   1.00
C197   C     0.25971   0.62542   0.25000   0.00000  Uiso   1.00
C198   C     0.33750   0.44456   0.25854   0.00000  Uiso   1.00
C199   C     0.31862   0.50004   0.20341   0.00000  Uiso   1.00
C200   C     0.30680   0.37562   0.16519   0.00000  Uiso   1.00
C201   C     0.29015   0.45442   0.11726   0.00000  Uiso   1.00
C202   C     0.36984   0.55401   0.30583   0.00000  Uiso   1.00
C203   C     0.40108   0.47496   0.35373   0.00000  Uiso   1.00
C204   C     0.42754   0.59918   0.39203   0.00000  Uiso   1.00
C205   C     0.31818   0.52711   0.25462   0.00000  Uiso   1.00
C206   C     0.30601   0.42547   0.25946   0.00000  Uiso   1.00
C207   C     0.28899   0.52706   0.25466   0.00000  Uiso   1.00
H208   H     0.32532   0.95843   0.23415   0.00000  Uiso   1.00
H209   H     0.29374   0.92701   0.13903   0.00000  Uiso   1.00
H210   H     0.38800   0.02633   0.32755   0.00000  Uiso   1.00
H211   H     0.29294   0.97684   0.23329   0.00000  Uiso   1.00
H212   H     0.26078   0.80567   0.03770   0.00000  Uiso   1.00
H213   H     0.45954   0.01510   0.43520   0.00000  Uiso   1.00
H214   H     0.25910   0.91075   0.23645   0.00000  Uiso   1.00
H215   H     0.34112   0.29183   0.26579   0.00000  Uiso   1.00
H216   H     0.31041   0.22382   0.17240   0.00000  Uiso   1.00
H217   H     0.40467   0.32315   0.36092   0.00000  Uiso   1.00
H218   H     0.30961   0.27367   0.26667   0.00000  Uiso   1.00
H219   H     0.27431   0.23494   0.06479   0.00000  Uiso   1.00
H220   H     0.47307   0.44438   0.46229   0.00000  Uiso   1.00
H221   H     0.27263   0.34002   0.26354   0.00000  Uiso   1.00
O222   O     0.24707   0.48760   0.98925   0.00000  Uiso   1.00
O223   O     0.50783   0.76238   0.51076   0.00000  Uiso   1.00
O224   O     0.24485   0.62547   0.25000   0.00000  Uiso   1.00
N225   N     0.26818   0.68068   0.05688   0.00000  Uiso   1.00
N226   N     0.45400   0.87649   0.42852   0.00000  Uiso   1.00
N227   N     0.26661   0.77894   0.24272   0.00000  Uiso   1.00
N228   N     0.27546   0.37357   0.07146   0.00000  Uiso   1.00
N229   N     0.46128   0.56938   0.44309   0.00000  Uiso   1.00
N230   N     0.27389   0.47183   0.25729   0.00000  Uiso   1.00
C231   C     0.82894   0.30571   0.24139   0.00000  Uiso   1.00
C232   C     0.81397   0.19620   0.19410   0.00000  Uiso   1.00
C233   C     0.79733   0.27519   0.14622   0.00000  Uiso   1.00
C234   C     0.78549   0.15093   0.10793   0.00000  Uiso   1.00
C235   C     0.76155   0.01074   0.03310   0.00000  Uiso   1.00
C236   C     0.86518   0.25016   0.29652   0.00000  Uiso   1.00
C237   C     0.89161   0.37454   0.33476   0.00000  Uiso   1.00
C238   C     0.92288   0.29569   0.38270   0.00000  Uiso   1.00
C239   C     0.97846   0.23929   0.46689   0.00000  Uiso   1.00
C240   C     0.81353   0.22328   0.24531   0.00000  Uiso   1.00
C241   C     0.79654   0.32505   0.24050   0.00000  Uiso   1.00
C242   C     0.78433   0.22357   0.24533   0.00000  Uiso   1.00
C243   C     0.75971   0.12542   0.25000   0.00000  Uiso   1.00
C244   C     0.83750   0.94456   0.25854   0.00000  Uiso   1.00
C245   C     0.81862   0.00004   0.20341   0.00000  Uiso   1.00
C246   C     0.80680   0.87562   0.16519   0.00000  Uiso   1.00
C247   C     0.79015   0.95442   0.11726   0.00000  Uiso   1.00
C248   C     0.86984   0.05401   0.30583   0.00000  Uiso   1.00
C249   C     0.90108   0.97496   0.35373   0.00000  Uiso   1.00
C250   C     0.92754   0.09918   0.39203   0.00000  Uiso   1.00
C251   C     0.81818   0.02711   0.25462   0.00000  Uiso   1.00
C252   C     0.80601   0.92547   0.25946   0.00000  Uiso   1.00
C253   C     0.78899   0.02706   0.25466   0.00000  Uiso   1.00
H254   H     0.82532   0.45843   0.23415   0.00000  Uiso   1.00
H255   H     0.79374   0.42701   0.13903   0.00000  Uiso   1.00
H256   H     0.88800   0.52633   0.32755   0.00000  Uiso   1.00
H257   H     0.79294   0.47684   0.23329   0.00000  Uiso   1.00
H258   H     0.76078   0.30567   0.03770   0.00000  Uiso   1.00
H259   H     0.95954   0.51510   0.43520   0.00000  Uiso   1.00
H260   H     0.75910   0.41075   0.23645   0.00000  Uiso   1.00
H261   H     0.84112   0.79183   0.26579   0.00000  Uiso   1.00
H262   H     0.81041   0.72382   0.17240   0.00000  Uiso   1.00
H263   H     0.90467   0.82315   0.36092   0.00000  Uiso   1.00
H264   H     0.80961   0.77367   0.26667   0.00000  Uiso   1.00
H265   H     0.77431   0.73494   0.06479   0.00000  Uiso   1.00
H266   H     0.97307   0.94438   0.46229   0.00000  Uiso   1.00
H267   H     0.77263   0.84002   0.26354   0.00000  Uiso   1.00
O268   O     0.74707   0.98760   0.98925   0.00000  Uiso   1.00
O269   O     0.00783   0.26238   0.51076   0.00000  Uiso   1.00
O270   O     0.74485   0.12547   0.25000   0.00000  Uiso   1.00
N271   N     0.76818   0.18068   0.05688   0.00000  Uiso   1.00
N272   N     0.95400   0.37649   0.42852   0.00000  Uiso   1.00
N273   N     0.76661   0.27894   0.24272   0.00000  Uiso   1.00
N274   N     0.77546   0.87357   0.07146   0.00000  Uiso   1.00
N275   N     0.96128   0.06938   0.44309   0.00000  Uiso   1.00
N276   N     0.77389   0.97183   0.25729   0.00000  Uiso   1.00
C277   C     0.67106   0.80571   0.25861   0.00000  Uiso   1.00
C278   C     0.68603   0.69620   0.30590   0.00000  Uiso   1.00
C279   C     0.70267   0.77519   0.35378   0.00000  Uiso   1.00
C280   C     0.71451   0.65093   0.39207   0.00000  Uiso   1.00
C281   C     0.73845   0.51074   0.46690   0.00000  Uiso   1.00
C282   C     0.63482   0.75016   0.20348   0.00000  Uiso   1.00
C283   C     0.60839   0.87454   0.16524   0.00000  Uiso   1.00
C284   C     0.57712   0.79569   0.11730   0.00000  Uiso   1.00
C285   C     0.52154   0.73929   0.03311   0.00000  Uiso   1.00
C286   C     0.68647   0.72328   0.25469   0.00000  Uiso   1.00
C287   C     0.70346   0.82505   0.25950   0.00000  Uiso   1.00
C288   C     0.71567   0.72357   0.25467   0.00000  Uiso   1.00
C289   C     0.74029   0.62542   0.25000   0.00000  Uiso   1.00
C290   C     0.66250   0.44456   0.24146   0.00000  Uiso   1.00
C291   C     0.68138   0.50004   0.29659   0.00000  Uiso   1.00
C292   C     0.69320   0.37562   0.33481   0.00000  Uiso   1.00
C293   C     0.70985   0.45442   0.38274   0.00000  Uiso   1.00
C294   C     0.63016   0.55401   0.19417   0.00000  Uiso   1.00
C295   C     0.59892   0.47496   0.14627   0.00000  Uiso   1.00
C296   C     0.57246   0.59918   0.10797   0.00000  Uiso   1.00
C297   C     0.68182   0.52711   0.24538   0.00000  Uiso   1.00
C298   C     0.69399   0.42547   0.24054   0.00000  Uiso   1.00
C299   C     0.71101   0.52706   0.24534   0.00000  Uiso   1.00
H300   H     0.67468   0.95843   0.26585   0.00000  Uiso   1.00
H301   H     0.70626   0.92701   0.36097   0.00000  Uiso   1.00
H302   H     0.61200   0.02633   0.17245   0.00000  Uiso   1.00
H303   H     0.70706   0.97684   0.26671   0.00000  Uiso   1.00
H304   H     0.73922   0.80567   0.46230   0.00000  Uiso   1.00
H305   H     0.54046   0.01510   0.06480   0.00000  Uiso   1.00
H306   H     0.74090   0.91075   0.26355   0.00000  Uiso   1.00
H307   H     0.65888   0.29183   0.23421   0.00000  Uiso   1.00
H308   H     0.68959   0.22382   0.32760   0.00000  Uiso   1.00
H309   H     0.59533   0.32315   0.13908   0.00000  Uiso   1.00
H310   H     0.69039   0.27367   0.23333   0.00000  Uiso   1.00
H311   H     0.72569   0.23494   0.43521   0.00000  Uiso   1.00
H312   H     0.52693   0.44438   0.03771   0.00000  Uiso   1.00
H313   H     0.72737   0.34002   0.23646   0.00000  Uiso   1.00
O314   O     0.75293   0.48760   0.51075   0.00000  Uiso   1.00
O315   O     0.49217   0.76238   0.98924   0.00000  Uiso   1.00
O316   O     0.75515   0.62547   0.25000   0.00000  Uiso   1.00
N317   N     0.73182   0.68068   0.44312   0.00000  Uiso   1.00
N318   N     0.54600   0.87649   0.07148   0.00000  Uiso   1.00
N319   N     0.73339   0.77894   0.25728   0.00000  Uiso   1.00
N320   N     0.72454   0.37357   0.42854   0.00000  Uiso   1.00
N321   N     0.53872   0.56938   0.05691   0.00000  Uiso   1.00
N322   N     0.72611   0.47183   0.24271   0.00000  Uiso   1.00
C323   C     0.17106   0.30571   0.25861   0.00000  Uiso   1.00
C324   C     0.18603   0.19620   0.30590   0.00000  Uiso   1.00
C325   C     0.20267   0.27519   0.35378   0.00000  Uiso   1.00
C326   C     0.21451   0.15093   0.39207   0.00000  Uiso   1.00
C327   C     0.23845   0.01074   0.46690   0.00000  Uiso   1.00
C328   C     0.13482   0.25016   0.20348   0.00000  Uiso   1.00
C329   C     0.10839   0.37454   0.16524   0.00000  Uiso   1.00
C330   C     0.07712   0.29569   0.11730   0.00000  Uiso   1.00
C331   C     0.02154   0.23929   0.03311   0.00000  Uiso   1.00
C332   C     0.18647   0.22328   0.25469   0.00000  Uiso   1.00
C333   C     0.20346   0.32505   0.25950   0.00000  Uiso   1.00
C334   C     0.21567   0.22357   0.25467   0.00000  Uiso   1.00
C335   C     0.24029   0.12542   0.25000   0.00000  Uiso   1.00
C336   C     0.16250   0.94456   0.24146   0.00000  Uiso   1.00
C337   C     0.18138   0.00004   0.29659   0.00000  Uiso   1.00
C338   C     0.19320   0.87562   0.33481   0.00000  Uiso   1.00
C339   C     0.20985   0.95442   0.38274   0.00000  Uiso   1.00
C340   C     0.13016   0.05401   0.19417   0.00000  Uiso   1.00
C341   C     0.09892   0.97496   0.14627   0.00000  Uiso   1.00
C342   C     0.07246   0.09918   0.10797   0.00000  Uiso   1.00
C343   C     0.18182   0.02711   0.24538   0.00000  Uiso   1.00
C344   C     0.19399   0.92547   0.24054   0.00000  Uiso   1.00
C345   C     0.21101   0.02706   0.24534   0.00000  Uiso   1.00
H346   H     0.17468   0.45843   0.26585   0.00000  Uiso   1.00
H347   H     0.20626   0.42701   0.36097   0.00000  Uiso   1.00
H348   H     0.11200   0.52633   0.17245   0.00000  Uiso   1.00
H349   H     0.20706   0.47684   0.26671   0.00000  Uiso   1.00
H350   H     0.23922   0.30567   0.46230   0.00000  Uiso   1.00
H351   H     0.04046   0.51510   0.06480   0.00000  Uiso   1.00
H352   H     0.24090   0.41075   0.26355   0.00000  Uiso   1.00
H353   H     0.15888   0.79183   0.23421   0.00000  Uiso   1.00
H354   H     0.18959   0.72382   0.32760   0.00000  Uiso   1.00
H355   H     0.09533   0.82315   0.13908   0.00000  Uiso   1.00
H356   H     0.19039   0.77367   0.23333   0.00000  Uiso   1.00
H357   H     0.22569   0.73494   0.43521   0.00000  Uiso   1.00
H358   H     0.02693   0.94438   0.03771   0.00000  Uiso   1.00
H359   H     0.22737   0.84002   0.23646   0.00000  Uiso   1.00
O360   O     0.25293   0.98760   0.51075   0.00000  Uiso   1.00
O361   O     0.99217   0.26238   0.98924   0.00000  Uiso   1.00
O362   O     0.25515   0.12547   0.25000   0.00000  Uiso   1.00
N363   N     0.23182   0.18068   0.44312   0.00000  Uiso   1.00
N364   N     0.04600   0.37649   0.07148   0.00000  Uiso   1.00
N365   N     0.23339   0.27894   0.25728   0.00000  Uiso   1.00
N366   N     0.22454   0.87357   0.42854   0.00000  Uiso   1.00
N367   N     0.03872   0.06938   0.05691   0.00000  Uiso   1.00
N368   N     0.22611   0.97183   0.24271   0.00000  Uiso   1.00
