data_job_05665
_audit_creation_date              2018-12-19
_audit_creation_method            'Materials Studio'
_symmetry_space_group_name_H-M    'P1'
_symmetry_Int_Tables_number       1
_symmetry_cell_setting            triclinic
loop_
_symmetry_equiv_pos_as_xyz
  x,y,z
_cell_length_a                    15.4836
_cell_length_b                    12.5003
_cell_length_c                    16.5402
_cell_angle_alpha                 90.0000
_cell_angle_beta                  90.0000
_cell_angle_gamma                 90.0000
loop_
_atom_site_label
_atom_site_type_symbol
_atom_site_fract_x
_atom_site_fract_y
_atom_site_fract_z
_atom_site_U_iso_or_equiv
_atom_site_adp_type
_atom_site_occupancy
C1     C     0.75915   0.82509   0.14578   0.00000  Uiso   1.00
C2     C     0.78146   0.74551   0.21247   0.00000  Uiso   1.00
C3     C     0.82908   0.65234   0.20275   0.00000  Uiso   1.00
C4     C     0.84243   0.59026   0.27122   0.00000  Uiso   1.00
C5     C     0.88206   0.46208   0.36329   0.00000  Uiso   1.00
C6     C     0.66096   0.83458   0.14582   0.00000  Uiso   1.00
C7     C     0.60728   0.81630   0.08006   0.00000  Uiso   1.00
C8     C     0.51920   0.82921   0.09242   0.00000  Uiso   1.00
C9     C     0.37177   0.83938   0.08099   0.00000  Uiso   1.00
C10    C     0.79325   0.93317   0.17423   0.00000  Uiso   1.00
C11    C     0.85078   0.99781   0.13235   0.00000  Uiso   1.00
C12    C     0.87406   0.09374   0.16863   0.00000  Uiso   1.00
C13    C     0.93202   0.25699   0.20132   0.00000  Uiso   1.00
C14    C     0.69819   0.88052   0.28466   0.00000  Uiso   1.00
C15    C     0.74834   0.77562   0.28790   0.00000  Uiso   1.00
C16    C     0.76162   0.71367   0.35641   0.00000  Uiso   1.00
C17    C     0.80926   0.62042   0.34679   0.00000  Uiso   1.00
C18    C     0.62785   0.86468   0.22125   0.00000  Uiso   1.00
C19    C     0.53983   0.87763   0.23371   0.00000  Uiso   1.00
C20    C     0.48602   0.85937   0.16799   0.00000  Uiso   1.00
C21    C     0.76014   0.96328   0.24966   0.00000  Uiso   1.00
C22    C     0.78333   0.05913   0.28601   0.00000  Uiso   1.00
C23    C     0.84088   0.12390   0.24420   0.00000  Uiso   1.00
H24    H     0.78493   0.80166   0.08705   0.00000  Uiso   1.00
H25    H     0.85468   0.62907   0.14436   0.00000  Uiso   1.00
H26    H     0.63292   0.79302   0.02169   0.00000  Uiso   1.00
H27    H     0.87639   0.97449   0.07398   0.00000  Uiso   1.00
H28    H     0.91739   0.45098   0.24116   0.00000  Uiso   1.00
H29    H     0.44980   0.79670   0.98249   0.00000  Uiso   1.00
H30    H     0.96319   0.17938   0.09275   0.00000  Uiso   1.00
H31    H     0.67240   0.90396   0.34339   0.00000  Uiso   1.00
H32    H     0.73599   0.73698   0.41477   0.00000  Uiso   1.00
H33    H     0.51423   0.90093   0.29209   0.00000  Uiso   1.00
H34    H     0.75769   0.08240   0.34438   0.00000  Uiso   1.00
H35    H     0.82105   0.53856   0.46064   0.00000  Uiso   1.00
H36    H     0.35346   0.88429   0.20196   0.00000  Uiso   1.00
H37    H     0.86685   0.26696   0.31222   0.00000  Uiso   1.00
O38    O     0.91306   0.38306   0.39323   0.00000  Uiso   1.00
O39    O     0.29960   0.83666   0.05385   0.00000  Uiso   1.00
O40    O     0.97315   0.33871   0.19851   0.00000  Uiso   1.00
N41    N     0.88601   0.49452   0.28302   0.00000  Uiso   1.00
N42    N     0.44884   0.81773   0.04118   0.00000  Uiso   1.00
N43    N     0.92879   0.17551   0.14426   0.00000  Uiso   1.00
N44    N     0.83417   0.54165   0.40112   0.00000  Uiso   1.00
N45    N     0.39700   0.86486   0.15928   0.00000  Uiso   1.00
N46    N     0.87695   0.22264   0.26235   0.00000  Uiso   1.00
C47    C     0.24085   0.17491   0.14578   0.00000  Uiso   1.00
C48    C     0.21854   0.25449   0.21247   0.00000  Uiso   1.00
C49    C     0.17092   0.34766   0.20275   0.00000  Uiso   1.00
C50    C     0.15757   0.40974   0.27122   0.00000  Uiso   1.00
C51    C     0.11794   0.53792   0.36329   0.00000  Uiso   1.00
C52    C     0.33904   0.16542   0.14582   0.00000  Uiso   1.00
C53    C     0.39272   0.18370   0.08006   0.00000  Uiso   1.00
C54    C     0.48080   0.17079   0.09242   0.00000  Uiso   1.00
C55    C     0.62823   0.16062   0.08099   0.00000  Uiso   1.00
C56    C     0.20675   0.06683   0.17423   0.00000  Uiso   1.00
C57    C     0.14922   0.00219   0.13235   0.00000  Uiso   1.00
C58    C     0.12594   0.90626   0.16863   0.00000  Uiso   1.00
C59    C     0.06798   0.74301   0.20132   0.00000  Uiso   1.00
C60    C     0.30181   0.11948   0.28466   0.00000  Uiso   1.00
C61    C     0.25166   0.22438   0.28790   0.00000  Uiso   1.00
C62    C     0.23838   0.28633   0.35641   0.00000  Uiso   1.00
C63    C     0.19074   0.37958   0.34679   0.00000  Uiso   1.00
C64    C     0.37215   0.13532   0.22125   0.00000  Uiso   1.00
C65    C     0.46017   0.12237   0.23371   0.00000  Uiso   1.00
C66    C     0.51398   0.14063   0.16799   0.00000  Uiso   1.00
C67    C     0.23986   0.03672   0.24966   0.00000  Uiso   1.00
C68    C     0.21667   0.94087   0.28601   0.00000  Uiso   1.00
C69    C     0.15912   0.87610   0.24420   0.00000  Uiso   1.00
H70    H     0.21507   0.19834   0.08705   0.00000  Uiso   1.00
H71    H     0.14532   0.37093   0.14436   0.00000  Uiso   1.00
H72    H     0.36708   0.20698   0.02169   0.00000  Uiso   1.00
H73    H     0.12361   0.02551   0.07398   0.00000  Uiso   1.00
H74    H     0.08261   0.54902   0.24116   0.00000  Uiso   1.00
H75    H     0.55020   0.20330   0.98249   0.00000  Uiso   1.00
H76    H     0.03681   0.82062   0.09275   0.00000  Uiso   1.00
H77    H     0.32760   0.09604   0.34339   0.00000  Uiso   1.00
H78    H     0.26401   0.26302   0.41477   0.00000  Uiso   1.00
H79    H     0.48577   0.09907   0.29209   0.00000  Uiso   1.00
H80    H     0.24231   0.91760   0.34438   0.00000  Uiso   1.00
H81    H     0.17895   0.46144   0.46064   0.00000  Uiso   1.00
H82    H     0.64654   0.11571   0.20196   0.00000  Uiso   1.00
H83    H     0.13315   0.73304   0.31222   0.00000  Uiso   1.00
O84    O     0.08694   0.61694   0.39323   0.00000  Uiso   1.00
O85    O     0.70040   0.16334   0.05385   0.00000  Uiso   1.00
O86    O     0.02685   0.66129   0.19851   0.00000  Uiso   1.00
N87    N     0.11399   0.50548   0.28302   0.00000  Uiso   1.00
N88    N     0.55116   0.18227   0.04118   0.00000  Uiso   1.00
N89    N     0.07121   0.82449   0.14426   0.00000  Uiso   1.00
N90    N     0.16583   0.45835   0.40112   0.00000  Uiso   1.00
N91    N     0.60300   0.13514   0.15928   0.00000  Uiso   1.00
N92    N     0.12305   0.77736   0.26235   0.00000  Uiso   1.00
C93    C     0.25915   0.67491   0.64578   0.00000  Uiso   1.00
C94    C     0.28146   0.75449   0.71247   0.00000  Uiso   1.00
C95    C     0.32908   0.84766   0.70275   0.00000  Uiso   1.00
C96    C     0.34243   0.90974   0.77122   0.00000  Uiso   1.00
C97    C     0.38206   0.03792   0.86329   0.00000  Uiso   1.00
C98    C     0.16096   0.66542   0.64582   0.00000  Uiso   1.00
C99    C     0.10728   0.68370   0.58006   0.00000  Uiso   1.00
C100   C     0.01920   0.67079   0.59242   0.00000  Uiso   1.00
C101   C     0.87177   0.66062   0.58099   0.00000  Uiso   1.00
C102   C     0.29325   0.56683   0.67423   0.00000  Uiso   1.00
C103   C     0.35078   0.50219   0.63235   0.00000  Uiso   1.00
C104   C     0.37406   0.40626   0.66863   0.00000  Uiso   1.00
C105   C     0.43202   0.24301   0.70132   0.00000  Uiso   1.00
C106   C     0.19819   0.61948   0.78466   0.00000  Uiso   1.00
C107   C     0.24834   0.72438   0.78790   0.00000  Uiso   1.00
C108   C     0.26162   0.78633   0.85641   0.00000  Uiso   1.00
C109   C     0.30926   0.87958   0.84679   0.00000  Uiso   1.00
C110   C     0.12785   0.63532   0.72125   0.00000  Uiso   1.00
C111   C     0.03983   0.62237   0.73371   0.00000  Uiso   1.00
C112   C     0.98602   0.64063   0.66799   0.00000  Uiso   1.00
C113   C     0.26014   0.53672   0.74966   0.00000  Uiso   1.00
C114   C     0.28333   0.44087   0.78601   0.00000  Uiso   1.00
C115   C     0.34088   0.37610   0.74420   0.00000  Uiso   1.00
H116   H     0.28493   0.69834   0.58705   0.00000  Uiso   1.00
H117   H     0.35468   0.87093   0.64436   0.00000  Uiso   1.00
H118   H     0.13292   0.70698   0.52169   0.00000  Uiso   1.00
H119   H     0.37639   0.52551   0.57398   0.00000  Uiso   1.00
H120   H     0.41739   0.04902   0.74116   0.00000  Uiso   1.00
H121   H     0.94980   0.70330   0.48249   0.00000  Uiso   1.00
H122   H     0.46319   0.32062   0.59275   0.00000  Uiso   1.00
H123   H     0.17240   0.59604   0.84339   0.00000  Uiso   1.00
H124   H     0.23599   0.76302   0.91477   0.00000  Uiso   1.00
H125   H     0.01423   0.59907   0.79209   0.00000  Uiso   1.00
H126   H     0.25769   0.41760   0.84438   0.00000  Uiso   1.00
H127   H     0.32105   0.96144   0.96064   0.00000  Uiso   1.00
H128   H     0.85346   0.61571   0.70196   0.00000  Uiso   1.00
H129   H     0.36685   0.23304   0.81222   0.00000  Uiso   1.00
O130   O     0.41306   0.11694   0.89323   0.00000  Uiso   1.00
O131   O     0.79960   0.66334   0.55385   0.00000  Uiso   1.00
O132   O     0.47315   0.16129   0.69851   0.00000  Uiso   1.00
N133   N     0.38601   0.00548   0.78302   0.00000  Uiso   1.00
N134   N     0.94884   0.68227   0.54118   0.00000  Uiso   1.00
N135   N     0.42879   0.32449   0.64426   0.00000  Uiso   1.00
N136   N     0.33417   0.95835   0.90112   0.00000  Uiso   1.00
N137   N     0.89700   0.63514   0.65928   0.00000  Uiso   1.00
N138   N     0.37695   0.27736   0.76235   0.00000  Uiso   1.00
C139   C     0.74085   0.32509   0.64578   0.00000  Uiso   1.00
C140   C     0.71854   0.24551   0.71247   0.00000  Uiso   1.00
C141   C     0.67092   0.15234   0.70275   0.00000  Uiso   1.00
C142   C     0.65757   0.09026   0.77122   0.00000  Uiso   1.00
C143   C     0.61794   0.96208   0.86329   0.00000  Uiso   1.00
C144   C     0.83904   0.33458   0.64582   0.00000  Uiso   1.00
C145   C     0.89272   0.31630   0.58006   0.00000  Uiso   1.00
C146   C     0.98080   0.32921   0.59242   0.00000  Uiso   1.00
C147   C     0.12823   0.33938   0.58099   0.00000  Uiso   1.00
C148   C     0.70675   0.43317   0.67423   0.00000  Uiso   1.00
C149   C     0.64922   0.49781   0.63235   0.00000  Uiso   1.00
C150   C     0.62594   0.59374   0.66863   0.00000  Uiso   1.00
C151   C     0.56798   0.75699   0.70132   0.00000  Uiso   1.00
C152   C     0.80181   0.38052   0.78466   0.00000  Uiso   1.00
C153   C     0.75166   0.27562   0.78790   0.00000  Uiso   1.00
C154   C     0.73838   0.21367   0.85641   0.00000  Uiso   1.00
C155   C     0.69074   0.12042   0.84679   0.00000  Uiso   1.00
C156   C     0.87215   0.36468   0.72125   0.00000  Uiso   1.00
C157   C     0.96017   0.37763   0.73371   0.00000  Uiso   1.00
C158   C     0.01398   0.35937   0.66799   0.00000  Uiso   1.00
C159   C     0.73986   0.46328   0.74966   0.00000  Uiso   1.00
C160   C     0.71667   0.55913   0.78601   0.00000  Uiso   1.00
C161   C     0.65912   0.62390   0.74420   0.00000  Uiso   1.00
H162   H     0.71507   0.30166   0.58705   0.00000  Uiso   1.00
H163   H     0.64532   0.12907   0.64436   0.00000  Uiso   1.00
H164   H     0.86708   0.29302   0.52169   0.00000  Uiso   1.00
H165   H     0.62361   0.47449   0.57398   0.00000  Uiso   1.00
H166   H     0.58261   0.95098   0.74116   0.00000  Uiso   1.00
H167   H     0.05020   0.29670   0.48249   0.00000  Uiso   1.00
H168   H     0.53681   0.67938   0.59275   0.00000  Uiso   1.00
H169   H     0.82760   0.40396   0.84339   0.00000  Uiso   1.00
H170   H     0.76401   0.23698   0.91477   0.00000  Uiso   1.00
H171   H     0.98577   0.40093   0.79209   0.00000  Uiso   1.00
H172   H     0.74231   0.58240   0.84438   0.00000  Uiso   1.00
H173   H     0.67895   0.03856   0.96064   0.00000  Uiso   1.00
H174   H     0.14654   0.38429   0.70196   0.00000  Uiso   1.00
H175   H     0.63315   0.76696   0.81222   0.00000  Uiso   1.00
O176   O     0.58694   0.88306   0.89323   0.00000  Uiso   1.00
O177   O     0.20040   0.33666   0.55385   0.00000  Uiso   1.00
O178   O     0.52685   0.83871   0.69851   0.00000  Uiso   1.00
N179   N     0.61399   0.99452   0.78302   0.00000  Uiso   1.00
N180   N     0.05116   0.31773   0.54118   0.00000  Uiso   1.00
N181   N     0.57121   0.67551   0.64426   0.00000  Uiso   1.00
N182   N     0.66583   0.04165   0.90112   0.00000  Uiso   1.00
N183   N     0.10300   0.36486   0.65928   0.00000  Uiso   1.00
N184   N     0.62305   0.72264   0.76235   0.00000  Uiso   1.00
