data_job_01906
_audit_creation_date              2018-12-19
_audit_creation_method            'Materials Studio'
_symmetry_space_group_name_H-M    'P1'
_symmetry_Int_Tables_number       1
_symmetry_cell_setting            triclinic
loop_
_symmetry_equiv_pos_as_xyz
  x,y,z
_cell_length_a                    9.3635
_cell_length_b                    17.9935
_cell_length_c                    17.2004
_cell_angle_alpha                 90.0000
_cell_angle_beta                  110.1795
_cell_angle_gamma                 90.0000
loop_
_atom_site_label
_atom_site_type_symbol
_atom_site_fract_x
_atom_site_fract_y
_atom_site_fract_z
_atom_site_U_iso_or_equiv
_atom_site_adp_type
_atom_site_occupancy
C1     C     0.48716   0.54247   0.74504   0.00000  Uiso   1.00
C2     C     0.44129   0.62420   0.73642   0.00000  Uiso   1.00
C3     C     0.29331   0.65109   0.70754   0.00000  Uiso   1.00
C4     C     0.27519   0.72774   0.70432   0.00000  Uiso   1.00
C5     C     0.18488   0.84736   0.68713   0.00000  Uiso   1.00
C6     C     0.59144   0.53215   0.69459   0.00000  Uiso   1.00
C7     C     0.56972   0.48164   0.63055   0.00000  Uiso   1.00
C8     C     0.67802   0.48081   0.59213   0.00000  Uiso   1.00
C9     C     0.82089   0.45748   0.51003   0.00000  Uiso   1.00
C10    C     0.58705   0.53156   0.83539   0.00000  Uiso   1.00
C11    C     0.56166   0.48055   0.88972   0.00000  Uiso   1.00
C12    C     0.66629   0.47920   0.96984   0.00000  Uiso   1.00
C13    C     0.80233   0.45496   0.10634   0.00000  Uiso   1.00
C14    C     0.71815   0.63078   0.79069   0.00000  Uiso   1.00
C15    C     0.56675   0.67217   0.76121   0.00000  Uiso   1.00
C16    C     0.54886   0.74880   0.75804   0.00000  Uiso   1.00
C17    C     0.40088   0.77580   0.72916   0.00000  Uiso   1.00
C18    C     0.71690   0.58012   0.71938   0.00000  Uiso   1.00
C19    C     0.82527   0.57935   0.68105   0.00000  Uiso   1.00
C20    C     0.80371   0.52886   0.61697   0.00000  Uiso   1.00
C21    C     0.71251   0.57953   0.86018   0.00000  Uiso   1.00
C22    C     0.81721   0.57826   0.94022   0.00000  Uiso   1.00
C23    C     0.79198   0.52725   0.99467   0.00000  Uiso   1.00
H24    H     0.38949   0.50512   0.72574   0.00000  Uiso   1.00
H25    H     0.19624   0.61395   0.68835   0.00000  Uiso   1.00
H26    H     0.47262   0.44453   0.61138   0.00000  Uiso   1.00
H27    H     0.46456   0.44344   0.87051   0.00000  Uiso   1.00
H28    H     0.03732   0.75576   0.65781   0.00000  Uiso   1.00
H29    H     0.62011   0.39851   0.49553   0.00000  Uiso   1.00
H30    H     0.60311   0.39620   0.04196   0.00000  Uiso   1.00
H31    H     0.81583   0.66812   0.80999   0.00000  Uiso   1.00
H32    H     0.64597   0.78590   0.77723   0.00000  Uiso   1.00
H33    H     0.92235   0.61648   0.70026   0.00000  Uiso   1.00
H34    H     0.91429   0.61538   0.95939   0.00000  Uiso   1.00
H35    H     0.40234   0.89533   0.72994   0.00000  Uiso   1.00
H36    H     0.98513   0.53806   0.56767   0.00000  Uiso   1.00
H37    H     0.96812   0.53576   0.11410   0.00000  Uiso   1.00
O38    O     0.10040   0.90008   0.67078   0.00000  Uiso   1.00
O39    O     0.86501   0.43136   0.45789   0.00000  Uiso   1.00
O40    O     0.84269   0.42834   0.17479   0.00000  Uiso   1.00
N41    N     0.14654   0.77245   0.67930   0.00000  Uiso   1.00
N42    N     0.69140   0.43844   0.52757   0.00000  Uiso   1.00
N43    N     0.67552   0.43627   0.03843   0.00000  Uiso   1.00
N44    N     0.34295   0.84754   0.71812   0.00000  Uiso   1.00
N45    N     0.88781   0.51354   0.56639   0.00000  Uiso   1.00
N46    N     0.87194   0.51137   0.07724   0.00000  Uiso   1.00
C47    C     0.51284   0.04247   0.75496   0.00000  Uiso   1.00
C48    C     0.55871   0.12420   0.76358   0.00000  Uiso   1.00
C49    C     0.70669   0.15109   0.79246   0.00000  Uiso   1.00
C50    C     0.72481   0.22774   0.79568   0.00000  Uiso   1.00
C51    C     0.81512   0.34736   0.81287   0.00000  Uiso   1.00
C52    C     0.40856   0.03215   0.80541   0.00000  Uiso   1.00
C53    C     0.43028   0.98164   0.86945   0.00000  Uiso   1.00
C54    C     0.32198   0.98081   0.90787   0.00000  Uiso   1.00
C55    C     0.17911   0.95748   0.98997   0.00000  Uiso   1.00
C56    C     0.41295   0.03156   0.66461   0.00000  Uiso   1.00
C57    C     0.43834   0.98055   0.61028   0.00000  Uiso   1.00
C58    C     0.33371   0.97920   0.53016   0.00000  Uiso   1.00
C59    C     0.19767   0.95496   0.39366   0.00000  Uiso   1.00
C60    C     0.28185   0.13078   0.70931   0.00000  Uiso   1.00
C61    C     0.43325   0.17217   0.73879   0.00000  Uiso   1.00
C62    C     0.45114   0.24880   0.74196   0.00000  Uiso   1.00
C63    C     0.59912   0.27580   0.77084   0.00000  Uiso   1.00
C64    C     0.28310   0.08012   0.78062   0.00000  Uiso   1.00
C65    C     0.17473   0.07935   0.81895   0.00000  Uiso   1.00
C66    C     0.19629   0.02886   0.88303   0.00000  Uiso   1.00
C67    C     0.28749   0.07953   0.63982   0.00000  Uiso   1.00
C68    C     0.18279   0.07826   0.55978   0.00000  Uiso   1.00
C69    C     0.20802   0.02725   0.50533   0.00000  Uiso   1.00
H70    H     0.61051   0.00512   0.77426   0.00000  Uiso   1.00
H71    H     0.80376   0.11395   0.81165   0.00000  Uiso   1.00
H72    H     0.52738   0.94453   0.88862   0.00000  Uiso   1.00
H73    H     0.53544   0.94344   0.62949   0.00000  Uiso   1.00
H74    H     0.96268   0.25576   0.84219   0.00000  Uiso   1.00
H75    H     0.37989   0.89851   0.00447   0.00000  Uiso   1.00
H76    H     0.39689   0.89620   0.45804   0.00000  Uiso   1.00
H77    H     0.18417   0.16812   0.69001   0.00000  Uiso   1.00
H78    H     0.35403   0.28590   0.72277   0.00000  Uiso   1.00
H79    H     0.07765   0.11648   0.79974   0.00000  Uiso   1.00
H80    H     0.08571   0.11538   0.54061   0.00000  Uiso   1.00
H81    H     0.59766   0.39533   0.77006   0.00000  Uiso   1.00
H82    H     0.01487   0.03806   0.93233   0.00000  Uiso   1.00
H83    H     0.03188   0.03576   0.38590   0.00000  Uiso   1.00
O84    O     0.89960   0.40008   0.82922   0.00000  Uiso   1.00
O85    O     0.13499   0.93136   0.04211   0.00000  Uiso   1.00
O86    O     0.15731   0.92834   0.32521   0.00000  Uiso   1.00
N87    N     0.85346   0.27245   0.82070   0.00000  Uiso   1.00
N88    N     0.30860   0.93844   0.97243   0.00000  Uiso   1.00
N89    N     0.32448   0.93627   0.46157   0.00000  Uiso   1.00
N90    N     0.65705   0.34754   0.78188   0.00000  Uiso   1.00
N91    N     0.11219   0.01354   0.93361   0.00000  Uiso   1.00
N92    N     0.12806   0.01137   0.42276   0.00000  Uiso   1.00
C93    C     0.51284   0.45753   0.25496   0.00000  Uiso   1.00
C94    C     0.55871   0.37580   0.26358   0.00000  Uiso   1.00
C95    C     0.70669   0.34891   0.29246   0.00000  Uiso   1.00
C96    C     0.72481   0.27226   0.29568   0.00000  Uiso   1.00
C97    C     0.81512   0.15264   0.31287   0.00000  Uiso   1.00
C98    C     0.40856   0.46785   0.30541   0.00000  Uiso   1.00
C99    C     0.43028   0.51836   0.36945   0.00000  Uiso   1.00
C100   C     0.32198   0.51919   0.40787   0.00000  Uiso   1.00
C101   C     0.17911   0.54252   0.48997   0.00000  Uiso   1.00
C102   C     0.41295   0.46844   0.16461   0.00000  Uiso   1.00
C103   C     0.43834   0.51945   0.11028   0.00000  Uiso   1.00
C104   C     0.33371   0.52080   0.03016   0.00000  Uiso   1.00
C105   C     0.19767   0.54504   0.89366   0.00000  Uiso   1.00
C106   C     0.28185   0.36922   0.20931   0.00000  Uiso   1.00
C107   C     0.43325   0.32783   0.23879   0.00000  Uiso   1.00
C108   C     0.45114   0.25120   0.24196   0.00000  Uiso   1.00
C109   C     0.59912   0.22420   0.27084   0.00000  Uiso   1.00
C110   C     0.28310   0.41988   0.28062   0.00000  Uiso   1.00
C111   C     0.17473   0.42065   0.31895   0.00000  Uiso   1.00
C112   C     0.19629   0.47114   0.38303   0.00000  Uiso   1.00
C113   C     0.28749   0.42047   0.13982   0.00000  Uiso   1.00
C114   C     0.18279   0.42174   0.05978   0.00000  Uiso   1.00
C115   C     0.20802   0.47275   0.00533   0.00000  Uiso   1.00
H116   H     0.61051   0.49488   0.27426   0.00000  Uiso   1.00
H117   H     0.80376   0.38605   0.31165   0.00000  Uiso   1.00
H118   H     0.52738   0.55547   0.38862   0.00000  Uiso   1.00
H119   H     0.53544   0.55656   0.12949   0.00000  Uiso   1.00
H120   H     0.96268   0.24424   0.34219   0.00000  Uiso   1.00
H121   H     0.37989   0.60149   0.50447   0.00000  Uiso   1.00
H122   H     0.39689   0.60380   0.95804   0.00000  Uiso   1.00
H123   H     0.18417   0.33188   0.19001   0.00000  Uiso   1.00
H124   H     0.35403   0.21410   0.22277   0.00000  Uiso   1.00
H125   H     0.07765   0.38352   0.29974   0.00000  Uiso   1.00
H126   H     0.08571   0.38462   0.04061   0.00000  Uiso   1.00
H127   H     0.59766   0.10467   0.27006   0.00000  Uiso   1.00
H128   H     0.01487   0.46194   0.43233   0.00000  Uiso   1.00
H129   H     0.03188   0.46424   0.88590   0.00000  Uiso   1.00
O130   O     0.89960   0.09992   0.32922   0.00000  Uiso   1.00
O131   O     0.13499   0.56864   0.54211   0.00000  Uiso   1.00
O132   O     0.15731   0.57166   0.82521   0.00000  Uiso   1.00
N133   N     0.85346   0.22755   0.32070   0.00000  Uiso   1.00
N134   N     0.30860   0.56156   0.47243   0.00000  Uiso   1.00
N135   N     0.32448   0.56373   0.96157   0.00000  Uiso   1.00
N136   N     0.65705   0.15246   0.28188   0.00000  Uiso   1.00
N137   N     0.11219   0.48646   0.43361   0.00000  Uiso   1.00
N138   N     0.12806   0.48863   0.92276   0.00000  Uiso   1.00
C139   C     0.48716   0.95753   0.24504   0.00000  Uiso   1.00
C140   C     0.44129   0.87580   0.23642   0.00000  Uiso   1.00
C141   C     0.29331   0.84891   0.20754   0.00000  Uiso   1.00
C142   C     0.27519   0.77226   0.20432   0.00000  Uiso   1.00
C143   C     0.18488   0.65264   0.18713   0.00000  Uiso   1.00
C144   C     0.59144   0.96785   0.19459   0.00000  Uiso   1.00
C145   C     0.56972   0.01836   0.13055   0.00000  Uiso   1.00
C146   C     0.67802   0.01919   0.09213   0.00000  Uiso   1.00
C147   C     0.82089   0.04252   0.01003   0.00000  Uiso   1.00
C148   C     0.58705   0.96844   0.33539   0.00000  Uiso   1.00
C149   C     0.56166   0.01945   0.38972   0.00000  Uiso   1.00
C150   C     0.66629   0.02080   0.46984   0.00000  Uiso   1.00
C151   C     0.80233   0.04504   0.60634   0.00000  Uiso   1.00
C152   C     0.71815   0.86922   0.29069   0.00000  Uiso   1.00
C153   C     0.56675   0.82783   0.26121   0.00000  Uiso   1.00
C154   C     0.54886   0.75120   0.25804   0.00000  Uiso   1.00
C155   C     0.40088   0.72420   0.22916   0.00000  Uiso   1.00
C156   C     0.71690   0.91988   0.21938   0.00000  Uiso   1.00
C157   C     0.82527   0.92065   0.18105   0.00000  Uiso   1.00
C158   C     0.80371   0.97114   0.11697   0.00000  Uiso   1.00
C159   C     0.71251   0.92047   0.36018   0.00000  Uiso   1.00
C160   C     0.81721   0.92174   0.44022   0.00000  Uiso   1.00
C161   C     0.79198   0.97275   0.49467   0.00000  Uiso   1.00
H162   H     0.38949   0.99488   0.22574   0.00000  Uiso   1.00
H163   H     0.19624   0.88605   0.18835   0.00000  Uiso   1.00
H164   H     0.47262   0.05547   0.11138   0.00000  Uiso   1.00
H165   H     0.46456   0.05656   0.37051   0.00000  Uiso   1.00
H166   H     0.03732   0.74424   0.15781   0.00000  Uiso   1.00
H167   H     0.62011   0.10149   0.99553   0.00000  Uiso   1.00
H168   H     0.60311   0.10380   0.54196   0.00000  Uiso   1.00
H169   H     0.81583   0.83188   0.30999   0.00000  Uiso   1.00
H170   H     0.64597   0.71410   0.27723   0.00000  Uiso   1.00
H171   H     0.92235   0.88352   0.20026   0.00000  Uiso   1.00
H172   H     0.91429   0.88462   0.45939   0.00000  Uiso   1.00
H173   H     0.40234   0.60467   0.22994   0.00000  Uiso   1.00
H174   H     0.98513   0.96194   0.06767   0.00000  Uiso   1.00
H175   H     0.96812   0.96424   0.61410   0.00000  Uiso   1.00
O176   O     0.10040   0.59992   0.17078   0.00000  Uiso   1.00
O177   O     0.86501   0.06864   0.95789   0.00000  Uiso   1.00
O178   O     0.84269   0.07166   0.67479   0.00000  Uiso   1.00
N179   N     0.14654   0.72755   0.17930   0.00000  Uiso   1.00
N180   N     0.69140   0.06156   0.02757   0.00000  Uiso   1.00
N181   N     0.67552   0.06373   0.53843   0.00000  Uiso   1.00
N182   N     0.34295   0.65246   0.21812   0.00000  Uiso   1.00
N183   N     0.88781   0.98646   0.06639   0.00000  Uiso   1.00
N184   N     0.87194   0.98863   0.57724   0.00000  Uiso   1.00
