data_job_06765
_audit_creation_date              2018-12-19
_audit_creation_method            'Materials Studio'
_symmetry_space_group_name_H-M    'P1'
_symmetry_Int_Tables_number       1
_symmetry_cell_setting            triclinic
loop_
_symmetry_equiv_pos_as_xyz
  x,y,z
_cell_length_a                    19.0115
_cell_length_b                    23.2464
_cell_length_c                    25.0425
_cell_angle_alpha                 115.5103
_cell_angle_beta                  80.1473
_cell_angle_gamma                 104.2957
loop_
_atom_site_label
_atom_site_type_symbol
_atom_site_fract_x
_atom_site_fract_y
_atom_site_fract_z
_atom_site_U_iso_or_equiv
_atom_site_adp_type
_atom_site_occupancy
C1     C     0.44243   0.99384   0.63037   0.00000  Uiso   1.00
C2     C     0.42843   0.94041   0.65299   0.00000  Uiso   1.00
C3     C     0.46570   0.88966   0.63267   0.00000  Uiso   1.00
C4     C     0.44471   0.84576   0.65908   0.00000  Uiso   1.00
C5     C     0.43149   0.76177   0.68732   0.00000  Uiso   1.00
C6     C     0.36999   0.99163   0.61047   0.00000  Uiso   1.00
C7     C     0.35815   0.98394   0.55440   0.00000  Uiso   1.00
C8     C     0.28796   0.98318   0.54502   0.00000  Uiso   1.00
C9     C     0.18405   0.97874   0.50727   0.00000  Uiso   1.00
C10    C     0.45789   0.05791   0.68455   0.00000  Uiso   1.00
C11    C     0.51994   0.10597   0.69076   0.00000  Uiso   1.00
C12    C     0.52375   0.16102   0.74375   0.00000  Uiso   1.00
C13    C     0.55630   0.25950   0.82101   0.00000  Uiso   1.00
C14    C     0.33885   0.00615   0.71340   0.00000  Uiso   1.00
C15    C     0.37216   0.94710   0.69809   0.00000  Uiso   1.00
C16    C     0.35111   0.90328   0.72454   0.00000  Uiso   1.00
C17    C     0.38835   0.85246   0.70426   0.00000  Uiso   1.00
C18    C     0.31373   0.99832   0.65557   0.00000  Uiso   1.00
C19    C     0.24355   0.99756   0.64627   0.00000  Uiso   1.00
C20    C     0.23160   0.98987   0.59020   0.00000  Uiso   1.00
C21    C     0.40163   0.06460   0.72965   0.00000  Uiso   1.00
C22    C     0.40534   0.11959   0.78263   0.00000  Uiso   1.00
C23    C     0.46738   0.16772   0.78893   0.00000  Uiso   1.00
H24    H     0.48623   0.98864   0.59526   0.00000  Uiso   1.00
H25    H     0.50924   0.88449   0.59777   0.00000  Uiso   1.00
H26    H     0.40170   0.97878   0.51951   0.00000  Uiso   1.00
H27    H     0.56346   0.10078   0.65586   0.00000  Uiso   1.00
H28    H     0.50991   0.77197   0.62042   0.00000  Uiso   1.00
H29    H     0.28317   0.97079   0.45543   0.00000  Uiso   1.00
H30    H     0.62428   0.22806   0.74293   0.00000  Uiso   1.00
H31    H     0.29505   0.01136   0.74852   0.00000  Uiso   1.00
H32    H     0.30757   0.90846   0.75944   0.00000  Uiso   1.00
H33    H     0.20003   0.00274   0.68118   0.00000  Uiso   1.00
H34    H     0.36179   0.12475   0.81752   0.00000  Uiso   1.00
H35    H     0.34623   0.79142   0.75164   0.00000  Uiso   1.00
H36    H     0.11949   0.99024   0.58664   0.00000  Uiso   1.00
H37    H     0.46060   0.24751   0.87414   0.00000  Uiso   1.00
O38    O     0.43974   0.71358   0.69044   0.00000  Uiso   1.00
O39    O     0.14227   0.97444   0.47397   0.00000  Uiso   1.00
O40    O     0.58980   0.31197   0.85117   0.00000  Uiso   1.00
N41    N     0.46968   0.79068   0.64981   0.00000  Uiso   1.00
N42    N     0.25769   0.97655   0.49555   0.00000  Uiso   1.00
N43    N     0.57659   0.21708   0.76433   0.00000  Uiso   1.00
N44    N     0.38161   0.80114   0.72042   0.00000  Uiso   1.00
N45    N     0.16961   0.98702   0.56616   0.00000  Uiso   1.00
N46    N     0.48852   0.22755   0.83494   0.00000  Uiso   1.00
C47    C     0.03044   0.99908   0.28923   0.00000  Uiso   1.00
C48    C     0.03431   0.98819   0.22433   0.00000  Uiso   1.00
C49    C     0.06532   0.94092   0.17677   0.00000  Uiso   1.00
C50    C     0.06338   0.93891   0.12081   0.00000  Uiso   1.00
C51    C     0.07426   0.91537   0.02126   0.00000  Uiso   1.00
C52    C     0.06682   0.06972   0.32238   0.00000  Uiso   1.00
C53    C     0.12514   0.09099   0.35727   0.00000  Uiso   1.00
C54    C     0.15056   0.15761   0.38386   0.00000  Uiso   1.00
C55    C     0.21187   0.26065   0.43656   0.00000  Uiso   1.00
C56    C     0.95008   0.99449   0.31085   0.00000  Uiso   1.00
C57    C     0.91024   0.95252   0.33606   0.00000  Uiso   1.00
C58    C     0.83738   0.95582   0.35295   0.00000  Uiso   1.00
C59    C     0.71742   0.94206   0.38776   0.00000  Uiso   1.00
C60    C     0.97187   0.07958   0.27443   0.00000  Uiso   1.00
C61    C     0.00250   0.03192   0.21629   0.00000  Uiso   1.00
C62    C     0.00052   0.02998   0.16039   0.00000  Uiso   1.00
C63    C     0.03151   0.98271   0.11275   0.00000  Uiso   1.00
C64    C     0.03501   0.11344   0.31434   0.00000  Uiso   1.00
C65    C     0.06034   0.18005   0.34088   0.00000  Uiso   1.00
C66    C     0.11869   0.20142   0.37580   0.00000  Uiso   1.00
C67    C     0.91826   0.03821   0.30280   0.00000  Uiso   1.00
C68    C     0.84544   0.04158   0.31967   0.00000  Uiso   1.00
C69    C     0.80551   0.99962   0.34490   0.00000  Uiso   1.00
H70    H     0.05522   0.96504   0.29550   0.00000  Uiso   1.00
H71    H     0.08994   0.90709   0.18302   0.00000  Uiso   1.00
H72    H     0.14975   0.05714   0.36349   0.00000  Uiso   1.00
H73    H     0.93488   0.91869   0.34228   0.00000  Uiso   1.00
H74    H     0.11443   0.86214   0.05476   0.00000  Uiso   1.00
H75    H     0.24052   0.17853   0.43532   0.00000  Uiso   1.00
H76    H     0.78744   0.88658   0.39059   0.00000  Uiso   1.00
H77    H     0.94711   0.11362   0.26816   0.00000  Uiso   1.00
H78    H     0.97589   0.06382   0.15418   0.00000  Uiso   1.00
H79    H     0.03570   0.21387   0.33465   0.00000  Uiso   1.00
H80    H     0.82084   0.07542   0.31344   0.00000  Uiso   1.00
H81    H     0.02187   0.98935   0.03135   0.00000  Uiso   1.00
H82    H     0.14796   0.30574   0.41191   0.00000  Uiso   1.00
H83    H     0.69488   0.01379   0.36718   0.00000  Uiso   1.00
O84    O     0.08906   0.89032   0.96857   0.00000  Uiso   1.00
O85    O     0.25448   0.30541   0.46785   0.00000  Uiso   1.00
O86    O     0.66005   0.92238   0.40917   0.00000  Uiso   1.00
N87    N     0.08868   0.89891   0.06489   0.00000  Uiso   1.00
N88    N     0.20658   0.19471   0.42068   0.00000  Uiso   1.00
N89    N     0.78299   0.92178   0.37888   0.00000  Uiso   1.00
N90    N     0.03888   0.96736   0.05230   0.00000  Uiso   1.00
N91    N     0.15677   0.26316   0.40809   0.00000  Uiso   1.00
N92    N     0.73318   0.99023   0.36629   0.00000  Uiso   1.00
C93    C     0.52756   0.43517   0.60566   0.00000  Uiso   1.00
C94    C     0.52905   0.36768   0.55646   0.00000  Uiso   1.00
C95    C     0.47138   0.32663   0.52293   0.00000  Uiso   1.00
C96    C     0.48368   0.26686   0.48005   0.00000  Uiso   1.00
C97    C     0.47571   0.16478   0.40505   0.00000  Uiso   1.00
C98    C     0.54946   0.43376   0.66083   0.00000  Uiso   1.00
C99    C     0.50895   0.44829   0.71504   0.00000  Uiso   1.00
C100   C     0.53843   0.44416   0.76002   0.00000  Uiso   1.00
C101   C     0.56216   0.44473   0.84705   0.00000  Uiso   1.00
C102   C     0.58941   0.48135   0.58837   0.00000  Uiso   1.00
C103   C     0.58250   0.53590   0.58169   0.00000  Uiso   1.00
C104   C     0.64562   0.57185   0.56568   0.00000  Uiso   1.00
C105   C     0.73139   0.64631   0.54022   0.00000  Uiso   1.00
C106   C     0.65194   0.40202   0.58914   0.00000  Uiso   1.00
C107   C     0.59661   0.34967   0.54749   0.00000  Uiso   1.00
C108   C     0.60900   0.28995   0.50465   0.00000  Uiso   1.00
C109   C     0.55136   0.24882   0.47106   0.00000  Uiso   1.00
C110   C     0.61701   0.41576   0.65186   0.00000  Uiso   1.00
C111   C     0.64657   0.41161   0.69676   0.00000  Uiso   1.00
C112   C     0.60611   0.42612   0.75103   0.00000  Uiso   1.00
C113   C     0.65697   0.46335   0.57940   0.00000  Uiso   1.00
C114   C     0.72012   0.49922   0.56340   0.00000  Uiso   1.00
C115   C     0.71331   0.55381   0.55669   0.00000  Uiso   1.00
H116   H     0.47496   0.44919   0.61265   0.00000  Uiso   1.00
H117   H     0.41910   0.34058   0.52989   0.00000  Uiso   1.00
H118   H     0.45667   0.46223   0.72198   0.00000  Uiso   1.00
H119   H     0.53021   0.54982   0.58863   0.00000  Uiso   1.00
H120   H     0.38697   0.21221   0.43420   0.00000  Uiso   1.00
H121   H     0.46619   0.46873   0.83922   0.00000  Uiso   1.00
H122   H     0.62126   0.65345   0.55805   0.00000  Uiso   1.00
H123   H     0.70455   0.38800   0.58215   0.00000  Uiso   1.00
H124   H     0.66129   0.27603   0.49772   0.00000  Uiso   1.00
H125   H     0.69885   0.39768   0.68980   0.00000  Uiso   1.00
H126   H     0.77239   0.48527   0.55646   0.00000  Uiso   1.00
H127   H     0.58353   0.15982   0.40808   0.00000  Uiso   1.00
H128   H     0.66275   0.41635   0.81311   0.00000  Uiso   1.00
H129   H     0.81782   0.60106   0.53193   0.00000  Uiso   1.00
O130   O     0.45264   0.11345   0.36616   0.00000  Uiso   1.00
O131   O     0.55658   0.45001   0.89754   0.00000  Uiso   1.00
O132   O     0.76003   0.69235   0.52864   0.00000  Uiso   1.00
N133   N     0.43917   0.21525   0.43963   0.00000  Uiso   1.00
N134   N     0.51323   0.45508   0.81830   0.00000  Uiso   1.00
N135   N     0.65821   0.62778   0.55544   0.00000  Uiso   1.00
N136   N     0.54494   0.18706   0.42558   0.00000  Uiso   1.00
N137   N     0.61900   0.42689   0.80425   0.00000  Uiso   1.00
N138   N     0.76398   0.59959   0.54139   0.00000  Uiso   1.00
C139   C     0.91377   0.99391   0.68296   0.00000  Uiso   1.00
C140   C     0.97202   0.95837   0.68161   0.00000  Uiso   1.00
C141   C     0.99832   0.96027   0.73085   0.00000  Uiso   1.00
C142   C     0.05160   0.92437   0.72028   0.00000  Uiso   1.00
C143   C     0.13806   0.87470   0.72698   0.00000  Uiso   1.00
C144   C     0.85408   0.94186   0.64599   0.00000  Uiso   1.00
C145   C     0.78121   0.92990   0.66528   0.00000  Uiso   1.00
C146   C     0.73521   0.88011   0.62472   0.00000  Uiso   1.00
C147   C     0.63856   0.80485   0.57610   0.00000  Uiso   1.00
C148   C     0.94800   0.03551   0.64839   0.00000  Uiso   1.00
C149   C     0.95409   0.10227   0.66969   0.00000  Uiso   1.00
C150   C     0.98715   0.13133   0.63113   0.00000  Uiso   1.00
C151   C     0.03633   0.20146   0.58624   0.00000  Uiso   1.00
C152   C     0.96162   0.92679   0.57661   0.00000  Uiso   1.00
C153   C     0.99801   0.92191   0.62384   0.00000  Uiso   1.00
C154   C     0.05127   0.88601   0.61319   0.00000  Uiso   1.00
C155   C     0.07764   0.88785   0.66241   0.00000  Uiso   1.00
C156   C     0.88007   0.90541   0.58823   0.00000  Uiso   1.00
C157   C     0.83416   0.85564   0.54762   0.00000  Uiso   1.00
C158   C     0.76125   0.84359   0.56685   0.00000  Uiso   1.00
C159   C     0.97399   0.99905   0.59062   0.00000  Uiso   1.00
C160   C     0.00704   0.02801   0.55202   0.00000  Uiso   1.00
C161   C     0.01319   0.09480   0.57326   0.00000  Uiso   1.00
H162   H     0.89353   0.02229   0.72793   0.00000  Uiso   1.00
H163   H     0.97818   0.98848   0.77555   0.00000  Uiso   1.00
H164   H     0.76112   0.95812   0.70998   0.00000  Uiso   1.00
H165   H     0.93397   0.13047   0.71439   0.00000  Uiso   1.00
H166   H     0.08348   0.93489   0.80287   0.00000  Uiso   1.00
H167   H     0.62578   0.87089   0.66462   0.00000  Uiso   1.00
H168   H     0.99027   0.23432   0.67391   0.00000  Uiso   1.00
H169   H     0.98186   0.89841   0.53163   0.00000  Uiso   1.00
H170   H     0.07137   0.85780   0.56848   0.00000  Uiso   1.00
H171   H     0.85429   0.82744   0.50292   0.00000  Uiso   1.00
H172   H     0.02715   0.99978   0.50733   0.00000  Uiso   1.00
H173   H     0.15911   0.82883   0.63481   0.00000  Uiso   1.00
H174   H     0.70140   0.76482   0.49656   0.00000  Uiso   1.00
H175   H     0.06590   0.12825   0.50585   0.00000  Uiso   1.00
O176   O     0.17857   0.85736   0.74663   0.00000  Uiso   1.00
O177   O     0.57807   0.77340   0.56524   0.00000  Uiso   1.00
O178   O     0.05628   0.25021   0.57743   0.00000  Uiso   1.00
N179   N     0.08901   0.91552   0.75826   0.00000  Uiso   1.00
N180   N     0.66108   0.85567   0.62901   0.00000  Uiso   1.00
N181   N     0.00184   0.19544   0.63769   0.00000  Uiso   1.00
N182   N     0.12971   0.85844   0.66783   0.00000  Uiso   1.00
N183   N     0.70178   0.79860   0.53858   0.00000  Uiso   1.00
N184   N     0.04253   0.13837   0.54726   0.00000  Uiso   1.00
C185   C     0.72359   0.06427   0.03067   0.00000  Uiso   1.00
C186   C     0.69316   0.03173   0.07346   0.00000  Uiso   1.00
C187   C     0.73293   0.00675   0.09711   0.00000  Uiso   1.00
C188   C     0.69507   0.97891   0.13546   0.00000  Uiso   1.00
C189   C     0.65923   0.92882   0.19977   0.00000  Uiso   1.00
C190   C     0.70364   0.13136   0.06005   0.00000  Uiso   1.00
C191   C     0.75221   0.19014   0.07242   0.00000  Uiso   1.00
C192   C     0.72316   0.24617   0.09947   0.00000  Uiso   1.00
C193   C     0.70358   0.35075   0.14293   0.00000  Uiso   1.00
C194   C     0.67943   0.02631   0.97635   0.00000  Uiso   1.00
C195   C     0.70764   0.99678   0.91833   0.00000  Uiso   1.00
C196   C     0.65821   0.96438   0.87490   0.00000  Uiso   1.00
C197   C     0.60104   0.90586   0.78840   0.00000  Uiso   1.00
C198   C     0.58563   0.05926   0.05672   0.00000  Uiso   1.00
C199   C     0.61823   0.02901   0.08761   0.00000  Uiso   1.00
C200   C     0.58029   0.00120   0.12593   0.00000  Uiso   1.00
C201   C     0.62000   0.97618   0.14963   0.00000  Uiso   1.00
C202   C     0.62870   0.12864   0.07420   0.00000  Uiso   1.00
C203   C     0.59957   0.18460   0.10124   0.00000  Uiso   1.00
C204   C     0.64809   0.24345   0.11365   0.00000  Uiso   1.00
C205   C     0.60449   0.02359   0.99049   0.00000  Uiso   1.00
C206   C     0.55500   0.99123   0.94715   0.00000  Uiso   1.00
C207   C     0.58314   0.96166   0.88908   0.00000  Uiso   1.00
H208   H     0.78193   0.06640   0.01966   0.00000  Uiso   1.00
H209   H     0.79092   0.00887   0.08616   0.00000  Uiso   1.00
H210   H     0.81020   0.19223   0.06146   0.00000  Uiso   1.00
H211   H     0.76564   0.99890   0.90740   0.00000  Uiso   1.00
H212   H     0.76785   0.94391   0.16614   0.00000  Uiso   1.00
H213   H     0.80849   0.33053   0.11405   0.00000  Uiso   1.00
H214   H     0.71453   0.92286   0.78918   0.00000  Uiso   1.00
H215   H     0.52728   0.05715   0.06773   0.00000  Uiso   1.00
H216   H     0.52230   0.99910   0.13687   0.00000  Uiso   1.00
H217   H     0.54158   0.18247   0.11218   0.00000  Uiso   1.00
H218   H     0.49702   0.98914   0.95811   0.00000  Uiso   1.00
H219   H     0.54983   0.93599   0.20730   0.00000  Uiso   1.00
H220   H     0.59047   0.32261   0.15521   0.00000  Uiso   1.00
H221   H     0.49650   0.91494   0.83034   0.00000  Uiso   1.00
O222   O     0.66016   0.90195   0.23135   0.00000  Uiso   1.00
O223   O     0.71348   0.40919   0.16300   0.00000  Uiso   1.00
O224   O     0.59020   0.87433   0.73678   0.00000  Uiso   1.00
N225   N     0.71722   0.95000   0.16633   0.00000  Uiso   1.00
N226   N     0.75522   0.31147   0.11764   0.00000  Uiso   1.00
N227   N     0.66737   0.93034   0.81391   0.00000  Uiso   1.00
N228   N     0.59991   0.94573   0.18848   0.00000  Uiso   1.00
N229   N     0.63790   0.30721   0.13979   0.00000  Uiso   1.00
N230   N     0.55005   0.92608   0.83605   0.00000  Uiso   1.00
C231   C     0.81121   0.59756   0.17332   0.00000  Uiso   1.00
C232   C     0.85137   0.55407   0.11829   0.00000  Uiso   1.00
C233   C     0.81923   0.49841   0.07272   0.00000  Uiso   1.00
C234   C     0.86539   0.46538   0.02625   0.00000  Uiso   1.00
C235   C     0.91624   0.39453   0.94090   0.00000  Uiso   1.00
C236   C     0.83402   0.66565   0.17430   0.00000  Uiso   1.00
C237   C     0.78729   0.70382   0.17584   0.00000  Uiso   1.00
C238   C     0.81885   0.76473   0.17653   0.00000  Uiso   1.00
C239   C     0.84276   0.86714   0.17819   0.00000  Uiso   1.00
C240   C     0.84359   0.60059   0.22635   0.00000  Uiso   1.00
C241   C     0.80491   0.58406   0.27166   0.00000  Uiso   1.00
C242   C     0.84453   0.59020   0.31618   0.00000  Uiso   1.00
C243   C     0.88331   0.59158   0.39865   0.00000  Uiso   1.00
C244   C     0.95034   0.63786   0.17183   0.00000  Uiso   1.00
C245   C     0.92694   0.57596   0.11747   0.00000  Uiso   1.00
C246   C     0.97316   0.54300   0.07106   0.00000  Uiso   1.00
C247   C     0.94109   0.48730   0.02543   0.00000  Uiso   1.00
C248   C     0.90958   0.68754   0.17349   0.00000  Uiso   1.00
C249   C     0.94121   0.74841   0.17418   0.00000  Uiso   1.00
C250   C     0.89455   0.78666   0.17572   0.00000  Uiso   1.00
C251   C     0.91916   0.62247   0.22554   0.00000  Uiso   1.00
C252   C     0.95884   0.62865   0.27000   0.00000  Uiso   1.00
C253   C     0.92023   0.61213   0.31536   0.00000  Uiso   1.00
H254   H     0.75238   0.58052   0.17395   0.00000  Uiso   1.00
H255   H     0.76075   0.48149   0.07336   0.00000  Uiso   1.00
H256   H     0.72881   0.68687   0.17647   0.00000  Uiso   1.00
H257   H     0.74644   0.56713   0.27227   0.00000  Uiso   1.00
H258   H     0.80335   0.38136   0.96146   0.00000  Uiso   1.00
H259   H     0.73601   0.81443   0.17890   0.00000  Uiso   1.00
H260   H     0.77317   0.56192   0.38091   0.00000  Uiso   1.00
H261   H     0.00917   0.65491   0.17119   0.00000  Uiso   1.00
H262   H     0.03163   0.55995   0.07045   0.00000  Uiso   1.00
H263   H     0.99970   0.76533   0.17356   0.00000  Uiso   1.00
H264   H     0.01732   0.64559   0.26936   0.00000  Uiso   1.00
H265   H     0.02321   0.44504   0.95910   0.00000  Uiso   1.00
H266   H     0.95587   0.87811   0.17654   0.00000  Uiso   1.00
H267   H     0.99303   0.62560   0.37855   0.00000  Uiso   1.00
O268   O     0.92342   0.34941   0.89404   0.00000  Uiso   1.00
O269   O     0.83507   0.91758   0.17933   0.00000  Uiso   1.00
O270   O     0.88383   0.58629   0.44436   0.00000  Uiso   1.00
N271   N     0.85201   0.40937   0.97474   0.00000  Uiso   1.00
N272   N     0.78905   0.81426   0.17802   0.00000  Uiso   1.00
N273   N     0.82379   0.57820   0.36689   0.00000  Uiso   1.00
N274   N     0.97031   0.44364   0.97346   0.00000  Uiso   1.00
N275   N     0.90736   0.84853   0.17675   0.00000  Uiso   1.00
N276   N     0.94210   0.61247   0.36562   0.00000  Uiso   1.00
C277   C     0.36975   0.23753   0.06928   0.00000  Uiso   1.00
C278   C     0.44582   0.24002   0.03775   0.00000  Uiso   1.00
C279   C     0.48801   0.29274   0.02750   0.00000  Uiso   1.00
C280   C     0.55613   0.28536   0.99792   0.00000  Uiso   1.00
C281   C     0.67046   0.29808   0.95182   0.00000  Uiso   1.00
C282   C     0.37393   0.21998   0.12058   0.00000  Uiso   1.00
C283   C     0.35567   0.25584   0.17998   0.00000  Uiso   1.00
C284   C     0.36328   0.23158   0.22012   0.00000  Uiso   1.00
C285   C     0.36596   0.21316   0.30261   0.00000  Uiso   1.00
C286   C     0.32100   0.17935   0.02599   0.00000  Uiso   1.00
C287   C     0.25822   0.18104   0.00587   0.00000  Uiso   1.00
C288   C     0.22124   0.12257   0.96638   0.00000  Uiso   1.00
C289   C     0.14172   0.04106   0.90202   0.00000  Uiso   1.00
C290   C     0.41570   0.13067   0.03495   0.00000  Uiso   1.00
C291   C     0.47077   0.18198   0.01910   0.00000  Uiso   1.00
C292   C     0.53885   0.17452   0.98952   0.00000  Uiso   1.00
C293   C     0.58114   0.22722   0.97923   0.00000  Uiso   1.00
C294   C     0.39889   0.16194   0.10193   0.00000  Uiso   1.00
C295   C     0.40652   0.13762   0.14200   0.00000  Uiso   1.00
C296   C     0.38828   0.17344   0.20144   0.00000  Uiso   1.00
C297   C     0.34595   0.12131   0.00734   0.00000  Uiso   1.00
C298   C     0.30906   0.06282   0.96789   0.00000  Uiso   1.00
C299   C     0.24624   0.06443   0.94770   0.00000  Uiso   1.00
H300   H     0.35032   0.28271   0.08380   0.00000  Uiso   1.00
H301   H     0.46867   0.33765   0.04194   0.00000  Uiso   1.00
H302   H     0.33635   0.30075   0.19439   0.00000  Uiso   1.00
H303   H     0.23892   0.22596   0.02031   0.00000  Uiso   1.00
H304   H     0.61092   0.37297   0.98734   0.00000  Uiso   1.00
H305   H     0.33189   0.29516   0.30878   0.00000  Uiso   1.00
H306   H     0.12642   0.13746   0.94169   0.00000  Uiso   1.00
H307   H     0.43514   0.08549   0.02043   0.00000  Uiso   1.00
H308   H     0.55815   0.12960   0.97510   0.00000  Uiso   1.00
H309   H     0.42583   0.09271   0.12755   0.00000  Uiso   1.00
H310   H     0.32839   0.01792   0.95347   0.00000  Uiso   1.00
H311   H     0.68354   0.20411   0.93309   0.00000  Uiso   1.00
H312   H     0.40451   0.12630   0.25453   0.00000  Uiso   1.00
H313   H     0.19904   0.96860   0.88744   0.00000  Uiso   1.00
O314   O     0.72663   0.32113   0.93155   0.00000  Uiso   1.00
O315   O     0.36054   0.21904   0.35327   0.00000  Uiso   1.00
O316   O     0.09098   0.01214   0.87166   0.00000  Uiso   1.00
N317   N     0.61112   0.32717   0.98078   0.00000  Uiso   1.00
N318   N     0.35026   0.25443   0.28131   0.00000  Uiso   1.00
N319   N     0.15815   0.10699   0.93813   0.00000  Uiso   1.00
N320   N     0.65020   0.23631   0.95159   0.00000  Uiso   1.00
N321   N     0.38934   0.16357   0.25212   0.00000  Uiso   1.00
N322   N     0.19723   0.01612   0.90893   0.00000  Uiso   1.00
C323   C     0.73291   0.25504   0.64491   0.00000  Uiso   1.00
C324   C     0.74974   0.22406   0.68276   0.00000  Uiso   1.00
C325   C     0.74895   0.25164   0.74421   0.00000  Uiso   1.00
C326   C     0.76591   0.21550   0.77053   0.00000  Uiso   1.00
C327   C     0.78942   0.17674   0.83447   0.00000  Uiso   1.00
C328   C     0.67123   0.20677   0.60771   0.00000  Uiso   1.00
C329   C     0.60442   0.21983   0.60605   0.00000  Uiso   1.00
C330   C     0.55530   0.16913   0.56918   0.00000  Uiso   1.00
C331   C     0.45692   0.10355   0.51658   0.00000  Uiso   1.00
C332   C     0.79935   0.25668   0.60141   0.00000  Uiso   1.00
C333   C     0.84027   0.31170   0.59442   0.00000  Uiso   1.00
C334   C     0.89901   0.30302   0.55223   0.00000  Uiso   1.00
C335   C     0.99957   0.31493   0.48984   0.00000  Uiso   1.00
C336   C     0.76444   0.14181   0.58239   0.00000  Uiso   1.00
C337   C     0.76687   0.16255   0.64880   0.00000  Uiso   1.00
C338   C     0.78384   0.12637   0.67503   0.00000  Uiso   1.00
C339   C     0.78308   0.15389   0.73651   0.00000  Uiso   1.00
C340   C     0.68835   0.14527   0.57376   0.00000  Uiso   1.00
C341   C     0.63932   0.09455   0.53688   0.00000  Uiso   1.00
C342   C     0.57246   0.10752   0.53516   0.00000  Uiso   1.00
C343   C     0.81649   0.19518   0.56745   0.00000  Uiso   1.00
C344   C     0.87517   0.18642   0.52525   0.00000  Uiso   1.00
C345   C     0.91617   0.24141   0.51821   0.00000  Uiso   1.00
H346   H     0.71957   0.30292   0.67135   0.00000  Uiso   1.00
H347   H     0.73568   0.29924   0.77047   0.00000  Uiso   1.00
H348   H     0.59119   0.26743   0.63233   0.00000  Uiso   1.00
H349   H     0.82700   0.35928   0.62071   0.00000  Uiso   1.00
H350   H     0.76108   0.26802   0.86540   0.00000  Uiso   1.00
H351   H     0.45641   0.20096   0.57410   0.00000  Uiso   1.00
H352   H     0.95367   0.39465   0.54960   0.00000  Uiso   1.00
H353   H     0.77778   0.09392   0.55595   0.00000  Uiso   1.00
H354   H     0.79710   0.07877   0.64874   0.00000  Uiso   1.00
H355   H     0.65259   0.04696   0.51060   0.00000  Uiso   1.00
H356   H     0.88841   0.13882   0.49898   0.00000  Uiso   1.00
H357   H     0.81093   0.08908   0.76660   0.00000  Uiso   1.00
H358   H     0.50625   0.02202   0.47530   0.00000  Uiso   1.00
H359   H     0.00351   0.21571   0.45080   0.00000  Uiso   1.00
O360   O     0.79764   0.17235   0.87912   0.00000  Uiso   1.00
O361   O     0.39792   0.08437   0.49695   0.00000  Uiso   1.00
O362   O     0.05031   0.33849   0.46480   0.00000  Uiso   1.00
N363   N     0.77018   0.22799   0.82941   0.00000  Uiso   1.00
N364   N     0.48532   0.16529   0.55707   0.00000  Uiso   1.00
N365   N     0.95020   0.34637   0.53415   0.00000  Uiso   1.00
N366   N     0.79700   0.13171   0.77625   0.00000  Uiso   1.00
N367   N     0.51214   0.06900   0.50391   0.00000  Uiso   1.00
N368   N     0.97702   0.25009   0.48099   0.00000  Uiso   1.00
C369   C     0.27555   0.85190   0.25015   0.00000  Uiso   1.00
C370   C     0.22328   0.82814   0.29312   0.00000  Uiso   1.00
C371   C     0.15808   0.84799   0.31954   0.00000  Uiso   1.00
C372   C     0.11805   0.82051   0.35753   0.00000  Uiso   1.00
C373   C     0.03316   0.79054   0.42253   0.00000  Uiso   1.00
C374   C     0.28517   0.79126   0.19411   0.00000  Uiso   1.00
C375   C     0.27202   0.78011   0.13730   0.00000  Uiso   1.00
C376   C     0.28410   0.72158   0.09194   0.00000  Uiso   1.00
C377   C     0.29535   0.63438   0.00323   0.00000  Uiso   1.00
C378   C     0.34893   0.87866   0.27724   0.00000  Uiso   1.00
C379   C     0.38941   0.94099   0.29030   0.00000  Uiso   1.00
C380   C     0.45518   0.95605   0.31491   0.00000  Uiso   1.00
C381   C     0.56543   0.00456   0.35527   0.00000  Uiso   1.00
C382   C     0.32040   0.76780   0.27062   0.00000  Uiso   1.00
C383   C     0.24764   0.78246   0.30423   0.00000  Uiso   1.00
C384   C     0.20770   0.75494   0.34219   0.00000  Uiso   1.00
C385   C     0.14245   0.77475   0.36867   0.00000  Uiso   1.00
C386   C     0.30952   0.74558   0.20523   0.00000  Uiso   1.00
C387   C     0.32163   0.68706   0.15994   0.00000  Uiso   1.00
C388   C     0.30850   0.67582   0.10307   0.00000  Uiso   1.00
C389   C     0.37329   0.83298   0.28836   0.00000  Uiso   1.00
C390   C     0.43902   0.84795   0.31295   0.00000  Uiso   1.00
C391   C     0.47958   0.91029   0.32605   0.00000  Uiso   1.00
H392   H     0.25659   0.88746   0.24149   0.00000  Uiso   1.00
H393   H     0.13925   0.88334   0.31092   0.00000  Uiso   1.00
H394   H     0.25318   0.81547   0.12871   0.00000  Uiso   1.00
H395   H     0.37054   0.97633   0.28169   0.00000  Uiso   1.00
H396   H     0.01988   0.85861   0.39279   0.00000  Uiso   1.00
H397   H     0.26013   0.71551   0.00857   0.00000  Uiso   1.00
H398   H     0.50762   0.05472   0.33116   0.00000  Uiso   1.00
H399   H     0.33936   0.73223   0.27927   0.00000  Uiso   1.00
H400   H     0.22656   0.71959   0.35078   0.00000  Uiso   1.00
H401   H     0.34049   0.65172   0.16856   0.00000  Uiso   1.00
H402   H     0.45785   0.81258   0.32154   0.00000  Uiso   1.00
H403   H     0.09075   0.72570   0.42514   0.00000  Uiso   1.00
H404   H     0.33099   0.58260   0.04092   0.00000  Uiso   1.00
H405   H     0.57848   0.92181   0.36351   0.00000  Uiso   1.00
O406   O     0.97961   0.78662   0.45531   0.00000  Uiso   1.00
O407   O     0.29481   0.59889   0.95123   0.00000  Uiso   1.00
O408   O     0.61951   0.04393   0.37446   0.00000  Uiso   1.00
N409   N     0.05205   0.82907   0.39060   0.00000  Uiso   1.00
N410   N     0.27665   0.69528   0.03138   0.00000  Uiso   1.00
N411   N     0.50804   0.01241   0.33296   0.00000  Uiso   1.00
N412   N     0.09018   0.75756   0.40801   0.00000  Uiso   1.00
N413   N     0.31478   0.62376   0.04879   0.00000  Uiso   1.00
N414   N     0.54618   0.94089   0.35037   0.00000  Uiso   1.00
C415   C     0.85634   0.32476   0.23798   0.00000  Uiso   1.00
C416   C     0.89629   0.35436   0.29451   0.00000  Uiso   1.00
C417   C     0.90732   0.41934   0.33371   0.00000  Uiso   1.00
C418   C     0.94520   0.43675   0.38286   0.00000  Uiso   1.00
C419   C     0.00332   0.48971   0.46918   0.00000  Uiso   1.00
C420   C     0.90976   0.29144   0.18775   0.00000  Uiso   1.00
C421   C     0.93209   0.30352   0.13718   0.00000  Uiso   1.00
C422   C     0.98130   0.26795   0.09645   0.00000  Uiso   1.00
C423   C     0.06029   0.22320   0.01699   0.00000  Uiso   1.00
C424   C     0.79564   0.27048   0.24373   0.00000  Uiso   1.00
C425   C     0.72202   0.26490   0.24021   0.00000  Uiso   1.00
C426   C     0.67515   0.21168   0.24659   0.00000  Uiso   1.00
C427   C     0.57695   0.13438   0.25405   0.00000  Uiso   1.00
C428   C     0.90399   0.24013   0.25557   0.00000  Uiso   1.00
C429   C     0.92217   0.30839   0.30406   0.00000  Uiso   1.00
C430   C     0.96004   0.32571   0.35317   0.00000  Uiso   1.00
C431   C     0.97112   0.39070   0.39243   0.00000  Uiso   1.00
C432   C     0.93564   0.24548   0.19730   0.00000  Uiso   1.00
C433   C     0.98482   0.20989   0.15664   0.00000  Uiso   1.00
C434   C     0.00723   0.22191   0.10602   0.00000  Uiso   1.00
C435   C     0.82152   0.22451   0.25328   0.00000  Uiso   1.00
C436   C     0.77475   0.17128   0.25967   0.00000  Uiso   1.00
C437   C     0.70108   0.16563   0.25616   0.00000  Uiso   1.00
H438   H     0.83619   0.36054   0.23054   0.00000  Uiso   1.00
H439   H     0.88729   0.45489   0.32630   0.00000  Uiso   1.00
H440   H     0.91205   0.33908   0.12980   0.00000  Uiso   1.00
H441   H     0.70202   0.30048   0.23281   0.00000  Uiso   1.00
H442   H     0.95537   0.53923   0.43667   0.00000  Uiso   1.00
H443   H     0.00757   0.29503   0.02232   0.00000  Uiso   1.00
H444   H     0.56467   0.21363   0.23955   0.00000  Uiso   1.00
H445   H     0.92414   0.20434   0.26300   0.00000  Uiso   1.00
H446   H     0.98006   0.29013   0.36055   0.00000  Uiso   1.00
H447   H     0.00483   0.17432   0.16404   0.00000  Uiso   1.00
H448   H     0.79479   0.13572   0.26706   0.00000  Uiso   1.00
H449   H     0.03068   0.40550   0.46447   0.00000  Uiso   1.00
H450   H     0.08287   0.16130   0.05011   0.00000  Uiso   1.00
H451   H     0.63997   0.07990   0.26734   0.00000  Uiso   1.00
O452   O     0.02824   0.53162   0.51414   0.00000  Uiso   1.00
O453   O     0.09671   0.21123   0.97053   0.00000  Uiso   1.00
O454   O     0.51564   0.10444   0.25553   0.00000  Uiso   1.00
N455   N     0.96541   0.49599   0.42983   0.00000  Uiso   1.00
N456   N     0.01422   0.26768   0.04244   0.00000  Uiso   1.00
N457   N     0.60014   0.19157   0.24552   0.00000  Uiso   1.00
N458   N     0.00593   0.42403   0.44479   0.00000  Uiso   1.00
N459   N     0.05474   0.19572   0.05740   0.00000  Uiso   1.00
N460   N     0.64066   0.11961   0.26047   0.00000  Uiso   1.00
C461   C     0.16037   0.29016   0.78068   0.00000  Uiso   1.00
C462   C     0.19480   0.25394   0.71907   0.00000  Uiso   1.00
C463   C     0.18417   0.25765   0.66726   0.00000  Uiso   1.00
C464   C     0.22056   0.22074   0.61539   0.00000  Uiso   1.00
C465   C     0.26709   0.17044   0.51972   0.00000  Uiso   1.00
C466   C     0.12018   0.23827   0.80289   0.00000  Uiso   1.00
C467   C     0.04682   0.22880   0.82156   0.00000  Uiso   1.00
C468   C     0.02040   0.17871   0.84025   0.00000  Uiso   1.00
C469   C     0.95110   0.10410   0.87475   0.00000  Uiso   1.00
C470   C     0.22336   0.32884   0.82009   0.00000  Uiso   1.00
C471   C     0.23675   0.39553   0.85324   0.00000  Uiso   1.00
C472   C     0.29720   0.42169   0.88644   0.00000  Uiso   1.00
C473   C     0.38811   0.48771   0.94765   0.00000  Uiso   1.00
C474   C     0.24390   0.21804   0.78069   0.00000  Uiso   1.00
C475   C     0.24016   0.21477   0.71908   0.00000  Uiso   1.00
C476   C     0.27658   0.17785   0.66727   0.00000  Uiso   1.00
C477   C     0.26602   0.18150   0.61539   0.00000  Uiso   1.00
C478   C     0.16554   0.19910   0.80289   0.00000  Uiso   1.00
C479   C     0.13923   0.14901   0.82157   0.00000  Uiso   1.00
C480   C     0.06585   0.13947   0.84026   0.00000  Uiso   1.00
C481   C     0.26873   0.28967   0.82010   0.00000  Uiso   1.00
C482   C     0.32917   0.31574   0.85325   0.00000  Uiso   1.00
C483   C     0.34265   0.38245   0.88644   0.00000  Uiso   1.00
H484   H     0.12504   0.32066   0.78068   0.00000  Uiso   1.00
H485   H     0.14905   0.28796   0.66727   0.00000  Uiso   1.00
H486   H     0.01172   0.25913   0.82155   0.00000  Uiso   1.00
H487   H     0.20163   0.42583   0.85323   0.00000  Uiso   1.00
H488   H     0.19565   0.23442   0.54154   0.00000  Uiso   1.00
H489   H     0.90610   0.17363   0.86687   0.00000  Uiso   1.00
H490   H     0.30655   0.52515   0.93367   0.00000  Uiso   1.00
H491   H     0.27922   0.18754   0.78069   0.00000  Uiso   1.00
H492   H     0.31169   0.14754   0.66729   0.00000  Uiso   1.00
H493   H     0.17436   0.11871   0.82157   0.00000  Uiso   1.00
H494   H     0.36427   0.28541   0.85324   0.00000  Uiso   1.00
H495   H     0.32765   0.12045   0.54155   0.00000  Uiso   1.00
H496   H     0.03810   0.05967   0.86689   0.00000  Uiso   1.00
H497   H     0.43856   0.41118   0.93368   0.00000  Uiso   1.00
O498   O     0.28021   0.15351   0.46694   0.00000  Uiso   1.00
O499   O     0.90033   0.07377   0.89377   0.00000  Uiso   1.00
O500   O     0.42572   0.53495   0.98140   0.00000  Uiso   1.00
N501   N     0.22227   0.21310   0.55711   0.00000  Uiso   1.00
N502   N     0.95156   0.15626   0.86126   0.00000  Uiso   1.00
N503   N     0.32594   0.48490   0.92372   0.00000  Uiso   1.00
N504   N     0.29330   0.15177   0.55712   0.00000  Uiso   1.00
N505   N     0.02258   0.09493   0.86127   0.00000  Uiso   1.00
N506   N     0.39697   0.42357   0.92373   0.00000  Uiso   1.00
C507   C     0.81188   0.79373   0.71219   0.00000  Uiso   1.00
C508   C     0.74833   0.74225   0.71954   0.00000  Uiso   1.00
C509   C     0.67571   0.73844   0.71409   0.00000  Uiso   1.00
C510   C     0.62580   0.68770   0.72246   0.00000  Uiso   1.00
C511   C     0.52378   0.61467   0.73187   0.00000  Uiso   1.00
C512   C     0.85009   0.82504   0.76970   0.00000  Uiso   1.00
C513   C     0.86304   0.89085   0.80643   0.00000  Uiso   1.00
C514   C     0.89881   0.90980   0.85702   0.00000  Uiso   1.00
C515   C     0.95481   0.96530   0.94428   0.00000  Uiso   1.00
C516   C     0.86497   0.75681   0.66417   0.00000  Uiso   1.00
C517   C     0.89046   0.76525   0.61217   0.00000  Uiso   1.00
C518   C     0.93876   0.72677   0.57392   0.00000  Uiso   1.00
C519   C     0.01787   0.67633   0.49733   0.00000  Uiso   1.00
C520   C     0.85237   0.71040   0.73674   0.00000  Uiso   1.00
C521   C     0.77033   0.69699   0.73287   0.00000  Uiso   1.00
C522   C     0.72051   0.64624   0.74125   0.00000  Uiso   1.00
C523   C     0.64784   0.64235   0.73582   0.00000  Uiso   1.00
C524   C     0.87208   0.77978   0.78303   0.00000  Uiso   1.00
C525   C     0.90784   0.79864   0.83358   0.00000  Uiso   1.00
C526   C     0.92084   0.86445   0.87038   0.00000  Uiso   1.00
C527   C     0.88697   0.71154   0.67750   0.00000  Uiso   1.00
C528   C     0.93525   0.67304   0.63933   0.00000  Uiso   1.00
C529   C     0.96080   0.68142   0.58728   0.00000  Uiso   1.00
H530   H     0.79476   0.82898   0.70182   0.00000  Uiso   1.00
H531   H     0.65871   0.77349   0.70378   0.00000  Uiso   1.00
H532   H     0.84602   0.92586   0.79610   0.00000  Uiso   1.00
H533   H     0.87342   0.80028   0.60187   0.00000  Uiso   1.00
H534   H     0.51758   0.69201   0.71186   0.00000  Uiso   1.00
H535   H     0.91255   0.01331   0.90650   0.00000  Uiso   1.00
H536   H     0.97033   0.74850   0.49694   0.00000  Uiso   1.00
H537   H     0.86950   0.67516   0.74712   0.00000  Uiso   1.00
H538   H     0.73755   0.61122   0.75156   0.00000  Uiso   1.00
H539   H     0.92486   0.76360   0.84388   0.00000  Uiso   1.00
H540   H     0.95226   0.63802   0.64966   0.00000  Uiso   1.00
H541   H     0.58156   0.56031   0.75064   0.00000  Uiso   1.00
H542   H     0.97654   0.88161   0.94529   0.00000  Uiso   1.00
H543   H     0.03432   0.61680   0.53572   0.00000  Uiso   1.00
O544   O     0.46142   0.58689   0.73338   0.00000  Uiso   1.00
O545   O     0.97962   0.00842   0.98873   0.00000  Uiso   1.00
O546   O     0.05543   0.66100   0.45140   0.00000  Uiso   1.00
N547   N     0.55075   0.66978   0.72036   0.00000  Uiso   1.00
N548   N     0.92001   0.97018   0.90235   0.00000  Uiso   1.00
N549   N     0.97405   0.72262   0.51945   0.00000  Uiso   1.00
N550   N     0.58518   0.59891   0.74123   0.00000  Uiso   1.00
N551   N     0.95444   0.89931   0.92322   0.00000  Uiso   1.00
N552   N     0.00848   0.65175   0.54032   0.00000  Uiso   1.00
