data_job_02593
_audit_creation_date              2018-12-19
_audit_creation_method            'Materials Studio'
_symmetry_space_group_name_H-M    'P1'
_symmetry_Int_Tables_number       1
_symmetry_cell_setting            triclinic
loop_
_symmetry_equiv_pos_as_xyz
  x,y,z
_cell_length_a                    32.2022
_cell_length_b                    32.2022
_cell_length_c                    7.0767
_cell_angle_alpha                 90.0000
_cell_angle_beta                  90.0000
_cell_angle_gamma                 120.0000
loop_
_atom_site_label
_atom_site_type_symbol
_atom_site_fract_x
_atom_site_fract_y
_atom_site_fract_z
_atom_site_U_iso_or_equiv
_atom_site_adp_type
_atom_site_occupancy
C1     C     0.30798   0.83048   0.01183   0.00000  Uiso   1.00
C2     C     0.25647   0.79508   0.95440   0.00000  Uiso   1.00
C3     C     0.21699   0.77556   0.07378   0.00000  Uiso   1.00
C4     C     0.17291   0.74382   0.99401   0.00000  Uiso   1.00
C5     C     0.09360   0.69061   0.93410   0.00000  Uiso   1.00
C6     C     0.33756   0.80748   0.95459   0.00000  Uiso   1.00
C7     C     0.36627   0.79841   0.07415   0.00000  Uiso   1.00
C8     C     0.39046   0.77712   0.99453   0.00000  Uiso   1.00
C9     C     0.43707   0.74321   0.93490   0.00000  Uiso   1.00
C10    C     0.32437   0.87404   0.88391   0.00000  Uiso   1.00
C11    C     0.34199   0.92093   0.94403   0.00000  Uiso   1.00
C12    C     0.35508   0.95569   0.80489   0.00000  Uiso   1.00
C13    C     0.38121   0.02512   0.63553   0.00000  Uiso   1.00
C14    C     0.29989   0.80882   0.65784   0.00000  Uiso   1.00
C15    C     0.25208   0.78331   0.76213   0.00000  Uiso   1.00
C16    C     0.20804   0.75160   0.68214   0.00000  Uiso   1.00
C17    C     0.16850   0.73204   0.80139   0.00000  Uiso   1.00
C18    C     0.33317   0.79572   0.76233   0.00000  Uiso   1.00
C19    C     0.35732   0.77445   0.68251   0.00000  Uiso   1.00
C20    C     0.38606   0.76534   0.80192   0.00000  Uiso   1.00
C21    C     0.31997   0.86228   0.69164   0.00000  Uiso   1.00
C22    C     0.33304   0.89697   0.55239   0.00000  Uiso   1.00
C23    C     0.35068   0.94390   0.61228   0.00000  Uiso   1.00
H24    H     0.31140   0.83964   0.16151   0.00000  Uiso   1.00
H25    H     0.22041   0.78467   0.22257   0.00000  Uiso   1.00
H26    H     0.36967   0.80752   0.22293   0.00000  Uiso   1.00
H27    H     0.34539   0.93002   0.09283   0.00000  Uiso   1.00
H28    H     0.11759   0.71852   0.20549   0.00000  Uiso   1.00
H29    H     0.43232   0.76672   0.20623   0.00000  Uiso   1.00
H30    H     0.38113   0.02504   0.93189   0.00000  Uiso   1.00
H31    H     0.29647   0.79967   0.50815   0.00000  Uiso   1.00
H32    H     0.20465   0.74250   0.53335   0.00000  Uiso   1.00
H33    H     0.35391   0.76535   0.53372   0.00000  Uiso   1.00
H34    H     0.32964   0.88785   0.40361   0.00000  Uiso   1.00
H35    H     0.10480   0.68429   0.64610   0.00000  Uiso   1.00
H36    H     0.41954   0.73249   0.64684   0.00000  Uiso   1.00
H37    H     0.36834   0.99081   0.37249   0.00000  Uiso   1.00
O38    O     0.05106   0.66451   0.95418   0.00000  Uiso   1.00
O39    O     0.46399   0.72775   0.95515   0.00000  Uiso   1.00
O40    O     0.39683   0.06666   0.59521   0.00000  Uiso   1.00
N41    N     0.12718   0.71832   0.07037   0.00000  Uiso   1.00
N42    N     0.42143   0.76337   0.07107   0.00000  Uiso   1.00
N43    N     0.37358   0.00488   0.81458   0.00000  Uiso   1.00
N44    N     0.12030   0.69990   0.76937   0.00000  Uiso   1.00
N45    N     0.41455   0.74496   0.77007   0.00000  Uiso   1.00
N46    N     0.36670   0.98647   0.51358   0.00000  Uiso   1.00
C47    C     0.16952   0.47750   0.34516   0.00000  Uiso   1.00
C48    C     0.20492   0.46139   0.28773   0.00000  Uiso   1.00
C49    C     0.22444   0.44143   0.40712   0.00000  Uiso   1.00
C50    C     0.25618   0.42909   0.32734   0.00000  Uiso   1.00
C51    C     0.30939   0.40298   0.26743   0.00000  Uiso   1.00
C52    C     0.19252   0.53008   0.28793   0.00000  Uiso   1.00
C53    C     0.20159   0.56786   0.40748   0.00000  Uiso   1.00
C54    C     0.22288   0.61333   0.32786   0.00000  Uiso   1.00
C55    C     0.25679   0.69386   0.26824   0.00000  Uiso   1.00
C56    C     0.12596   0.45032   0.21725   0.00000  Uiso   1.00
C57    C     0.07907   0.42106   0.27736   0.00000  Uiso   1.00
C58    C     0.04431   0.39940   0.13823   0.00000  Uiso   1.00
C59    C     0.97488   0.35609   0.96886   0.00000  Uiso   1.00
C60    C     0.19118   0.49107   0.99118   0.00000  Uiso   1.00
C61    C     0.21669   0.46877   0.09546   0.00000  Uiso   1.00
C62    C     0.24840   0.45644   0.01548   0.00000  Uiso   1.00
C63    C     0.26796   0.43647   0.13473   0.00000  Uiso   1.00
C64    C     0.20428   0.53745   0.09567   0.00000  Uiso   1.00
C65    C     0.22555   0.58287   0.01585   0.00000  Uiso   1.00
C66    C     0.23466   0.62072   0.13525   0.00000  Uiso   1.00
C67    C     0.13772   0.45769   0.02497   0.00000  Uiso   1.00
C68    C     0.10303   0.43607   0.88572   0.00000  Uiso   1.00
C69    C     0.05610   0.40678   0.94561   0.00000  Uiso   1.00
H70    H     0.16036   0.47176   0.49485   0.00000  Uiso   1.00
H71    H     0.21533   0.43574   0.55591   0.00000  Uiso   1.00
H72    H     0.19248   0.56215   0.55626   0.00000  Uiso   1.00
H73    H     0.06998   0.41537   0.42616   0.00000  Uiso   1.00
H74    H     0.28148   0.39907   0.53883   0.00000  Uiso   1.00
H75    H     0.23328   0.66560   0.53957   0.00000  Uiso   1.00
H76    H     0.97496   0.35609   0.26522   0.00000  Uiso   1.00
H77    H     0.20033   0.49680   0.84148   0.00000  Uiso   1.00
H78    H     0.25750   0.46215   0.86668   0.00000  Uiso   1.00
H79    H     0.23465   0.58856   0.86705   0.00000  Uiso   1.00
H80    H     0.11215   0.44178   0.73695   0.00000  Uiso   1.00
H81    H     0.31571   0.42051   0.97943   0.00000  Uiso   1.00
H82    H     0.26751   0.68704   0.98017   0.00000  Uiso   1.00
H83    H     0.00919   0.37753   0.70583   0.00000  Uiso   1.00
O84    O     0.33549   0.38656   0.28751   0.00000  Uiso   1.00
O85    O     0.27225   0.73624   0.28848   0.00000  Uiso   1.00
O86    O     0.93334   0.33017   0.92855   0.00000  Uiso   1.00
N87    N     0.28168   0.40886   0.40370   0.00000  Uiso   1.00
N88    N     0.23663   0.65806   0.40441   0.00000  Uiso   1.00
N89    N     0.99512   0.36870   0.14792   0.00000  Uiso   1.00
N90    N     0.30010   0.42040   0.10270   0.00000  Uiso   1.00
N91    N     0.25504   0.66959   0.10340   0.00000  Uiso   1.00
N92    N     0.01353   0.38024   0.84691   0.00000  Uiso   1.00
C93    C     0.52250   0.69202   0.67849   0.00000  Uiso   1.00
C94    C     0.53861   0.74353   0.62106   0.00000  Uiso   1.00
C95    C     0.55857   0.78301   0.74045   0.00000  Uiso   1.00
C96    C     0.57091   0.82709   0.66068   0.00000  Uiso   1.00
C97    C     0.59702   0.90640   0.60077   0.00000  Uiso   1.00
C98    C     0.46992   0.66244   0.62126   0.00000  Uiso   1.00
C99    C     0.43214   0.63373   0.74082   0.00000  Uiso   1.00
C100   C     0.38667   0.60954   0.66120   0.00000  Uiso   1.00
C101   C     0.30614   0.56293   0.60157   0.00000  Uiso   1.00
C102   C     0.54968   0.67563   0.55058   0.00000  Uiso   1.00
C103   C     0.57894   0.65801   0.61070   0.00000  Uiso   1.00
C104   C     0.60060   0.64492   0.47156   0.00000  Uiso   1.00
C105   C     0.64391   0.61879   0.30219   0.00000  Uiso   1.00
C106   C     0.50893   0.70011   0.32451   0.00000  Uiso   1.00
C107   C     0.53123   0.74792   0.42879   0.00000  Uiso   1.00
C108   C     0.54356   0.79196   0.34881   0.00000  Uiso   1.00
C109   C     0.56353   0.83150   0.46806   0.00000  Uiso   1.00
C110   C     0.46255   0.66683   0.42900   0.00000  Uiso   1.00
C111   C     0.41713   0.64268   0.34918   0.00000  Uiso   1.00
C112   C     0.37928   0.61394   0.46858   0.00000  Uiso   1.00
C113   C     0.54231   0.68003   0.35831   0.00000  Uiso   1.00
C114   C     0.56393   0.66696   0.21906   0.00000  Uiso   1.00
C115   C     0.59322   0.64932   0.27895   0.00000  Uiso   1.00
H116   H     0.52824   0.68860   0.82818   0.00000  Uiso   1.00
H117   H     0.56426   0.77959   0.88924   0.00000  Uiso   1.00
H118   H     0.43785   0.63033   0.88959   0.00000  Uiso   1.00
H119   H     0.58463   0.65461   0.75949   0.00000  Uiso   1.00
H120   H     0.60093   0.88241   0.87216   0.00000  Uiso   1.00
H121   H     0.33440   0.56768   0.87290   0.00000  Uiso   1.00
H122   H     0.64391   0.61887   0.59856   0.00000  Uiso   1.00
H123   H     0.50320   0.70353   0.17482   0.00000  Uiso   1.00
H124   H     0.53785   0.79535   0.20002   0.00000  Uiso   1.00
H125   H     0.41144   0.64609   0.20038   0.00000  Uiso   1.00
H126   H     0.55822   0.67036   0.07028   0.00000  Uiso   1.00
H127   H     0.57949   0.89520   0.31276   0.00000  Uiso   1.00
H128   H     0.31296   0.58046   0.31351   0.00000  Uiso   1.00
H129   H     0.62247   0.63166   0.03916   0.00000  Uiso   1.00
O130   O     0.61344   0.94894   0.62084   0.00000  Uiso   1.00
O131   O     0.26376   0.53601   0.62181   0.00000  Uiso   1.00
O132   O     0.66983   0.60317   0.26188   0.00000  Uiso   1.00
N133   N     0.59114   0.87282   0.73704   0.00000  Uiso   1.00
N134   N     0.34194   0.57857   0.73774   0.00000  Uiso   1.00
N135   N     0.63130   0.62642   0.48125   0.00000  Uiso   1.00
N136   N     0.57960   0.87970   0.43603   0.00000  Uiso   1.00
N137   N     0.33041   0.58545   0.43673   0.00000  Uiso   1.00
N138   N     0.61976   0.63330   0.18024   0.00000  Uiso   1.00
C139   C     0.69202   0.16952   0.51183   0.00000  Uiso   1.00
C140   C     0.74353   0.20492   0.45440   0.00000  Uiso   1.00
C141   C     0.78301   0.22444   0.57378   0.00000  Uiso   1.00
C142   C     0.82709   0.25618   0.49401   0.00000  Uiso   1.00
C143   C     0.90640   0.30939   0.43410   0.00000  Uiso   1.00
C144   C     0.66244   0.19252   0.45459   0.00000  Uiso   1.00
C145   C     0.63373   0.20159   0.57415   0.00000  Uiso   1.00
C146   C     0.60954   0.22288   0.49453   0.00000  Uiso   1.00
C147   C     0.56293   0.25679   0.43490   0.00000  Uiso   1.00
C148   C     0.67563   0.12596   0.38391   0.00000  Uiso   1.00
C149   C     0.65801   0.07907   0.44403   0.00000  Uiso   1.00
C150   C     0.64492   0.04431   0.30489   0.00000  Uiso   1.00
C151   C     0.61879   0.97488   0.13553   0.00000  Uiso   1.00
C152   C     0.70011   0.19118   0.15784   0.00000  Uiso   1.00
C153   C     0.74792   0.21669   0.26213   0.00000  Uiso   1.00
C154   C     0.79196   0.24840   0.18214   0.00000  Uiso   1.00
C155   C     0.83150   0.26796   0.30139   0.00000  Uiso   1.00
C156   C     0.66683   0.20428   0.26233   0.00000  Uiso   1.00
C157   C     0.64268   0.22555   0.18251   0.00000  Uiso   1.00
C158   C     0.61394   0.23466   0.30192   0.00000  Uiso   1.00
C159   C     0.68003   0.13772   0.19164   0.00000  Uiso   1.00
C160   C     0.66696   0.10303   0.05239   0.00000  Uiso   1.00
C161   C     0.64932   0.05610   0.11228   0.00000  Uiso   1.00
H162   H     0.68860   0.16036   0.66151   0.00000  Uiso   1.00
H163   H     0.77959   0.21533   0.72257   0.00000  Uiso   1.00
H164   H     0.63033   0.19248   0.72293   0.00000  Uiso   1.00
H165   H     0.65461   0.06998   0.59283   0.00000  Uiso   1.00
H166   H     0.88241   0.28148   0.70549   0.00000  Uiso   1.00
H167   H     0.56768   0.23328   0.70623   0.00000  Uiso   1.00
H168   H     0.61887   0.97496   0.43189   0.00000  Uiso   1.00
H169   H     0.70353   0.20033   0.00815   0.00000  Uiso   1.00
H170   H     0.79535   0.25750   0.03335   0.00000  Uiso   1.00
H171   H     0.64609   0.23465   0.03372   0.00000  Uiso   1.00
H172   H     0.67036   0.11215   0.90361   0.00000  Uiso   1.00
H173   H     0.89520   0.31571   0.14610   0.00000  Uiso   1.00
H174   H     0.58046   0.26751   0.14684   0.00000  Uiso   1.00
H175   H     0.63166   0.00919   0.87249   0.00000  Uiso   1.00
O176   O     0.94894   0.33549   0.45418   0.00000  Uiso   1.00
O177   O     0.53601   0.27225   0.45515   0.00000  Uiso   1.00
O178   O     0.60317   0.93334   0.09521   0.00000  Uiso   1.00
N179   N     0.87282   0.28168   0.57037   0.00000  Uiso   1.00
N180   N     0.57857   0.23663   0.57107   0.00000  Uiso   1.00
N181   N     0.62642   0.99512   0.31458   0.00000  Uiso   1.00
N182   N     0.87970   0.30010   0.26937   0.00000  Uiso   1.00
N183   N     0.58545   0.25504   0.27007   0.00000  Uiso   1.00
N184   N     0.63330   0.01353   0.01358   0.00000  Uiso   1.00
C185   C     0.83048   0.52250   0.84516   0.00000  Uiso   1.00
C186   C     0.79508   0.53861   0.78773   0.00000  Uiso   1.00
C187   C     0.77556   0.55857   0.90712   0.00000  Uiso   1.00
C188   C     0.74382   0.57091   0.82734   0.00000  Uiso   1.00
C189   C     0.69061   0.59702   0.76743   0.00000  Uiso   1.00
C190   C     0.80748   0.46992   0.78793   0.00000  Uiso   1.00
C191   C     0.79841   0.43214   0.90748   0.00000  Uiso   1.00
C192   C     0.77712   0.38667   0.82786   0.00000  Uiso   1.00
C193   C     0.74321   0.30614   0.76824   0.00000  Uiso   1.00
C194   C     0.87404   0.54968   0.71725   0.00000  Uiso   1.00
C195   C     0.92093   0.57894   0.77736   0.00000  Uiso   1.00
C196   C     0.95569   0.60060   0.63823   0.00000  Uiso   1.00
C197   C     0.02512   0.64391   0.46886   0.00000  Uiso   1.00
C198   C     0.80882   0.50893   0.49118   0.00000  Uiso   1.00
C199   C     0.78331   0.53123   0.59546   0.00000  Uiso   1.00
C200   C     0.75160   0.54356   0.51548   0.00000  Uiso   1.00
C201   C     0.73204   0.56353   0.63473   0.00000  Uiso   1.00
C202   C     0.79572   0.46255   0.59567   0.00000  Uiso   1.00
C203   C     0.77445   0.41713   0.51585   0.00000  Uiso   1.00
C204   C     0.76534   0.37928   0.63525   0.00000  Uiso   1.00
C205   C     0.86228   0.54231   0.52497   0.00000  Uiso   1.00
C206   C     0.89697   0.56393   0.38572   0.00000  Uiso   1.00
C207   C     0.94390   0.59322   0.44561   0.00000  Uiso   1.00
H208   H     0.83964   0.52824   0.99485   0.00000  Uiso   1.00
H209   H     0.78467   0.56426   0.05591   0.00000  Uiso   1.00
H210   H     0.80752   0.43785   0.05626   0.00000  Uiso   1.00
H211   H     0.93002   0.58463   0.92616   0.00000  Uiso   1.00
H212   H     0.71852   0.60093   0.03883   0.00000  Uiso   1.00
H213   H     0.76672   0.33440   0.03957   0.00000  Uiso   1.00
H214   H     0.02504   0.64391   0.76522   0.00000  Uiso   1.00
H215   H     0.79967   0.50320   0.34148   0.00000  Uiso   1.00
H216   H     0.74250   0.53785   0.36668   0.00000  Uiso   1.00
H217   H     0.76535   0.41144   0.36705   0.00000  Uiso   1.00
H218   H     0.88785   0.55822   0.23695   0.00000  Uiso   1.00
H219   H     0.68429   0.57949   0.47943   0.00000  Uiso   1.00
H220   H     0.73249   0.31296   0.48017   0.00000  Uiso   1.00
H221   H     0.99081   0.62247   0.20583   0.00000  Uiso   1.00
O222   O     0.66451   0.61344   0.78751   0.00000  Uiso   1.00
O223   O     0.72775   0.26376   0.78848   0.00000  Uiso   1.00
O224   O     0.06666   0.66983   0.42855   0.00000  Uiso   1.00
N225   N     0.71832   0.59114   0.90370   0.00000  Uiso   1.00
N226   N     0.76337   0.34194   0.90441   0.00000  Uiso   1.00
N227   N     0.00488   0.63130   0.64792   0.00000  Uiso   1.00
N228   N     0.69990   0.57960   0.60270   0.00000  Uiso   1.00
N229   N     0.74496   0.33041   0.60340   0.00000  Uiso   1.00
N230   N     0.98647   0.61976   0.34691   0.00000  Uiso   1.00
C231   C     0.47750   0.30798   0.17849   0.00000  Uiso   1.00
C232   C     0.46139   0.25647   0.12106   0.00000  Uiso   1.00
C233   C     0.44143   0.21699   0.24045   0.00000  Uiso   1.00
C234   C     0.42909   0.17291   0.16068   0.00000  Uiso   1.00
C235   C     0.40298   0.09360   0.10077   0.00000  Uiso   1.00
C236   C     0.53008   0.33756   0.12126   0.00000  Uiso   1.00
C237   C     0.56786   0.36627   0.24082   0.00000  Uiso   1.00
C238   C     0.61333   0.39046   0.16120   0.00000  Uiso   1.00
C239   C     0.69386   0.43707   0.10157   0.00000  Uiso   1.00
C240   C     0.45032   0.32437   0.05058   0.00000  Uiso   1.00
C241   C     0.42106   0.34199   0.11070   0.00000  Uiso   1.00
C242   C     0.39940   0.35508   0.97156   0.00000  Uiso   1.00
C243   C     0.35609   0.38121   0.80219   0.00000  Uiso   1.00
C244   C     0.49107   0.29989   0.82451   0.00000  Uiso   1.00
C245   C     0.46877   0.25208   0.92879   0.00000  Uiso   1.00
C246   C     0.45644   0.20804   0.84881   0.00000  Uiso   1.00
C247   C     0.43647   0.16850   0.96806   0.00000  Uiso   1.00
C248   C     0.53745   0.33317   0.92900   0.00000  Uiso   1.00
C249   C     0.58287   0.35732   0.84918   0.00000  Uiso   1.00
C250   C     0.62072   0.38606   0.96858   0.00000  Uiso   1.00
C251   C     0.45769   0.31997   0.85831   0.00000  Uiso   1.00
C252   C     0.43607   0.33304   0.71906   0.00000  Uiso   1.00
C253   C     0.40678   0.35068   0.77895   0.00000  Uiso   1.00
H254   H     0.47176   0.31140   0.32818   0.00000  Uiso   1.00
H255   H     0.43574   0.22041   0.38924   0.00000  Uiso   1.00
H256   H     0.56215   0.36967   0.38959   0.00000  Uiso   1.00
H257   H     0.41537   0.34539   0.25949   0.00000  Uiso   1.00
H258   H     0.39907   0.11759   0.37216   0.00000  Uiso   1.00
H259   H     0.66560   0.43232   0.37290   0.00000  Uiso   1.00
H260   H     0.35609   0.38113   0.09856   0.00000  Uiso   1.00
H261   H     0.49680   0.29647   0.67482   0.00000  Uiso   1.00
H262   H     0.46215   0.20465   0.70002   0.00000  Uiso   1.00
H263   H     0.58856   0.35391   0.70038   0.00000  Uiso   1.00
H264   H     0.44178   0.32964   0.57028   0.00000  Uiso   1.00
H265   H     0.42051   0.10480   0.81276   0.00000  Uiso   1.00
H266   H     0.68704   0.41954   0.81351   0.00000  Uiso   1.00
H267   H     0.37753   0.36834   0.53916   0.00000  Uiso   1.00
O268   O     0.38656   0.05106   0.12084   0.00000  Uiso   1.00
O269   O     0.73624   0.46399   0.12181   0.00000  Uiso   1.00
O270   O     0.33017   0.39683   0.76188   0.00000  Uiso   1.00
N271   N     0.40886   0.12718   0.23704   0.00000  Uiso   1.00
N272   N     0.65806   0.42143   0.23774   0.00000  Uiso   1.00
N273   N     0.36870   0.37358   0.98125   0.00000  Uiso   1.00
N274   N     0.42040   0.12030   0.93603   0.00000  Uiso   1.00
N275   N     0.66959   0.41455   0.93673   0.00000  Uiso   1.00
N276   N     0.38024   0.36670   0.68024   0.00000  Uiso   1.00
