data_job_04954
_audit_creation_date              2018-12-19
_audit_creation_method            'Materials Studio'
_symmetry_space_group_name_H-M    'P1'
_symmetry_Int_Tables_number       1
_symmetry_cell_setting            triclinic
loop_
_symmetry_equiv_pos_as_xyz
  x,y,z
_cell_length_a                    20.6946
_cell_length_b                    14.0625
_cell_length_c                    31.3458
_cell_angle_alpha                 90.0000
_cell_angle_beta                  120.0191
_cell_angle_gamma                 90.0000
loop_
_atom_site_label
_atom_site_type_symbol
_atom_site_fract_x
_atom_site_fract_y
_atom_site_fract_z
_atom_site_U_iso_or_equiv
_atom_site_adp_type
_atom_site_occupancy
C1     C     0.01165   0.26501   0.61425   0.00000  Uiso   1.00
C2     C     0.04164   0.36245   0.61142   0.00000  Uiso   1.00
C3     C     0.03704   0.40272   0.56957   0.00000  Uiso   1.00
C4     C     0.06789   0.49255   0.57460   0.00000  Uiso   1.00
C5     C     0.10928   0.63656   0.56333   0.00000  Uiso   1.00
C6     C     0.07785   0.21051   0.65446   0.00000  Uiso   1.00
C7     C     0.10369   0.12302   0.64879   0.00000  Uiso   1.00
C8     C     0.16501   0.08495   0.69005   0.00000  Uiso   1.00
C9     C     0.26259   0.99303   0.74561   0.00000  Uiso   1.00
C10    C     0.95863   0.28233   0.63398   0.00000  Uiso   1.00
C11    C     0.88422   0.25521   0.61109   0.00000  Uiso   1.00
C12    C     0.84516   0.27759   0.63511   0.00000  Uiso   1.00
C13    C     0.75763   0.29719   0.65887   0.00000  Uiso   1.00
C14    C     0.07462   0.35295   0.69760   0.00000  Uiso   1.00
C15    C     0.07585   0.41021   0.65670   0.00000  Uiso   1.00
C16    C     0.10671   0.50001   0.66179   0.00000  Uiso   1.00
C17    C     0.10215   0.54040   0.61995   0.00000  Uiso   1.00
C18    C     0.11206   0.25827   0.69974   0.00000  Uiso   1.00
C19    C     0.17336   0.22031   0.74102   0.00000  Uiso   1.00
C20    C     0.19928   0.13279   0.73541   0.00000  Uiso   1.00
C21    C     0.99283   0.33010   0.67925   0.00000  Uiso   1.00
C22    C     0.95389   0.35251   0.70332   0.00000  Uiso   1.00
C23    C     0.87943   0.32544   0.68047   0.00000  Uiso   1.00
H24    H     0.98503   0.22782   0.57900   0.00000  Uiso   1.00
H25    H     0.01057   0.36573   0.53454   0.00000  Uiso   1.00
H26    H     0.07720   0.08607   0.61375   0.00000  Uiso   1.00
H27    H     0.85777   0.21825   0.57606   0.00000  Uiso   1.00
H28    H     0.05399   0.53967   0.50522   0.00000  Uiso   1.00
H29    H     0.19448   0.94999   0.67225   0.00000  Uiso   1.00
H30    H     0.73175   0.22871   0.59276   0.00000  Uiso   1.00
H31    H     0.10126   0.39013   0.73285   0.00000  Uiso   1.00
H32    H     0.13317   0.53695   0.69684   0.00000  Uiso   1.00
H33    H     0.19981   0.25729   0.77605   0.00000  Uiso   1.00
H34    H     0.98037   0.38947   0.73835   0.00000  Uiso   1.00
H35    H     0.15351   0.67864   0.63694   0.00000  Uiso   1.00
H36    H     0.29399   0.08895   0.80397   0.00000  Uiso   1.00
H37    H     0.83127   0.36768   0.72449   0.00000  Uiso   1.00
O38    O     0.12267   0.70280   0.54461   0.00000  Uiso   1.00
O39    O     0.30697   0.92914   0.76375   0.00000  Uiso   1.00
O40    O     0.69989   0.29483   0.65946   0.00000  Uiso   1.00
N41    N     0.07302   0.55224   0.54116   0.00000  Uiso   1.00
N42    N     0.20437   0.00092   0.69732   0.00000  Uiso   1.00
N43    N     0.77177   0.26148   0.62301   0.00000  Uiso   1.00
N44    N     0.12657   0.62702   0.61204   0.00000  Uiso   1.00
N45    N     0.25792   0.07570   0.76820   0.00000  Uiso   1.00
N46    N     0.82532   0.33626   0.69389   0.00000  Uiso   1.00
C47    C     0.82659   0.00194   0.37643   0.00000  Uiso   1.00
C48    C     0.86165   0.90538   0.37859   0.00000  Uiso   1.00
C49    C     0.92135   0.86531   0.42003   0.00000  Uiso   1.00
C50    C     0.94521   0.77633   0.41442   0.00000  Uiso   1.00
C51    C     0.00494   0.63359   0.42467   0.00000  Uiso   1.00
C52    C     0.83040   0.05798   0.33610   0.00000  Uiso   1.00
C53    C     0.86382   0.14623   0.34182   0.00000  Uiso   1.00
C54    C     0.86136   0.18570   0.30043   0.00000  Uiso   1.00
C55    C     0.87253   0.27992   0.24472   0.00000  Uiso   1.00
C56    C     0.74401   0.98298   0.35726   0.00000  Uiso   1.00
C57    C     0.70479   0.00818   0.38077   0.00000  Uiso   1.00
C58    C     0.62959   0.98453   0.35719   0.00000  Uiso   1.00
C59    C     0.50662   0.96229   0.33433   0.00000  Uiso   1.00
C60    C     0.76279   0.91516   0.29275   0.00000  Uiso   1.00
C61    C     0.82699   0.85825   0.33313   0.00000  Uiso   1.00
C62    C     0.85076   0.76930   0.32745   0.00000  Uiso   1.00
C63    C     0.91049   0.72910   0.36888   0.00000  Uiso   1.00
C64    C     0.79575   0.01085   0.29064   0.00000  Uiso   1.00
C65    C     0.79323   0.05021   0.24924   0.00000  Uiso   1.00
C66    C     0.82664   0.13848   0.25490   0.00000  Uiso   1.00
C67    C     0.70936   0.93584   0.31180   0.00000  Uiso   1.00
C68    C     0.63420   0.91216   0.28818   0.00000  Uiso   1.00
C69    C     0.59487   0.93731   0.31165   0.00000  Uiso   1.00
H70    H     0.85357   0.03864   0.41181   0.00000  Uiso   1.00
H71    H     0.94816   0.90182   0.45520   0.00000  Uiso   1.00
H72    H     0.89063   0.18269   0.37700   0.00000  Uiso   1.00
H73    H     0.73162   0.04465   0.41594   0.00000  Uiso   1.00
H74    H     0.03776   0.72935   0.48326   0.00000  Uiso   1.00
H75    H     0.91643   0.32160   0.31836   0.00000  Uiso   1.00
H76    H     0.58114   0.03053   0.40047   0.00000  Uiso   1.00
H77    H     0.73581   0.87846   0.25736   0.00000  Uiso   1.00
H78    H     0.82393   0.73284   0.29227   0.00000  Uiso   1.00
H79    H     0.76641   0.01372   0.21407   0.00000  Uiso   1.00
H80    H     0.60740   0.87568   0.25301   0.00000  Uiso   1.00
H81    H     0.93694   0.59221   0.35102   0.00000  Uiso   1.00
H82    H     0.81561   0.18446   0.18612   0.00000  Uiso   1.00
H83    H     0.48031   0.89339   0.26823   0.00000  Uiso   1.00
O84    O     0.04746   0.56789   0.44289   0.00000  Uiso   1.00
O85    O     0.88827   0.34490   0.22654   0.00000  Uiso   1.00
O86    O     0.44837   0.96303   0.33428   0.00000  Uiso   1.00
N87    N     0.00193   0.71705   0.44734   0.00000  Uiso   1.00
N88    N     0.88850   0.27076   0.29317   0.00000  Uiso   1.00
N89    N     0.57503   0.99866   0.36994   0.00000  Uiso   1.00
N90    N     0.94768   0.64325   0.37619   0.00000  Uiso   1.00
N91    N     0.83425   0.19696   0.22202   0.00000  Uiso   1.00
N92    N     0.52077   0.92486   0.29878   0.00000  Uiso   1.00
C93    C     0.51165   0.76501   0.61425   0.00000  Uiso   1.00
C94    C     0.54164   0.86245   0.61142   0.00000  Uiso   1.00
C95    C     0.53704   0.90272   0.56957   0.00000  Uiso   1.00
C96    C     0.56789   0.99255   0.57460   0.00000  Uiso   1.00
C97    C     0.60928   0.13656   0.56333   0.00000  Uiso   1.00
C98    C     0.57785   0.71051   0.65446   0.00000  Uiso   1.00
C99    C     0.60369   0.62302   0.64879   0.00000  Uiso   1.00
C100   C     0.66501   0.58495   0.69005   0.00000  Uiso   1.00
C101   C     0.76259   0.49303   0.74561   0.00000  Uiso   1.00
C102   C     0.45863   0.78233   0.63398   0.00000  Uiso   1.00
C103   C     0.38422   0.75521   0.61109   0.00000  Uiso   1.00
C104   C     0.34516   0.77759   0.63511   0.00000  Uiso   1.00
C105   C     0.25763   0.79719   0.65887   0.00000  Uiso   1.00
C106   C     0.57462   0.85295   0.69760   0.00000  Uiso   1.00
C107   C     0.57585   0.91021   0.65670   0.00000  Uiso   1.00
C108   C     0.60671   0.00001   0.66179   0.00000  Uiso   1.00
C109   C     0.60215   0.04040   0.61995   0.00000  Uiso   1.00
C110   C     0.61206   0.75827   0.69974   0.00000  Uiso   1.00
C111   C     0.67336   0.72031   0.74102   0.00000  Uiso   1.00
C112   C     0.69928   0.63279   0.73541   0.00000  Uiso   1.00
C113   C     0.49283   0.83010   0.67925   0.00000  Uiso   1.00
C114   C     0.45389   0.85251   0.70332   0.00000  Uiso   1.00
C115   C     0.37943   0.82544   0.68047   0.00000  Uiso   1.00
H116   H     0.48503   0.72782   0.57900   0.00000  Uiso   1.00
H117   H     0.51057   0.86573   0.53454   0.00000  Uiso   1.00
H118   H     0.57720   0.58607   0.61375   0.00000  Uiso   1.00
H119   H     0.35777   0.71825   0.57606   0.00000  Uiso   1.00
H120   H     0.55399   0.03967   0.50522   0.00000  Uiso   1.00
H121   H     0.69448   0.44999   0.67225   0.00000  Uiso   1.00
H122   H     0.23175   0.72871   0.59276   0.00000  Uiso   1.00
H123   H     0.60126   0.89013   0.73285   0.00000  Uiso   1.00
H124   H     0.63317   0.03695   0.69684   0.00000  Uiso   1.00
H125   H     0.69981   0.75729   0.77605   0.00000  Uiso   1.00
H126   H     0.48037   0.88947   0.73835   0.00000  Uiso   1.00
H127   H     0.65351   0.17864   0.63694   0.00000  Uiso   1.00
H128   H     0.79399   0.58895   0.80397   0.00000  Uiso   1.00
H129   H     0.33127   0.86768   0.72449   0.00000  Uiso   1.00
O130   O     0.62267   0.20280   0.54461   0.00000  Uiso   1.00
O131   O     0.80697   0.42914   0.76375   0.00000  Uiso   1.00
O132   O     0.19989   0.79483   0.65946   0.00000  Uiso   1.00
N133   N     0.57302   0.05224   0.54116   0.00000  Uiso   1.00
N134   N     0.70437   0.50092   0.69732   0.00000  Uiso   1.00
N135   N     0.27177   0.76148   0.62301   0.00000  Uiso   1.00
N136   N     0.62657   0.12702   0.61204   0.00000  Uiso   1.00
N137   N     0.75792   0.57570   0.76820   0.00000  Uiso   1.00
N138   N     0.32532   0.83626   0.69389   0.00000  Uiso   1.00
C139   C     0.32659   0.50194   0.37643   0.00000  Uiso   1.00
C140   C     0.36165   0.40538   0.37859   0.00000  Uiso   1.00
C141   C     0.42135   0.36531   0.42003   0.00000  Uiso   1.00
C142   C     0.44521   0.27633   0.41442   0.00000  Uiso   1.00
C143   C     0.50494   0.13359   0.42467   0.00000  Uiso   1.00
C144   C     0.33040   0.55798   0.33610   0.00000  Uiso   1.00
C145   C     0.36382   0.64623   0.34182   0.00000  Uiso   1.00
C146   C     0.36136   0.68570   0.30043   0.00000  Uiso   1.00
C147   C     0.37253   0.77992   0.24472   0.00000  Uiso   1.00
C148   C     0.24401   0.48298   0.35726   0.00000  Uiso   1.00
C149   C     0.20479   0.50818   0.38077   0.00000  Uiso   1.00
C150   C     0.12959   0.48453   0.35719   0.00000  Uiso   1.00
C151   C     0.00662   0.46229   0.33433   0.00000  Uiso   1.00
C152   C     0.26279   0.41516   0.29275   0.00000  Uiso   1.00
C153   C     0.32699   0.35825   0.33313   0.00000  Uiso   1.00
C154   C     0.35076   0.26930   0.32745   0.00000  Uiso   1.00
C155   C     0.41049   0.22910   0.36888   0.00000  Uiso   1.00
C156   C     0.29575   0.51085   0.29064   0.00000  Uiso   1.00
C157   C     0.29323   0.55021   0.24924   0.00000  Uiso   1.00
C158   C     0.32664   0.63848   0.25490   0.00000  Uiso   1.00
C159   C     0.20936   0.43584   0.31180   0.00000  Uiso   1.00
C160   C     0.13420   0.41216   0.28818   0.00000  Uiso   1.00
C161   C     0.09487   0.43731   0.31165   0.00000  Uiso   1.00
H162   H     0.35357   0.53864   0.41181   0.00000  Uiso   1.00
H163   H     0.44816   0.40182   0.45520   0.00000  Uiso   1.00
H164   H     0.39063   0.68269   0.37700   0.00000  Uiso   1.00
H165   H     0.23162   0.54465   0.41594   0.00000  Uiso   1.00
H166   H     0.53776   0.22935   0.48326   0.00000  Uiso   1.00
H167   H     0.41643   0.82160   0.31836   0.00000  Uiso   1.00
H168   H     0.08114   0.53053   0.40047   0.00000  Uiso   1.00
H169   H     0.23581   0.37846   0.25736   0.00000  Uiso   1.00
H170   H     0.32393   0.23284   0.29227   0.00000  Uiso   1.00
H171   H     0.26641   0.51372   0.21407   0.00000  Uiso   1.00
H172   H     0.10740   0.37568   0.25301   0.00000  Uiso   1.00
H173   H     0.43694   0.09221   0.35102   0.00000  Uiso   1.00
H174   H     0.31561   0.68446   0.18612   0.00000  Uiso   1.00
H175   H     0.98031   0.39339   0.26823   0.00000  Uiso   1.00
O176   O     0.54746   0.06789   0.44289   0.00000  Uiso   1.00
O177   O     0.38827   0.84490   0.22654   0.00000  Uiso   1.00
O178   O     0.94837   0.46303   0.33428   0.00000  Uiso   1.00
N179   N     0.50193   0.21705   0.44734   0.00000  Uiso   1.00
N180   N     0.38850   0.77076   0.29317   0.00000  Uiso   1.00
N181   N     0.07503   0.49866   0.36994   0.00000  Uiso   1.00
N182   N     0.44768   0.14325   0.37619   0.00000  Uiso   1.00
N183   N     0.33425   0.69696   0.22202   0.00000  Uiso   1.00
N184   N     0.02077   0.42486   0.29878   0.00000  Uiso   1.00
C185   C     0.01165   0.73499   0.11425   0.00000  Uiso   1.00
C186   C     0.04164   0.63755   0.11142   0.00000  Uiso   1.00
C187   C     0.03704   0.59728   0.06957   0.00000  Uiso   1.00
C188   C     0.06789   0.50745   0.07460   0.00000  Uiso   1.00
C189   C     0.10928   0.36344   0.06333   0.00000  Uiso   1.00
C190   C     0.07785   0.78949   0.15446   0.00000  Uiso   1.00
C191   C     0.10369   0.87698   0.14879   0.00000  Uiso   1.00
C192   C     0.16501   0.91505   0.19005   0.00000  Uiso   1.00
C193   C     0.26259   0.00697   0.24561   0.00000  Uiso   1.00
C194   C     0.95863   0.71767   0.13398   0.00000  Uiso   1.00
C195   C     0.88422   0.74479   0.11109   0.00000  Uiso   1.00
C196   C     0.84516   0.72241   0.13511   0.00000  Uiso   1.00
C197   C     0.75763   0.70281   0.15887   0.00000  Uiso   1.00
C198   C     0.07462   0.64705   0.19760   0.00000  Uiso   1.00
C199   C     0.07585   0.58979   0.15670   0.00000  Uiso   1.00
C200   C     0.10671   0.49999   0.16179   0.00000  Uiso   1.00
C201   C     0.10215   0.45960   0.11995   0.00000  Uiso   1.00
C202   C     0.11206   0.74173   0.19974   0.00000  Uiso   1.00
C203   C     0.17336   0.77969   0.24102   0.00000  Uiso   1.00
C204   C     0.19928   0.86721   0.23541   0.00000  Uiso   1.00
C205   C     0.99283   0.66990   0.17925   0.00000  Uiso   1.00
C206   C     0.95389   0.64749   0.20332   0.00000  Uiso   1.00
C207   C     0.87943   0.67456   0.18047   0.00000  Uiso   1.00
H208   H     0.98503   0.77218   0.07900   0.00000  Uiso   1.00
H209   H     0.01057   0.63427   0.03454   0.00000  Uiso   1.00
H210   H     0.07720   0.91393   0.11375   0.00000  Uiso   1.00
H211   H     0.85777   0.78175   0.07606   0.00000  Uiso   1.00
H212   H     0.05399   0.46033   0.00522   0.00000  Uiso   1.00
H213   H     0.19448   0.05001   0.17225   0.00000  Uiso   1.00
H214   H     0.73175   0.77129   0.09276   0.00000  Uiso   1.00
H215   H     0.10126   0.60987   0.23285   0.00000  Uiso   1.00
H216   H     0.13317   0.46305   0.19684   0.00000  Uiso   1.00
H217   H     0.19981   0.74271   0.27605   0.00000  Uiso   1.00
H218   H     0.98037   0.61053   0.23835   0.00000  Uiso   1.00
H219   H     0.15351   0.32136   0.13694   0.00000  Uiso   1.00
H220   H     0.29399   0.91105   0.30397   0.00000  Uiso   1.00
H221   H     0.83127   0.63232   0.22449   0.00000  Uiso   1.00
O222   O     0.12267   0.29720   0.04461   0.00000  Uiso   1.00
O223   O     0.30697   0.07086   0.26375   0.00000  Uiso   1.00
O224   O     0.69989   0.70517   0.15946   0.00000  Uiso   1.00
N225   N     0.07302   0.44776   0.04116   0.00000  Uiso   1.00
N226   N     0.20437   0.99908   0.19732   0.00000  Uiso   1.00
N227   N     0.77177   0.73852   0.12301   0.00000  Uiso   1.00
N228   N     0.12657   0.37298   0.11204   0.00000  Uiso   1.00
N229   N     0.25792   0.92430   0.26820   0.00000  Uiso   1.00
N230   N     0.82532   0.66374   0.19389   0.00000  Uiso   1.00
C231   C     0.82659   0.99806   0.87643   0.00000  Uiso   1.00
C232   C     0.86165   0.09462   0.87859   0.00000  Uiso   1.00
C233   C     0.92135   0.13469   0.92003   0.00000  Uiso   1.00
C234   C     0.94521   0.22367   0.91442   0.00000  Uiso   1.00
C235   C     0.00494   0.36641   0.92467   0.00000  Uiso   1.00
C236   C     0.83040   0.94202   0.83610   0.00000  Uiso   1.00
C237   C     0.86382   0.85377   0.84182   0.00000  Uiso   1.00
C238   C     0.86136   0.81430   0.80043   0.00000  Uiso   1.00
C239   C     0.87253   0.72008   0.74472   0.00000  Uiso   1.00
C240   C     0.74401   0.01702   0.85726   0.00000  Uiso   1.00
C241   C     0.70479   0.99182   0.88077   0.00000  Uiso   1.00
C242   C     0.62959   0.01547   0.85719   0.00000  Uiso   1.00
C243   C     0.50662   0.03771   0.83433   0.00000  Uiso   1.00
C244   C     0.76279   0.08484   0.79275   0.00000  Uiso   1.00
C245   C     0.82699   0.14175   0.83313   0.00000  Uiso   1.00
C246   C     0.85076   0.23070   0.82745   0.00000  Uiso   1.00
C247   C     0.91049   0.27090   0.86888   0.00000  Uiso   1.00
C248   C     0.79575   0.98915   0.79064   0.00000  Uiso   1.00
C249   C     0.79323   0.94979   0.74924   0.00000  Uiso   1.00
C250   C     0.82664   0.86152   0.75490   0.00000  Uiso   1.00
C251   C     0.70936   0.06416   0.81180   0.00000  Uiso   1.00
C252   C     0.63420   0.08784   0.78818   0.00000  Uiso   1.00
C253   C     0.59487   0.06269   0.81165   0.00000  Uiso   1.00
H254   H     0.85357   0.96136   0.91181   0.00000  Uiso   1.00
H255   H     0.94816   0.09818   0.95520   0.00000  Uiso   1.00
H256   H     0.89063   0.81731   0.87700   0.00000  Uiso   1.00
H257   H     0.73162   0.95535   0.91594   0.00000  Uiso   1.00
H258   H     0.03776   0.27065   0.98326   0.00000  Uiso   1.00
H259   H     0.91643   0.67840   0.81836   0.00000  Uiso   1.00
H260   H     0.58114   0.96947   0.90047   0.00000  Uiso   1.00
H261   H     0.73581   0.12154   0.75736   0.00000  Uiso   1.00
H262   H     0.82393   0.26716   0.79227   0.00000  Uiso   1.00
H263   H     0.76641   0.98628   0.71407   0.00000  Uiso   1.00
H264   H     0.60740   0.12432   0.75301   0.00000  Uiso   1.00
H265   H     0.93694   0.40779   0.85102   0.00000  Uiso   1.00
H266   H     0.81561   0.81554   0.68612   0.00000  Uiso   1.00
H267   H     0.48031   0.10661   0.76823   0.00000  Uiso   1.00
O268   O     0.04746   0.43211   0.94289   0.00000  Uiso   1.00
O269   O     0.88827   0.65510   0.72654   0.00000  Uiso   1.00
O270   O     0.44837   0.03697   0.83428   0.00000  Uiso   1.00
N271   N     0.00193   0.28295   0.94734   0.00000  Uiso   1.00
N272   N     0.88850   0.72924   0.79317   0.00000  Uiso   1.00
N273   N     0.57503   0.00134   0.86994   0.00000  Uiso   1.00
N274   N     0.94768   0.35675   0.87619   0.00000  Uiso   1.00
N275   N     0.83425   0.80304   0.72202   0.00000  Uiso   1.00
N276   N     0.52077   0.07514   0.79878   0.00000  Uiso   1.00
C277   C     0.51165   0.23499   0.11425   0.00000  Uiso   1.00
C278   C     0.54164   0.13755   0.11142   0.00000  Uiso   1.00
C279   C     0.53704   0.09728   0.06957   0.00000  Uiso   1.00
C280   C     0.56789   0.00745   0.07460   0.00000  Uiso   1.00
C281   C     0.60928   0.86344   0.06333   0.00000  Uiso   1.00
C282   C     0.57785   0.28949   0.15446   0.00000  Uiso   1.00
C283   C     0.60369   0.37698   0.14879   0.00000  Uiso   1.00
C284   C     0.66501   0.41505   0.19005   0.00000  Uiso   1.00
C285   C     0.76259   0.50697   0.24561   0.00000  Uiso   1.00
C286   C     0.45863   0.21767   0.13398   0.00000  Uiso   1.00
C287   C     0.38422   0.24479   0.11109   0.00000  Uiso   1.00
C288   C     0.34516   0.22241   0.13511   0.00000  Uiso   1.00
C289   C     0.25763   0.20281   0.15887   0.00000  Uiso   1.00
C290   C     0.57462   0.14705   0.19760   0.00000  Uiso   1.00
C291   C     0.57585   0.08979   0.15670   0.00000  Uiso   1.00
C292   C     0.60671   0.99999   0.16179   0.00000  Uiso   1.00
C293   C     0.60215   0.95960   0.11995   0.00000  Uiso   1.00
C294   C     0.61206   0.24173   0.19974   0.00000  Uiso   1.00
C295   C     0.67336   0.27969   0.24102   0.00000  Uiso   1.00
C296   C     0.69928   0.36721   0.23541   0.00000  Uiso   1.00
C297   C     0.49283   0.16990   0.17925   0.00000  Uiso   1.00
C298   C     0.45389   0.14749   0.20332   0.00000  Uiso   1.00
C299   C     0.37943   0.17456   0.18047   0.00000  Uiso   1.00
H300   H     0.48503   0.27218   0.07900   0.00000  Uiso   1.00
H301   H     0.51057   0.13427   0.03454   0.00000  Uiso   1.00
H302   H     0.57720   0.41393   0.11375   0.00000  Uiso   1.00
H303   H     0.35777   0.28175   0.07606   0.00000  Uiso   1.00
H304   H     0.55399   0.96033   0.00522   0.00000  Uiso   1.00
H305   H     0.69448   0.55001   0.17225   0.00000  Uiso   1.00
H306   H     0.23175   0.27129   0.09276   0.00000  Uiso   1.00
H307   H     0.60126   0.10987   0.23285   0.00000  Uiso   1.00
H308   H     0.63317   0.96305   0.19684   0.00000  Uiso   1.00
H309   H     0.69981   0.24271   0.27605   0.00000  Uiso   1.00
H310   H     0.48037   0.11053   0.23835   0.00000  Uiso   1.00
H311   H     0.65351   0.82136   0.13694   0.00000  Uiso   1.00
H312   H     0.79399   0.41105   0.30397   0.00000  Uiso   1.00
H313   H     0.33127   0.13232   0.22449   0.00000  Uiso   1.00
O314   O     0.62267   0.79720   0.04461   0.00000  Uiso   1.00
O315   O     0.80697   0.57086   0.26375   0.00000  Uiso   1.00
O316   O     0.19989   0.20517   0.15946   0.00000  Uiso   1.00
N317   N     0.57302   0.94776   0.04116   0.00000  Uiso   1.00
N318   N     0.70437   0.49908   0.19732   0.00000  Uiso   1.00
N319   N     0.27177   0.23852   0.12301   0.00000  Uiso   1.00
N320   N     0.62657   0.87298   0.11204   0.00000  Uiso   1.00
N321   N     0.75792   0.42430   0.26820   0.00000  Uiso   1.00
N322   N     0.32532   0.16374   0.19389   0.00000  Uiso   1.00
C323   C     0.32659   0.49806   0.87643   0.00000  Uiso   1.00
C324   C     0.36165   0.59462   0.87859   0.00000  Uiso   1.00
C325   C     0.42135   0.63469   0.92003   0.00000  Uiso   1.00
C326   C     0.44521   0.72367   0.91442   0.00000  Uiso   1.00
C327   C     0.50494   0.86641   0.92467   0.00000  Uiso   1.00
C328   C     0.33040   0.44202   0.83610   0.00000  Uiso   1.00
C329   C     0.36382   0.35377   0.84182   0.00000  Uiso   1.00
C330   C     0.36136   0.31430   0.80043   0.00000  Uiso   1.00
C331   C     0.37253   0.22008   0.74472   0.00000  Uiso   1.00
C332   C     0.24401   0.51702   0.85726   0.00000  Uiso   1.00
C333   C     0.20479   0.49182   0.88077   0.00000  Uiso   1.00
C334   C     0.12959   0.51547   0.85719   0.00000  Uiso   1.00
C335   C     0.00662   0.53771   0.83433   0.00000  Uiso   1.00
C336   C     0.26279   0.58484   0.79275   0.00000  Uiso   1.00
C337   C     0.32699   0.64175   0.83313   0.00000  Uiso   1.00
C338   C     0.35076   0.73070   0.82745   0.00000  Uiso   1.00
C339   C     0.41049   0.77090   0.86888   0.00000  Uiso   1.00
C340   C     0.29575   0.48915   0.79064   0.00000  Uiso   1.00
C341   C     0.29323   0.44979   0.74924   0.00000  Uiso   1.00
C342   C     0.32664   0.36152   0.75490   0.00000  Uiso   1.00
C343   C     0.20936   0.56416   0.81180   0.00000  Uiso   1.00
C344   C     0.13420   0.58784   0.78818   0.00000  Uiso   1.00
C345   C     0.09487   0.56269   0.81165   0.00000  Uiso   1.00
H346   H     0.35357   0.46136   0.91181   0.00000  Uiso   1.00
H347   H     0.44816   0.59818   0.95520   0.00000  Uiso   1.00
H348   H     0.39063   0.31731   0.87700   0.00000  Uiso   1.00
H349   H     0.23162   0.45535   0.91594   0.00000  Uiso   1.00
H350   H     0.53776   0.77065   0.98326   0.00000  Uiso   1.00
H351   H     0.41643   0.17840   0.81836   0.00000  Uiso   1.00
H352   H     0.08114   0.46947   0.90047   0.00000  Uiso   1.00
H353   H     0.23581   0.62154   0.75736   0.00000  Uiso   1.00
H354   H     0.32393   0.76716   0.79227   0.00000  Uiso   1.00
H355   H     0.26641   0.48628   0.71407   0.00000  Uiso   1.00
H356   H     0.10740   0.62432   0.75301   0.00000  Uiso   1.00
H357   H     0.43694   0.90779   0.85102   0.00000  Uiso   1.00
H358   H     0.31561   0.31554   0.68612   0.00000  Uiso   1.00
H359   H     0.98031   0.60661   0.76823   0.00000  Uiso   1.00
O360   O     0.54746   0.93211   0.94289   0.00000  Uiso   1.00
O361   O     0.38827   0.15510   0.72654   0.00000  Uiso   1.00
O362   O     0.94837   0.53697   0.83428   0.00000  Uiso   1.00
N363   N     0.50193   0.78295   0.94734   0.00000  Uiso   1.00
N364   N     0.38850   0.22924   0.79317   0.00000  Uiso   1.00
N365   N     0.07503   0.50134   0.86994   0.00000  Uiso   1.00
N366   N     0.44768   0.85675   0.87619   0.00000  Uiso   1.00
N367   N     0.33425   0.30304   0.72202   0.00000  Uiso   1.00
N368   N     0.02077   0.57514   0.79878   0.00000  Uiso   1.00
