data_job_07024
_audit_creation_date              2018-12-19
_audit_creation_method            'Materials Studio'
_symmetry_space_group_name_H-M    'P1'
_symmetry_Int_Tables_number       1
_symmetry_cell_setting            triclinic
loop_
_symmetry_equiv_pos_as_xyz
  x,y,z
_cell_length_a                    21.4960
_cell_length_b                    20.5520
_cell_length_c                    21.7058
_cell_angle_alpha                 86.0657
_cell_angle_beta                  75.0117
_cell_angle_gamma                 93.8738
loop_
_atom_site_label
_atom_site_type_symbol
_atom_site_fract_x
_atom_site_fract_y
_atom_site_fract_z
_atom_site_U_iso_or_equiv
_atom_site_adp_type
_atom_site_occupancy
C1     C     0.90410   0.49175   0.67184   0.00000  Uiso   1.00
C2     C     0.87866   0.49522   0.61241   0.00000  Uiso   1.00
C3     C     0.89603   0.54440   0.56246   0.00000  Uiso   1.00
C4     C     0.86734   0.53866   0.51243   0.00000  Uiso   1.00
C5     C     0.83458   0.55214   0.42018   0.00000  Uiso   1.00
C6     C     0.84473   0.48704   0.72901   0.00000  Uiso   1.00
C7     C     0.83358   0.52935   0.77709   0.00000  Uiso   1.00
C8     C     0.77634   0.51672   0.82522   0.00000  Uiso   1.00
C9     C     0.69093   0.51747   0.91400   0.00000  Uiso   1.00
C10    C     0.93281   0.42606   0.67408   0.00000  Uiso   1.00
C11    C     0.99571   0.41708   0.67601   0.00000  Uiso   1.00
C12    C     0.01261   0.35309   0.67791   0.00000  Uiso   1.00
C13    C     0.06396   0.25916   0.68141   0.00000  Uiso   1.00
C14    C     0.82225   0.39408   0.67181   0.00000  Uiso   1.00
C15    C     0.83420   0.44217   0.61240   0.00000  Uiso   1.00
C16    C     0.80548   0.43635   0.56243   0.00000  Uiso   1.00
C17    C     0.82281   0.48552   0.51242   0.00000  Uiso   1.00
C18    C     0.80028   0.43400   0.72899   0.00000  Uiso   1.00
C19    C     0.74303   0.42130   0.77706   0.00000  Uiso   1.00
C20    C     0.73180   0.46357   0.82521   0.00000  Uiso   1.00
C21    C     0.88835   0.37301   0.67407   0.00000  Uiso   1.00
C22    C     0.90516   0.30902   0.67597   0.00000  Uiso   1.00
C23    C     0.96808   0.29995   0.67789   0.00000  Uiso   1.00
H24    H     0.93870   0.53305   0.67185   0.00000  Uiso   1.00
H25    H     0.93043   0.58545   0.56249   0.00000  Uiso   1.00
H26    H     0.86800   0.57039   0.77709   0.00000  Uiso   1.00
H27    H     0.03010   0.45814   0.67602   0.00000  Uiso   1.00
H28    H     0.90163   0.62017   0.44125   0.00000  Uiso   1.00
H29    H     0.77000   0.58841   0.89376   0.00000  Uiso   1.00
H30    H     0.11183   0.35170   0.68062   0.00000  Uiso   1.00
H31    H     0.78764   0.35278   0.67180   0.00000  Uiso   1.00
H32    H     0.77108   0.39529   0.56244   0.00000  Uiso   1.00
H33    H     0.70865   0.38024   0.77704   0.00000  Uiso   1.00
H34    H     0.87075   0.26798   0.67596   0.00000  Uiso   1.00
H35    H     0.77230   0.46583   0.44121   0.00000  Uiso   1.00
H36    H     0.64067   0.43407   0.89372   0.00000  Uiso   1.00
H37    H     0.98249   0.19736   0.68058   0.00000  Uiso   1.00
O38    O     0.82878   0.57423   0.36930   0.00000  Uiso   1.00
O39    O     0.65609   0.53255   0.96297   0.00000  Uiso   1.00
O40    O     0.10456   0.22200   0.68334   0.00000  Uiso   1.00
N41    N     0.87348   0.57801   0.45624   0.00000  Uiso   1.00
N42    N     0.75041   0.54832   0.87931   0.00000  Uiso   1.00
N43    N     0.06998   0.32701   0.68006   0.00000  Uiso   1.00
N44    N     0.80388   0.49496   0.45622   0.00000  Uiso   1.00
N45    N     0.68081   0.46527   0.87928   0.00000  Uiso   1.00
N46    N     0.00038   0.24396   0.68004   0.00000  Uiso   1.00
C47    C     0.67042   0.92129   0.48140   0.00000  Uiso   1.00
C48    C     0.59941   0.89495   0.50098   0.00000  Uiso   1.00
C49    C     0.55075   0.91880   0.54693   0.00000  Uiso   1.00
C50    C     0.48889   0.88799   0.55790   0.00000  Uiso   1.00
C51    C     0.38055   0.85510   0.59346   0.00000  Uiso   1.00
C52    C     0.70847   0.86324   0.49127   0.00000  Uiso   1.00
C53    C     0.75153   0.86044   0.52907   0.00000  Uiso   1.00
C54    C     0.78148   0.80295   0.53185   0.00000  Uiso   1.00
C55    C     0.84251   0.72085   0.55232   0.00000  Uiso   1.00
C56    C     0.68740   0.93911   0.40928   0.00000  Uiso   1.00
C57    C     0.71276   0.00010   0.37813   0.00000  Uiso   1.00
C58    C     0.72499   0.00648   0.31189   0.00000  Uiso   1.00
C59    C     0.75330   0.04218   0.20505   0.00000  Uiso   1.00
C60    C     0.64708   0.82417   0.41914   0.00000  Uiso   1.00
C61    C     0.58673   0.84219   0.46716   0.00000  Uiso   1.00
C62    C     0.52492   0.81135   0.47805   0.00000  Uiso   1.00
C63    C     0.47619   0.83515   0.52402   0.00000  Uiso   1.00
C64    C     0.69579   0.81049   0.45746   0.00000  Uiso   1.00
C65    C     0.72570   0.75299   0.46019   0.00000  Uiso   1.00
C66    C     0.76878   0.75010   0.49798   0.00000  Uiso   1.00
C67    C     0.67472   0.88636   0.37547   0.00000  Uiso   1.00
C68    C     0.68692   0.89264   0.30926   0.00000  Uiso   1.00
C69    C     0.71229   0.95363   0.27801   0.00000  Uiso   1.00
H70    H     0.68030   0.96236   0.50772   0.00000  Uiso   1.00
H71    H     0.56059   0.95962   0.57310   0.00000  Uiso   1.00
H72    H     0.76133   0.90128   0.55522   0.00000  Uiso   1.00
H73    H     0.72256   0.04091   0.40432   0.00000  Uiso   1.00
H74    H     0.42227   0.93331   0.63068   0.00000  Uiso   1.00
H75    H     0.84557   0.81029   0.59297   0.00000  Uiso   1.00
H76    H     0.76383   0.10474   0.27476   0.00000  Uiso   1.00
H77    H     0.63721   0.78309   0.39281   0.00000  Uiso   1.00
H78    H     0.51513   0.77052   0.45188   0.00000  Uiso   1.00
H79    H     0.71588   0.71218   0.43401   0.00000  Uiso   1.00
H80    H     0.67711   0.85181   0.28310   0.00000  Uiso   1.00
H81    H     0.38538   0.77983   0.53230   0.00000  Uiso   1.00
H82    H     0.80868   0.65681   0.49459   0.00000  Uiso   1.00
H83    H     0.72693   0.95126   0.17638   0.00000  Uiso   1.00
O84    O     0.32430   0.85152   0.62243   0.00000  Uiso   1.00
O85    O     0.87966   0.69013   0.57296   0.00000  Uiso   1.00
O86    O     0.77241   0.07644   0.15547   0.00000  Uiso   1.00
N87    N     0.43034   0.89892   0.59941   0.00000  Uiso   1.00
N88    N     0.82610   0.78390   0.56417   0.00000  Uiso   1.00
N89    N     0.74968   0.05918   0.26666   0.00000  Uiso   1.00
N90    N     0.41049   0.81634   0.54647   0.00000  Uiso   1.00
N91    N     0.80624   0.70132   0.51123   0.00000  Uiso   1.00
N92    N     0.72983   0.97660   0.21372   0.00000  Uiso   1.00
C93    C     0.37425   0.68545   0.96421   0.00000  Uiso   1.00
C94    C     0.40439   0.62469   0.93770   0.00000  Uiso   1.00
C95    C     0.45714   0.59808   0.95208   0.00000  Uiso   1.00
C96    C     0.47738   0.54234   0.92288   0.00000  Uiso   1.00
C97    C     0.52898   0.45228   0.88809   0.00000  Uiso   1.00
C98    C     0.37557   0.73224   0.90614   0.00000  Uiso   1.00
C99    C     0.40409   0.79606   0.89400   0.00000  Uiso   1.00
C100   C     0.40007   0.83086   0.83823   0.00000  Uiso   1.00
C101   C     0.40688   0.90779   0.75448   0.00000  Uiso   1.00
C102   C     0.30314   0.66402   0.99572   0.00000  Uiso   1.00
C103   C     0.27075   0.67050   0.05888   0.00000  Uiso   1.00
C104   C     0.20574   0.64788   0.07853   0.00000  Uiso   1.00
C105   C     0.10010   0.61889   0.13385   0.00000  Uiso   1.00
C106   C     0.31638   0.63378   0.88678   0.00000  Uiso   1.00
C107   C     0.37296   0.59662   0.89564   0.00000  Uiso   1.00
C108   C     0.39312   0.54091   0.86642   0.00000  Uiso   1.00
C109   C     0.44589   0.51422   0.88075   0.00000  Uiso   1.00
C110   C     0.34414   0.70417   0.86409   0.00000  Uiso   1.00
C111   C     0.34007   0.73889   0.80833   0.00000  Uiso   1.00
C112   C     0.36858   0.80274   0.79610   0.00000  Uiso   1.00
C113   C     0.27171   0.63595   0.95366   0.00000  Uiso   1.00
C114   C     0.20673   0.61333   0.97321   0.00000  Uiso   1.00
C115   C     0.17425   0.61977   0.03640   0.00000  Uiso   1.00
H116   H     0.39872   0.70731   0.99695   0.00000  Uiso   1.00
H117   H     0.48146   0.61982   0.98463   0.00000  Uiso   1.00
H118   H     0.42841   0.81777   0.92655   0.00000  Uiso   1.00
H119   H     0.29509   0.69223   0.09141   0.00000  Uiso   1.00
H120   H     0.55934   0.51046   0.95240   0.00000  Uiso   1.00
H121   H     0.44746   0.92786   0.82996   0.00000  Uiso   1.00
H122   H     0.16634   0.66312   0.17760   0.00000  Uiso   1.00
H123   H     0.29191   0.61193   0.85404   0.00000  Uiso   1.00
H124   H     0.36879   0.51920   0.83387   0.00000  Uiso   1.00
H125   H     0.31574   0.71715   0.77580   0.00000  Uiso   1.00
H126   H     0.18242   0.59161   0.94066   0.00000  Uiso   1.00
H127   H     0.46789   0.42879   0.83004   0.00000  Uiso   1.00
H128   H     0.35601   0.84619   0.70760   0.00000  Uiso   1.00
H129   H     0.07489   0.58146   0.05524   0.00000  Uiso   1.00
O130   O     0.56613   0.41036   0.88052   0.00000  Uiso   1.00
O131   O     0.41934   0.95798   0.71989   0.00000  Uiso   1.00
O132   O     0.05051   0.61065   0.17598   0.00000  Uiso   1.00
N133   N     0.52726   0.50396   0.92638   0.00000  Uiso   1.00
N134   N     0.42267   0.89420   0.81190   0.00000  Uiso   1.00
N135   N     0.15984   0.64671   0.13691   0.00000  Uiso   1.00
N136   N     0.47805   0.46001   0.86054   0.00000  Uiso   1.00
N137   N     0.37346   0.85025   0.74606   0.00000  Uiso   1.00
N138   N     0.11063   0.60276   0.07107   0.00000  Uiso   1.00
C139   C     0.46511   0.20820   0.89118   0.00000  Uiso   1.00
C140   C     0.43835   0.13997   0.92293   0.00000  Uiso   1.00
C141   C     0.45474   0.10873   0.97451   0.00000  Uiso   1.00
C142   C     0.42491   0.04640   0.99658   0.00000  Uiso   1.00
C143   C     0.39012   0.94502   0.05024   0.00000  Uiso   1.00
C144   C     0.40659   0.24704   0.89407   0.00000  Uiso   1.00
C145   C     0.39628   0.30582   0.92138   0.00000  Uiso   1.00
C146   C     0.33971   0.33362   0.91915   0.00000  Uiso   1.00
C147   C     0.25563   0.39849   0.92797   0.00000  Uiso   1.00
C148   C     0.49412   0.19982   0.82055   0.00000  Uiso   1.00
C149   C     0.55740   0.21890   0.78603   0.00000  Uiso   1.00
C150   C     0.57452   0.20696   0.72190   0.00000  Uiso   1.00
C151   C     0.62635   0.19851   0.61656   0.00000  Uiso   1.00
C152   C     0.38299   0.15307   0.83866   0.00000  Uiso   1.00
C153   C     0.39375   0.11003   0.89440   0.00000  Uiso   1.00
C154   C     0.36388   0.04773   0.91640   0.00000  Uiso   1.00
C155   C     0.38023   0.01639   0.96800   0.00000  Uiso   1.00
C156   C     0.36198   0.21710   0.86555   0.00000  Uiso   1.00
C157   C     0.30542   0.24482   0.86327   0.00000  Uiso   1.00
C158   C     0.29503   0.30362   0.89057   0.00000  Uiso   1.00
C159   C     0.44951   0.16987   0.79202   0.00000  Uiso   1.00
C160   C     0.46654   0.15790   0.72792   0.00000  Uiso   1.00
C161   C     0.52984   0.17696   0.69331   0.00000  Uiso   1.00
H162   H     0.49983   0.23152   0.91339   0.00000  Uiso   1.00
H163   H     0.48925   0.13192   0.99658   0.00000  Uiso   1.00
H164   H     0.43081   0.32898   0.94345   0.00000  Uiso   1.00
H165   H     0.59190   0.24207   0.80813   0.00000  Uiso   1.00
H166   H     0.45784   0.00830   0.07624   0.00000  Uiso   1.00
H167   H     0.33461   0.42382   0.96420   0.00000  Uiso   1.00
H168   H     0.67431   0.24057   0.67884   0.00000  Uiso   1.00
H169   H     0.34827   0.12976   0.81644   0.00000  Uiso   1.00
H170   H     0.32937   0.02457   0.89431   0.00000  Uiso   1.00
H171   H     0.27092   0.22164   0.84118   0.00000  Uiso   1.00
H172   H     0.43202   0.13473   0.70586   0.00000  Uiso   1.00
H173   H     0.32807   0.92117   0.99323   0.00000  Uiso   1.00
H174   H     0.20484   0.33670   0.88119   0.00000  Uiso   1.00
H175   H     0.54454   0.15344   0.59583   0.00000  Uiso   1.00
O176   O     0.38324   0.89738   0.08772   0.00000  Uiso   1.00
O177   O     0.22157   0.44254   0.94072   0.00000  Uiso   1.00
O178   O     0.66725   0.20211   0.56634   0.00000  Uiso   1.00
N179   N     0.42990   0.00222   0.04601   0.00000  Uiso   1.00
N180   N     0.31468   0.39071   0.94127   0.00000  Uiso   1.00
N181   N     0.63227   0.21940   0.67448   0.00000  Uiso   1.00
N182   N     0.36007   0.95534   0.00134   0.00000  Uiso   1.00
N183   N     0.24485   0.34383   0.89661   0.00000  Uiso   1.00
N184   N     0.56244   0.17251   0.62981   0.00000  Uiso   1.00
C185   C     0.21184   0.94860   0.43281   0.00000  Uiso   1.00
C186   C     0.14853   0.95949   0.41589   0.00000  Uiso   1.00
C187   C     0.10878   0.00854   0.43643   0.00000  Uiso   1.00
C188   C     0.05296   0.01024   0.41565   0.00000  Uiso   1.00
C189   C     0.95702   0.03412   0.39542   0.00000  Uiso   1.00
C190   C     0.26319   0.95029   0.36921   0.00000  Uiso   1.00
C191   C     0.31986   0.99159   0.35052   0.00000  Uiso   1.00
C192   C     0.36057   0.98553   0.29046   0.00000  Uiso   1.00
C193   C     0.44268   0.99509   0.19778   0.00000  Uiso   1.00
C194   C     0.20430   0.87833   0.46300   0.00000  Uiso   1.00
C195   C     0.21146   0.85912   0.52316   0.00000  Uiso   1.00
C196   C     0.20259   0.79247   0.54206   0.00000  Uiso   1.00
C197   C     0.19326   0.69031   0.59500   0.00000  Uiso   1.00
C198   C     0.18339   0.86440   0.35939   0.00000  Uiso   1.00
C199   C     0.13308   0.91376   0.37600   0.00000  Uiso   1.00
C200   C     0.07730   0.91538   0.35520   0.00000  Uiso   1.00
C201   C     0.03747   0.96442   0.37571   0.00000  Uiso   1.00
C202   C     0.24774   0.90456   0.32933   0.00000  Uiso   1.00
C203   C     0.28838   0.89843   0.26929   0.00000  Uiso   1.00
C204   C     0.34509   0.93971   0.25051   0.00000  Uiso   1.00
C205   C     0.18884   0.83259   0.42312   0.00000  Uiso   1.00
C206   C     0.17998   0.76597   0.44193   0.00000  Uiso   1.00
C207   C     0.18712   0.74666   0.50211   0.00000  Uiso   1.00
H208   H     0.22387   0.98421   0.46385   0.00000  Uiso   1.00
H209   H     0.12075   0.04393   0.46728   0.00000  Uiso   1.00
H210   H     0.33180   0.02697   0.38139   0.00000  Uiso   1.00
H211   H     0.22341   0.89453   0.55401   0.00000  Uiso   1.00
H212   H     0.99963   0.08998   0.45349   0.00000  Uiso   1.00
H213   H     0.44465   0.05421   0.27238   0.00000  Uiso   1.00
H214   H     0.21609   0.77493   0.63638   0.00000  Uiso   1.00
H215   H     0.17136   0.82880   0.32834   0.00000  Uiso   1.00
H216   H     0.06536   0.87998   0.32434   0.00000  Uiso   1.00
H217   H     0.27641   0.86303   0.23844   0.00000  Uiso   1.00
H218   H     0.16802   0.73059   0.41106   0.00000  Uiso   1.00
H219   H     0.95467   0.95692   0.33746   0.00000  Uiso   1.00
H220   H     0.39969   0.92116   0.15636   0.00000  Uiso   1.00
H221   H     0.17113   0.64187   0.52035   0.00000  Uiso   1.00
O222   O     0.90838   0.05994   0.39527   0.00000  Uiso   1.00
O223   O     0.49223   0.01301   0.15768   0.00000  Uiso   1.00
O224   O     0.19236   0.64660   0.63523   0.00000  Uiso   1.00
N225   N     0.00359   0.05163   0.42674   0.00000  Uiso   1.00
N226   N     0.41965   0.01820   0.25742   0.00000  Uiso   1.00
N227   N     0.20599   0.75709   0.59771   0.00000  Uiso   1.00
N228   N     0.97940   0.98003   0.36431   0.00000  Uiso   1.00
N229   N     0.39546   0.94660   0.19498   0.00000  Uiso   1.00
N230   N     0.18179   0.68549   0.53528   0.00000  Uiso   1.00
C231   C     0.98111   0.41143   0.19618   0.00000  Uiso   1.00
C232   C     0.99698   0.38412   0.13088   0.00000  Uiso   1.00
C233   C     0.05011   0.40489   0.07992   0.00000  Uiso   1.00
C234   C     0.05601   0.37370   0.02421   0.00000  Uiso   1.00
C235   C     0.08760   0.33891   0.92351   0.00000  Uiso   1.00
C236   C     0.97558   0.35312   0.24527   0.00000  Uiso   1.00
C237   C     0.01071   0.34783   0.29050   0.00000  Uiso   1.00
C238   C     0.99859   0.29054   0.33109   0.00000  Uiso   1.00
C239   C     0.99692   0.20764   0.40802   0.00000  Uiso   1.00
C240   C     0.91322   0.43376   0.20669   0.00000  Uiso   1.00
C241   C     0.89593   0.49627   0.21949   0.00000  Uiso   1.00
C242   C     0.83130   0.50687   0.22761   0.00000  Uiso   1.00
C243   C     0.73282   0.54918   0.24462   0.00000  Uiso   1.00
C244   C     0.89711   0.31910   0.18784   0.00000  Uiso   1.00
C245   C     0.95135   0.33397   0.12635   0.00000  Uiso   1.00
C246   C     0.95717   0.30274   0.07070   0.00000  Uiso   1.00
C247   C     0.01030   0.32347   0.01967   0.00000  Uiso   1.00
C248   C     0.92995   0.30297   0.24074   0.00000  Uiso   1.00
C249   C     0.91777   0.24568   0.28128   0.00000  Uiso   1.00
C250   C     0.95287   0.24030   0.32655   0.00000  Uiso   1.00
C251   C     0.86759   0.38362   0.20215   0.00000  Uiso   1.00
C252   C     0.80298   0.39412   0.21026   0.00000  Uiso   1.00
C253   C     0.78559   0.45664   0.22307   0.00000  Uiso   1.00
H254   H     0.01664   0.45047   0.19971   0.00000  Uiso   1.00
H255   H     0.08542   0.44370   0.08345   0.00000  Uiso   1.00
H256   H     0.04601   0.38665   0.29400   0.00000  Uiso   1.00
H257   H     0.93125   0.53507   0.22299   0.00000  Uiso   1.00
H258   H     0.14156   0.41407   0.95256   0.00000  Uiso   1.00
H259   H     0.05846   0.29377   0.39653   0.00000  Uiso   1.00
H260   H     0.81646   0.60675   0.24681   0.00000  Uiso   1.00
H261   H     0.86158   0.28006   0.18432   0.00000  Uiso   1.00
H262   H     0.92185   0.26394   0.06720   0.00000  Uiso   1.00
H263   H     0.88245   0.20688   0.27776   0.00000  Uiso   1.00
H264   H     0.76768   0.35530   0.20675   0.00000  Uiso   1.00
H265   H     0.00880   0.26816   0.93938   0.00000  Uiso   1.00
H266   H     0.92570   0.14787   0.38335   0.00000  Uiso   1.00
H267   H     0.68370   0.46084   0.23362   0.00000  Uiso   1.00
O268   O     0.11763   0.33357   0.86922   0.00000  Uiso   1.00
O269   O     0.00861   0.17576   0.45170   0.00000  Uiso   1.00
O270   O     0.69111   0.58637   0.25525   0.00000  Uiso   1.00
N271   N     0.10204   0.38195   0.96553   0.00000  Uiso   1.00
N272   N     0.02435   0.26948   0.38061   0.00000  Uiso   1.00
N273   N     0.79810   0.56208   0.24064   0.00000  Uiso   1.00
N274   N     0.03060   0.30344   0.95843   0.00000  Uiso   1.00
N275   N     0.95292   0.19097   0.37351   0.00000  Uiso   1.00
N276   N     0.72666   0.48357   0.23354   0.00000  Uiso   1.00
C277   C     0.09590   0.50825   0.32816   0.00000  Uiso   1.00
C278   C     0.12134   0.50478   0.38759   0.00000  Uiso   1.00
C279   C     0.10397   0.45560   0.43754   0.00000  Uiso   1.00
C280   C     0.13266   0.46134   0.48757   0.00000  Uiso   1.00
C281   C     0.16542   0.44786   0.57982   0.00000  Uiso   1.00
C282   C     0.15527   0.51296   0.27099   0.00000  Uiso   1.00
C283   C     0.16642   0.47065   0.22291   0.00000  Uiso   1.00
C284   C     0.22366   0.48328   0.17478   0.00000  Uiso   1.00
C285   C     0.30907   0.48253   0.08600   0.00000  Uiso   1.00
C286   C     0.06719   0.57394   0.32592   0.00000  Uiso   1.00
C287   C     0.00429   0.58292   0.32399   0.00000  Uiso   1.00
C288   C     0.98739   0.64691   0.32209   0.00000  Uiso   1.00
C289   C     0.93604   0.74084   0.31859   0.00000  Uiso   1.00
C290   C     0.17775   0.60592   0.32819   0.00000  Uiso   1.00
C291   C     0.16580   0.55783   0.38760   0.00000  Uiso   1.00
C292   C     0.19452   0.56365   0.43757   0.00000  Uiso   1.00
C293   C     0.17719   0.51448   0.48758   0.00000  Uiso   1.00
C294   C     0.19972   0.56600   0.27101   0.00000  Uiso   1.00
C295   C     0.25697   0.57870   0.22294   0.00000  Uiso   1.00
C296   C     0.26820   0.53643   0.17479   0.00000  Uiso   1.00
C297   C     0.11165   0.62699   0.32593   0.00000  Uiso   1.00
C298   C     0.09484   0.69098   0.32403   0.00000  Uiso   1.00
C299   C     0.03192   0.70005   0.32211   0.00000  Uiso   1.00
H300   H     0.06130   0.46695   0.32815   0.00000  Uiso   1.00
H301   H     0.06957   0.41455   0.43751   0.00000  Uiso   1.00
H302   H     0.13200   0.42961   0.22291   0.00000  Uiso   1.00
H303   H     0.96990   0.54186   0.32398   0.00000  Uiso   1.00
H304   H     0.09837   0.37983   0.55875   0.00000  Uiso   1.00
H305   H     0.23000   0.41159   0.10624   0.00000  Uiso   1.00
H306   H     0.88817   0.64830   0.31938   0.00000  Uiso   1.00
H307   H     0.21236   0.64722   0.32820   0.00000  Uiso   1.00
H308   H     0.22892   0.60471   0.43756   0.00000  Uiso   1.00
H309   H     0.29135   0.61976   0.22296   0.00000  Uiso   1.00
H310   H     0.12925   0.73202   0.32404   0.00000  Uiso   1.00
H311   H     0.22770   0.53417   0.55879   0.00000  Uiso   1.00
H312   H     0.35933   0.56593   0.10628   0.00000  Uiso   1.00
H313   H     0.01751   0.80264   0.31942   0.00000  Uiso   1.00
O314   O     0.17122   0.42577   0.63070   0.00000  Uiso   1.00
O315   O     0.34391   0.46745   0.03703   0.00000  Uiso   1.00
O316   O     0.89544   0.77800   0.31666   0.00000  Uiso   1.00
N317   N     0.12652   0.42199   0.54376   0.00000  Uiso   1.00
N318   N     0.24959   0.45168   0.12069   0.00000  Uiso   1.00
N319   N     0.93002   0.67299   0.31994   0.00000  Uiso   1.00
N320   N     0.19612   0.50504   0.54378   0.00000  Uiso   1.00
N321   N     0.31919   0.53473   0.12072   0.00000  Uiso   1.00
N322   N     0.99962   0.75604   0.31996   0.00000  Uiso   1.00
C323   C     0.32958   0.07871   0.51860   0.00000  Uiso   1.00
C324   C     0.40059   0.10505   0.49902   0.00000  Uiso   1.00
C325   C     0.44925   0.08120   0.45307   0.00000  Uiso   1.00
C326   C     0.51111   0.11201   0.44210   0.00000  Uiso   1.00
C327   C     0.61945   0.14490   0.40654   0.00000  Uiso   1.00
C328   C     0.29153   0.13676   0.50873   0.00000  Uiso   1.00
C329   C     0.24847   0.13956   0.47093   0.00000  Uiso   1.00
C330   C     0.21852   0.19705   0.46815   0.00000  Uiso   1.00
C331   C     0.15749   0.27915   0.44768   0.00000  Uiso   1.00
C332   C     0.31260   0.06089   0.59072   0.00000  Uiso   1.00
C333   C     0.28724   0.99990   0.62187   0.00000  Uiso   1.00
C334   C     0.27501   0.99352   0.68811   0.00000  Uiso   1.00
C335   C     0.24670   0.95782   0.79495   0.00000  Uiso   1.00
C336   C     0.35292   0.17583   0.58086   0.00000  Uiso   1.00
C337   C     0.41327   0.15781   0.53284   0.00000  Uiso   1.00
C338   C     0.47508   0.18865   0.52195   0.00000  Uiso   1.00
C339   C     0.52381   0.16485   0.47598   0.00000  Uiso   1.00
C340   C     0.30421   0.18951   0.54254   0.00000  Uiso   1.00
C341   C     0.27430   0.24701   0.53981   0.00000  Uiso   1.00
C342   C     0.23122   0.24990   0.50202   0.00000  Uiso   1.00
C343   C     0.32528   0.11364   0.62453   0.00000  Uiso   1.00
C344   C     0.31308   0.10736   0.69074   0.00000  Uiso   1.00
C345   C     0.28771   0.04637   0.72199   0.00000  Uiso   1.00
H346   H     0.31970   0.03764   0.49228   0.00000  Uiso   1.00
H347   H     0.43941   0.04038   0.42690   0.00000  Uiso   1.00
H348   H     0.23867   0.09872   0.44478   0.00000  Uiso   1.00
H349   H     0.27744   0.95909   0.59568   0.00000  Uiso   1.00
H350   H     0.57773   0.06669   0.36932   0.00000  Uiso   1.00
H351   H     0.15443   0.18971   0.40703   0.00000  Uiso   1.00
H352   H     0.23617   0.89526   0.72524   0.00000  Uiso   1.00
H353   H     0.36279   0.21691   0.60719   0.00000  Uiso   1.00
H354   H     0.48487   0.22948   0.54812   0.00000  Uiso   1.00
H355   H     0.28412   0.28782   0.56599   0.00000  Uiso   1.00
H356   H     0.32289   0.14819   0.71690   0.00000  Uiso   1.00
H357   H     0.61462   0.22017   0.46770   0.00000  Uiso   1.00
H358   H     0.19132   0.34319   0.50541   0.00000  Uiso   1.00
H359   H     0.27307   0.04874   0.82362   0.00000  Uiso   1.00
O360   O     0.67570   0.14848   0.37757   0.00000  Uiso   1.00
O361   O     0.12034   0.30987   0.42704   0.00000  Uiso   1.00
O362   O     0.22759   0.92356   0.84453   0.00000  Uiso   1.00
N363   N     0.56966   0.10108   0.40059   0.00000  Uiso   1.00
N364   N     0.17390   0.21610   0.43583   0.00000  Uiso   1.00
N365   N     0.25032   0.94082   0.73334   0.00000  Uiso   1.00
N366   N     0.58951   0.18366   0.45353   0.00000  Uiso   1.00
N367   N     0.19376   0.29868   0.48877   0.00000  Uiso   1.00
N368   N     0.27017   0.02340   0.78628   0.00000  Uiso   1.00
C369   C     0.62575   0.31455   0.03579   0.00000  Uiso   1.00
C370   C     0.59561   0.37531   0.06230   0.00000  Uiso   1.00
C371   C     0.54286   0.40192   0.04792   0.00000  Uiso   1.00
C372   C     0.52262   0.45766   0.07712   0.00000  Uiso   1.00
C373   C     0.47102   0.54772   0.11191   0.00000  Uiso   1.00
C374   C     0.62443   0.26776   0.09386   0.00000  Uiso   1.00
C375   C     0.59591   0.20394   0.10600   0.00000  Uiso   1.00
C376   C     0.59993   0.16914   0.16177   0.00000  Uiso   1.00
C377   C     0.59312   0.09221   0.24552   0.00000  Uiso   1.00
C378   C     0.69686   0.33598   0.00428   0.00000  Uiso   1.00
C379   C     0.72925   0.32950   0.94112   0.00000  Uiso   1.00
C380   C     0.79426   0.35212   0.92147   0.00000  Uiso   1.00
C381   C     0.89990   0.38111   0.86615   0.00000  Uiso   1.00
C382   C     0.68362   0.36622   0.11322   0.00000  Uiso   1.00
C383   C     0.62704   0.40338   0.10436   0.00000  Uiso   1.00
C384   C     0.60688   0.45909   0.13358   0.00000  Uiso   1.00
C385   C     0.55411   0.48578   0.11925   0.00000  Uiso   1.00
C386   C     0.65586   0.29583   0.13591   0.00000  Uiso   1.00
C387   C     0.65993   0.26111   0.19167   0.00000  Uiso   1.00
C388   C     0.63142   0.19726   0.20390   0.00000  Uiso   1.00
C389   C     0.72829   0.36405   0.04634   0.00000  Uiso   1.00
C390   C     0.79327   0.38667   0.02679   0.00000  Uiso   1.00
C391   C     0.82575   0.38023   0.96360   0.00000  Uiso   1.00
H392   H     0.60128   0.29269   0.00305   0.00000  Uiso   1.00
H393   H     0.51854   0.38018   0.01537   0.00000  Uiso   1.00
H394   H     0.57159   0.18223   0.07345   0.00000  Uiso   1.00
H395   H     0.70491   0.30777   0.90859   0.00000  Uiso   1.00
H396   H     0.44066   0.48954   0.04760   0.00000  Uiso   1.00
H397   H     0.55254   0.07214   0.17004   0.00000  Uiso   1.00
H398   H     0.83366   0.33688   0.82240   0.00000  Uiso   1.00
H399   H     0.70809   0.38807   0.14596   0.00000  Uiso   1.00
H400   H     0.63121   0.48080   0.16613   0.00000  Uiso   1.00
H401   H     0.68426   0.28285   0.22420   0.00000  Uiso   1.00
H402   H     0.81758   0.40839   0.05934   0.00000  Uiso   1.00
H403   H     0.53211   0.57121   0.16996   0.00000  Uiso   1.00
H404   H     0.64399   0.15381   0.29240   0.00000  Uiso   1.00
H405   H     0.92511   0.41854   0.94476   0.00000  Uiso   1.00
O406   O     0.43387   0.58964   0.11948   0.00000  Uiso   1.00
O407   O     0.58066   0.04202   0.28011   0.00000  Uiso   1.00
O408   O     0.94949   0.38935   0.82402   0.00000  Uiso   1.00
N409   N     0.47274   0.49604   0.07362   0.00000  Uiso   1.00
N410   N     0.57733   0.10580   0.18810   0.00000  Uiso   1.00
N411   N     0.84016   0.35329   0.86309   0.00000  Uiso   1.00
N412   N     0.52195   0.53999   0.13946   0.00000  Uiso   1.00
N413   N     0.62654   0.14975   0.25394   0.00000  Uiso   1.00
N414   N     0.88937   0.39724   0.92893   0.00000  Uiso   1.00
C415   C     0.53489   0.79180   0.10882   0.00000  Uiso   1.00
C416   C     0.56165   0.86003   0.07707   0.00000  Uiso   1.00
C417   C     0.54526   0.89127   0.02549   0.00000  Uiso   1.00
C418   C     0.57509   0.95360   0.00342   0.00000  Uiso   1.00
C419   C     0.60988   0.05498   0.94976   0.00000  Uiso   1.00
C420   C     0.59341   0.75296   0.10593   0.00000  Uiso   1.00
C421   C     0.60372   0.69418   0.07862   0.00000  Uiso   1.00
C422   C     0.66029   0.66638   0.08085   0.00000  Uiso   1.00
C423   C     0.74437   0.60151   0.07203   0.00000  Uiso   1.00
C424   C     0.50588   0.80018   0.17945   0.00000  Uiso   1.00
C425   C     0.44260   0.78110   0.21397   0.00000  Uiso   1.00
C426   C     0.42548   0.79304   0.27810   0.00000  Uiso   1.00
C427   C     0.37365   0.80149   0.38344   0.00000  Uiso   1.00
C428   C     0.61701   0.84693   0.16134   0.00000  Uiso   1.00
C429   C     0.60625   0.88997   0.10560   0.00000  Uiso   1.00
C430   C     0.63612   0.95227   0.08360   0.00000  Uiso   1.00
C431   C     0.61977   0.98361   0.03200   0.00000  Uiso   1.00
C432   C     0.63802   0.78290   0.13445   0.00000  Uiso   1.00
C433   C     0.69458   0.75518   0.13673   0.00000  Uiso   1.00
C434   C     0.70497   0.69638   0.10943   0.00000  Uiso   1.00
C435   C     0.55049   0.83013   0.20798   0.00000  Uiso   1.00
C436   C     0.53346   0.84210   0.27208   0.00000  Uiso   1.00
C437   C     0.47016   0.82304   0.30669   0.00000  Uiso   1.00
H438   H     0.50017   0.76848   0.08661   0.00000  Uiso   1.00
H439   H     0.51075   0.86808   0.00342   0.00000  Uiso   1.00
H440   H     0.56919   0.67102   0.05655   0.00000  Uiso   1.00
H441   H     0.40810   0.75793   0.19187   0.00000  Uiso   1.00
H442   H     0.54216   0.99170   0.92376   0.00000  Uiso   1.00
H443   H     0.66539   0.57618   0.03580   0.00000  Uiso   1.00
H444   H     0.32569   0.75943   0.32116   0.00000  Uiso   1.00
H445   H     0.65173   0.87024   0.18356   0.00000  Uiso   1.00
H446   H     0.67063   0.97543   0.10569   0.00000  Uiso   1.00
H447   H     0.72908   0.77836   0.15882   0.00000  Uiso   1.00
H448   H     0.56798   0.86527   0.29414   0.00000  Uiso   1.00
H449   H     0.67193   0.07883   0.00677   0.00000  Uiso   1.00
H450   H     0.79516   0.66330   0.11881   0.00000  Uiso   1.00
H451   H     0.45546   0.84656   0.40417   0.00000  Uiso   1.00
O452   O     0.61676   0.10262   0.91228   0.00000  Uiso   1.00
O453   O     0.77843   0.55746   0.05928   0.00000  Uiso   1.00
O454   O     0.33275   0.79789   0.43366   0.00000  Uiso   1.00
N455   N     0.57010   0.99778   0.95399   0.00000  Uiso   1.00
N456   N     0.68532   0.60929   0.05873   0.00000  Uiso   1.00
N457   N     0.36773   0.78060   0.32552   0.00000  Uiso   1.00
N458   N     0.63993   0.04466   0.99866   0.00000  Uiso   1.00
N459   N     0.75515   0.65617   0.10339   0.00000  Uiso   1.00
N460   N     0.43756   0.82749   0.37019   0.00000  Uiso   1.00
C461   C     0.78816   0.05140   0.56719   0.00000  Uiso   1.00
C462   C     0.85147   0.04051   0.58411   0.00000  Uiso   1.00
C463   C     0.89122   0.99146   0.56357   0.00000  Uiso   1.00
C464   C     0.94704   0.98976   0.58435   0.00000  Uiso   1.00
C465   C     0.04298   0.96588   0.60458   0.00000  Uiso   1.00
C466   C     0.73681   0.04971   0.63079   0.00000  Uiso   1.00
C467   C     0.68014   0.00841   0.64948   0.00000  Uiso   1.00
C468   C     0.63943   0.01447   0.70954   0.00000  Uiso   1.00
C469   C     0.55732   0.00491   0.80222   0.00000  Uiso   1.00
C470   C     0.79570   0.12167   0.53700   0.00000  Uiso   1.00
C471   C     0.78854   0.14088   0.47684   0.00000  Uiso   1.00
C472   C     0.79741   0.20753   0.45794   0.00000  Uiso   1.00
C473   C     0.80674   0.30969   0.40500   0.00000  Uiso   1.00
C474   C     0.81661   0.13560   0.64061   0.00000  Uiso   1.00
C475   C     0.86692   0.08624   0.62400   0.00000  Uiso   1.00
C476   C     0.92270   0.08462   0.64480   0.00000  Uiso   1.00
C477   C     0.96253   0.03558   0.62429   0.00000  Uiso   1.00
C478   C     0.75226   0.09544   0.67067   0.00000  Uiso   1.00
C479   C     0.71162   0.10157   0.73071   0.00000  Uiso   1.00
C480   C     0.65491   0.06029   0.74949   0.00000  Uiso   1.00
C481   C     0.81116   0.16741   0.57688   0.00000  Uiso   1.00
C482   C     0.82002   0.23403   0.55807   0.00000  Uiso   1.00
C483   C     0.81288   0.25334   0.49789   0.00000  Uiso   1.00
H484   H     0.77613   0.01579   0.53615   0.00000  Uiso   1.00
H485   H     0.87925   0.95607   0.53272   0.00000  Uiso   1.00
H486   H     0.66820   0.97303   0.61861   0.00000  Uiso   1.00
H487   H     0.77659   0.10547   0.44599   0.00000  Uiso   1.00
H488   H     0.00037   0.91002   0.54651   0.00000  Uiso   1.00
H489   H     0.55535   0.94579   0.72762   0.00000  Uiso   1.00
H490   H     0.78391   0.22507   0.36362   0.00000  Uiso   1.00
H491   H     0.82864   0.17120   0.67166   0.00000  Uiso   1.00
H492   H     0.93464   0.12002   0.67566   0.00000  Uiso   1.00
H493   H     0.72359   0.13697   0.76156   0.00000  Uiso   1.00
H494   H     0.83198   0.26941   0.58894   0.00000  Uiso   1.00
H495   H     0.04533   0.04308   0.66254   0.00000  Uiso   1.00
H496   H     0.60031   0.07884   0.84364   0.00000  Uiso   1.00
H497   H     0.82887   0.35813   0.47965   0.00000  Uiso   1.00
O498   O     0.09162   0.94006   0.60473   0.00000  Uiso   1.00
O499   O     0.50777   0.98699   0.84232   0.00000  Uiso   1.00
O500   O     0.80764   0.35340   0.36477   0.00000  Uiso   1.00
N501   N     0.99641   0.94837   0.57326   0.00000  Uiso   1.00
N502   N     0.58035   0.98180   0.74258   0.00000  Uiso   1.00
N503   N     0.79401   0.24291   0.40229   0.00000  Uiso   1.00
N504   N     0.02060   0.01997   0.63569   0.00000  Uiso   1.00
N505   N     0.60454   0.05340   0.80502   0.00000  Uiso   1.00
N506   N     0.81821   0.31451   0.46472   0.00000  Uiso   1.00
C507   C     0.01889   0.58857   0.80382   0.00000  Uiso   1.00
C508   C     0.00302   0.61588   0.86912   0.00000  Uiso   1.00
C509   C     0.94989   0.59511   0.92008   0.00000  Uiso   1.00
C510   C     0.94399   0.62630   0.97579   0.00000  Uiso   1.00
C511   C     0.91240   0.66109   0.07649   0.00000  Uiso   1.00
C512   C     0.02442   0.64688   0.75473   0.00000  Uiso   1.00
C513   C     0.98929   0.65217   0.70950   0.00000  Uiso   1.00
C514   C     0.00141   0.70946   0.66891   0.00000  Uiso   1.00
C515   C     0.00308   0.79236   0.59198   0.00000  Uiso   1.00
C516   C     0.08678   0.56624   0.79331   0.00000  Uiso   1.00
C517   C     0.10407   0.50373   0.78051   0.00000  Uiso   1.00
C518   C     0.16870   0.49313   0.77239   0.00000  Uiso   1.00
C519   C     0.26718   0.45082   0.75538   0.00000  Uiso   1.00
C520   C     0.10289   0.68090   0.81216   0.00000  Uiso   1.00
C521   C     0.04865   0.66603   0.87365   0.00000  Uiso   1.00
C522   C     0.04283   0.69726   0.92930   0.00000  Uiso   1.00
C523   C     0.98970   0.67653   0.98033   0.00000  Uiso   1.00
C524   C     0.07005   0.69703   0.75926   0.00000  Uiso   1.00
C525   C     0.08223   0.75432   0.71872   0.00000  Uiso   1.00
C526   C     0.04713   0.75970   0.67345   0.00000  Uiso   1.00
C527   C     0.13241   0.61638   0.79785   0.00000  Uiso   1.00
C528   C     0.19702   0.60588   0.78974   0.00000  Uiso   1.00
C529   C     0.21441   0.54336   0.77693   0.00000  Uiso   1.00
H530   H     0.98336   0.54953   0.80029   0.00000  Uiso   1.00
H531   H     0.91458   0.55630   0.91655   0.00000  Uiso   1.00
H532   H     0.95399   0.61335   0.70600   0.00000  Uiso   1.00
H533   H     0.06875   0.46493   0.77701   0.00000  Uiso   1.00
H534   H     0.85844   0.58593   0.04744   0.00000  Uiso   1.00
H535   H     0.94154   0.70623   0.60347   0.00000  Uiso   1.00
H536   H     0.18354   0.39325   0.75319   0.00000  Uiso   1.00
H537   H     0.13842   0.71994   0.81568   0.00000  Uiso   1.00
H538   H     0.07815   0.73606   0.93280   0.00000  Uiso   1.00
H539   H     0.11755   0.79312   0.72224   0.00000  Uiso   1.00
H540   H     0.23232   0.64470   0.79325   0.00000  Uiso   1.00
H541   H     0.99120   0.73184   0.06062   0.00000  Uiso   1.00
H542   H     0.07430   0.85213   0.61665   0.00000  Uiso   1.00
H543   H     0.31630   0.53916   0.76638   0.00000  Uiso   1.00
O544   O     0.88237   0.66643   0.13078   0.00000  Uiso   1.00
O545   O     0.99139   0.82424   0.54830   0.00000  Uiso   1.00
O546   O     0.30889   0.41363   0.74475   0.00000  Uiso   1.00
N547   N     0.89796   0.61805   0.03447   0.00000  Uiso   1.00
N548   N     0.97565   0.73052   0.61939   0.00000  Uiso   1.00
N549   N     0.20190   0.43792   0.75936   0.00000  Uiso   1.00
N550   N     0.96940   0.69656   0.04157   0.00000  Uiso   1.00
N551   N     0.04708   0.80903   0.62649   0.00000  Uiso   1.00
N552   N     0.27334   0.51643   0.76646   0.00000  Uiso   1.00
