data_job_02276
_audit_creation_date              2018-12-19
_audit_creation_method            'Materials Studio'
_symmetry_space_group_name_H-M    'P1'
_symmetry_Int_Tables_number       1
_symmetry_cell_setting            triclinic
loop_
_symmetry_equiv_pos_as_xyz
  x,y,z
_cell_length_a                    21.8775
_cell_length_b                    12.5126
_cell_length_c                    13.9775
_cell_angle_alpha                 90.0000
_cell_angle_beta                  106.7970
_cell_angle_gamma                 90.0000
loop_
_atom_site_label
_atom_site_type_symbol
_atom_site_fract_x
_atom_site_fract_y
_atom_site_fract_z
_atom_site_U_iso_or_equiv
_atom_site_adp_type
_atom_site_occupancy
C1     C     0.32964   0.58771   0.97770   0.00000  Uiso   1.00
C2     C     0.26101   0.56994   0.97941   0.00000  Uiso   1.00
C3     C     0.20691   0.58136   0.89853   0.00000  Uiso   1.00
C4     C     0.14845   0.56148   0.91540   0.00000  Uiso   1.00
C5     C     0.04251   0.53853   0.90370   0.00000  Uiso   1.00
C6     C     0.35762   0.67117   0.05791   0.00000  Uiso   1.00
C7     C     0.38476   0.76771   0.04302   0.00000  Uiso   1.00
C8     C     0.40763   0.83303   0.12599   0.00000  Uiso   1.00
C9     C     0.45172   0.96721   0.23618   0.00000  Uiso   1.00
C10    C     0.36508   0.48391   0.01489   0.00000  Uiso   1.00
C11    C     0.39850   0.42301   0.96385   0.00000  Uiso   1.00
C12    C     0.42767   0.33068   0.01060   0.00000  Uiso   1.00
C13    C     0.48334   0.17411   0.05400   0.00000  Uiso   1.00
C14    C     0.32202   0.53207   0.15149   0.00000  Uiso   1.00
C15    C     0.25687   0.53972   0.07381   0.00000  Uiso   1.00
C16    C     0.19848   0.51980   0.09081   0.00000  Uiso   1.00
C17    C     0.14430   0.53120   0.00996   0.00000  Uiso   1.00
C18    C     0.35348   0.64096   0.15230   0.00000  Uiso   1.00
C19    C     0.37633   0.70615   0.23531   0.00000  Uiso   1.00
C20    C     0.40349   0.80275   0.22056   0.00000  Uiso   1.00
C21    C     0.36094   0.45369   0.10929   0.00000  Uiso   1.00
C22    C     0.39007   0.36144   0.15613   0.00000  Uiso   1.00
C23    C     0.42353   0.30041   0.10517   0.00000  Uiso   1.00
H24    H     0.33287   0.61125   0.90421   0.00000  Uiso   1.00
H25    H     0.21013   0.60476   0.82548   0.00000  Uiso   1.00
H26    H     0.38796   0.79107   0.96997   0.00000  Uiso   1.00
H27    H     0.40170   0.44642   0.89080   0.00000  Uiso   1.00
H28    H     0.07223   0.58428   0.77984   0.00000  Uiso   1.00
H29    H     0.44721   0.97710   0.08450   0.00000  Uiso   1.00
H30    H     0.47618   0.25034   0.91756   0.00000  Uiso   1.00
H31    H     0.31880   0.50855   0.22499   0.00000  Uiso   1.00
H32    H     0.19529   0.49642   0.16387   0.00000  Uiso   1.00
H33    H     0.37312   0.68273   0.30835   0.00000  Uiso   1.00
H34    H     0.38685   0.33808   0.22918   0.00000  Uiso   1.00
H35    H     0.06018   0.49635   0.05449   0.00000  Uiso   1.00
H36    H     0.43516   0.88917   0.35914   0.00000  Uiso   1.00
H37    H     0.46413   0.16241   0.19220   0.00000  Uiso   1.00
O38    O     0.98521   0.53423   0.87118   0.00000  Uiso   1.00
O39    O     0.47718   0.04958   0.27087   0.00000  Uiso   1.00
O40    O     0.51518   0.09609   0.05185   0.00000  Uiso   1.00
N41    N     0.08635   0.56523   0.85286   0.00000  Uiso   1.00
N42    N     0.43692   0.93250   0.13769   0.00000  Uiso   1.00
N43    N     0.46402   0.25306   0.98163   0.00000  Uiso   1.00
N44    N     0.07986   0.51792   0.00065   0.00000  Uiso   1.00
N45    N     0.43044   0.88519   0.28548   0.00000  Uiso   1.00
N46    N     0.45754   0.20574   0.12942   0.00000  Uiso   1.00
C47    C     0.67036   0.08771   0.52230   0.00000  Uiso   1.00
C48    C     0.73899   0.06994   0.52059   0.00000  Uiso   1.00
C49    C     0.79309   0.08136   0.60147   0.00000  Uiso   1.00
C50    C     0.85155   0.06148   0.58460   0.00000  Uiso   1.00
C51    C     0.95749   0.03853   0.59630   0.00000  Uiso   1.00
C52    C     0.64238   0.17117   0.44209   0.00000  Uiso   1.00
C53    C     0.61524   0.26771   0.45698   0.00000  Uiso   1.00
C54    C     0.59237   0.33303   0.37401   0.00000  Uiso   1.00
C55    C     0.54828   0.46721   0.26382   0.00000  Uiso   1.00
C56    C     0.63492   0.98391   0.48511   0.00000  Uiso   1.00
C57    C     0.60150   0.92301   0.53615   0.00000  Uiso   1.00
C58    C     0.57233   0.83068   0.48940   0.00000  Uiso   1.00
C59    C     0.51666   0.67411   0.44600   0.00000  Uiso   1.00
C60    C     0.67798   0.03207   0.34851   0.00000  Uiso   1.00
C61    C     0.74313   0.03972   0.42619   0.00000  Uiso   1.00
C62    C     0.80152   0.01980   0.40919   0.00000  Uiso   1.00
C63    C     0.85570   0.03120   0.49004   0.00000  Uiso   1.00
C64    C     0.64652   0.14096   0.34770   0.00000  Uiso   1.00
C65    C     0.62367   0.20615   0.26469   0.00000  Uiso   1.00
C66    C     0.59651   0.30275   0.27944   0.00000  Uiso   1.00
C67    C     0.63906   0.95369   0.39071   0.00000  Uiso   1.00
C68    C     0.60993   0.86144   0.34387   0.00000  Uiso   1.00
C69    C     0.57647   0.80041   0.39483   0.00000  Uiso   1.00
H70    H     0.66713   0.11125   0.59579   0.00000  Uiso   1.00
H71    H     0.78987   0.10476   0.67452   0.00000  Uiso   1.00
H72    H     0.61204   0.29107   0.53003   0.00000  Uiso   1.00
H73    H     0.59830   0.94642   0.60920   0.00000  Uiso   1.00
H74    H     0.92777   0.08428   0.72016   0.00000  Uiso   1.00
H75    H     0.55279   0.47710   0.41550   0.00000  Uiso   1.00
H76    H     0.52382   0.75034   0.58244   0.00000  Uiso   1.00
H77    H     0.68120   0.00855   0.27501   0.00000  Uiso   1.00
H78    H     0.80471   0.99642   0.33613   0.00000  Uiso   1.00
H79    H     0.62688   0.18273   0.19165   0.00000  Uiso   1.00
H80    H     0.61315   0.83808   0.27082   0.00000  Uiso   1.00
H81    H     0.93982   0.99635   0.44551   0.00000  Uiso   1.00
H82    H     0.56484   0.38917   0.14086   0.00000  Uiso   1.00
H83    H     0.53587   0.66241   0.30780   0.00000  Uiso   1.00
O84    O     0.01479   0.03423   0.62882   0.00000  Uiso   1.00
O85    O     0.52282   0.54958   0.22913   0.00000  Uiso   1.00
O86    O     0.48482   0.59609   0.44815   0.00000  Uiso   1.00
N87    N     0.91365   0.06523   0.64714   0.00000  Uiso   1.00
N88    N     0.56308   0.43250   0.36231   0.00000  Uiso   1.00
N89    N     0.53598   0.75306   0.51837   0.00000  Uiso   1.00
N90    N     0.92014   0.01792   0.49935   0.00000  Uiso   1.00
N91    N     0.56956   0.38519   0.21452   0.00000  Uiso   1.00
N92    N     0.54246   0.70574   0.37058   0.00000  Uiso   1.00
C93    C     0.67036   0.41229   0.02230   0.00000  Uiso   1.00
C94    C     0.73899   0.43006   0.02059   0.00000  Uiso   1.00
C95    C     0.79309   0.41864   0.10147   0.00000  Uiso   1.00
C96    C     0.85155   0.43852   0.08460   0.00000  Uiso   1.00
C97    C     0.95749   0.46147   0.09630   0.00000  Uiso   1.00
C98    C     0.64238   0.32883   0.94209   0.00000  Uiso   1.00
C99    C     0.61524   0.23229   0.95698   0.00000  Uiso   1.00
C100   C     0.59237   0.16697   0.87401   0.00000  Uiso   1.00
C101   C     0.54828   0.03279   0.76382   0.00000  Uiso   1.00
C102   C     0.63492   0.51609   0.98511   0.00000  Uiso   1.00
C103   C     0.60150   0.57699   0.03615   0.00000  Uiso   1.00
C104   C     0.57233   0.66932   0.98940   0.00000  Uiso   1.00
C105   C     0.51666   0.82589   0.94600   0.00000  Uiso   1.00
C106   C     0.67798   0.46793   0.84851   0.00000  Uiso   1.00
C107   C     0.74313   0.46028   0.92619   0.00000  Uiso   1.00
C108   C     0.80152   0.48020   0.90919   0.00000  Uiso   1.00
C109   C     0.85570   0.46880   0.99004   0.00000  Uiso   1.00
C110   C     0.64652   0.35904   0.84770   0.00000  Uiso   1.00
C111   C     0.62367   0.29385   0.76469   0.00000  Uiso   1.00
C112   C     0.59651   0.19725   0.77944   0.00000  Uiso   1.00
C113   C     0.63906   0.54631   0.89071   0.00000  Uiso   1.00
C114   C     0.60993   0.63856   0.84387   0.00000  Uiso   1.00
C115   C     0.57647   0.69959   0.89483   0.00000  Uiso   1.00
H116   H     0.66713   0.38875   0.09579   0.00000  Uiso   1.00
H117   H     0.78987   0.39524   0.17452   0.00000  Uiso   1.00
H118   H     0.61204   0.20893   0.03003   0.00000  Uiso   1.00
H119   H     0.59830   0.55358   0.10920   0.00000  Uiso   1.00
H120   H     0.92777   0.41572   0.22016   0.00000  Uiso   1.00
H121   H     0.55279   0.02290   0.91550   0.00000  Uiso   1.00
H122   H     0.52382   0.74966   0.08244   0.00000  Uiso   1.00
H123   H     0.68120   0.49145   0.77501   0.00000  Uiso   1.00
H124   H     0.80471   0.50358   0.83613   0.00000  Uiso   1.00
H125   H     0.62688   0.31727   0.69165   0.00000  Uiso   1.00
H126   H     0.61315   0.66192   0.77082   0.00000  Uiso   1.00
H127   H     0.93982   0.50365   0.94551   0.00000  Uiso   1.00
H128   H     0.56484   0.11083   0.64086   0.00000  Uiso   1.00
H129   H     0.53587   0.83759   0.80780   0.00000  Uiso   1.00
O130   O     0.01479   0.46577   0.12882   0.00000  Uiso   1.00
O131   O     0.52282   0.95042   0.72913   0.00000  Uiso   1.00
O132   O     0.48482   0.90391   0.94815   0.00000  Uiso   1.00
N133   N     0.91365   0.43477   0.14714   0.00000  Uiso   1.00
N134   N     0.56308   0.06750   0.86231   0.00000  Uiso   1.00
N135   N     0.53598   0.74694   0.01837   0.00000  Uiso   1.00
N136   N     0.92014   0.48208   0.99935   0.00000  Uiso   1.00
N137   N     0.56956   0.11481   0.71452   0.00000  Uiso   1.00
N138   N     0.54246   0.79426   0.87058   0.00000  Uiso   1.00
C139   C     0.32964   0.91229   0.47770   0.00000  Uiso   1.00
C140   C     0.26101   0.93006   0.47941   0.00000  Uiso   1.00
C141   C     0.20691   0.91864   0.39853   0.00000  Uiso   1.00
C142   C     0.14845   0.93852   0.41540   0.00000  Uiso   1.00
C143   C     0.04251   0.96147   0.40370   0.00000  Uiso   1.00
C144   C     0.35762   0.82883   0.55791   0.00000  Uiso   1.00
C145   C     0.38476   0.73229   0.54302   0.00000  Uiso   1.00
C146   C     0.40763   0.66697   0.62599   0.00000  Uiso   1.00
C147   C     0.45172   0.53279   0.73618   0.00000  Uiso   1.00
C148   C     0.36508   0.01609   0.51489   0.00000  Uiso   1.00
C149   C     0.39850   0.07699   0.46385   0.00000  Uiso   1.00
C150   C     0.42767   0.16932   0.51060   0.00000  Uiso   1.00
C151   C     0.48334   0.32589   0.55400   0.00000  Uiso   1.00
C152   C     0.32202   0.96793   0.65149   0.00000  Uiso   1.00
C153   C     0.25687   0.96028   0.57381   0.00000  Uiso   1.00
C154   C     0.19848   0.98020   0.59081   0.00000  Uiso   1.00
C155   C     0.14430   0.96880   0.50996   0.00000  Uiso   1.00
C156   C     0.35348   0.85904   0.65230   0.00000  Uiso   1.00
C157   C     0.37633   0.79385   0.73531   0.00000  Uiso   1.00
C158   C     0.40349   0.69725   0.72056   0.00000  Uiso   1.00
C159   C     0.36094   0.04631   0.60929   0.00000  Uiso   1.00
C160   C     0.39007   0.13856   0.65613   0.00000  Uiso   1.00
C161   C     0.42353   0.19959   0.60517   0.00000  Uiso   1.00
H162   H     0.33287   0.88875   0.40421   0.00000  Uiso   1.00
H163   H     0.21013   0.89524   0.32548   0.00000  Uiso   1.00
H164   H     0.38796   0.70893   0.46997   0.00000  Uiso   1.00
H165   H     0.40170   0.05358   0.39080   0.00000  Uiso   1.00
H166   H     0.07223   0.91572   0.27984   0.00000  Uiso   1.00
H167   H     0.44721   0.52290   0.58450   0.00000  Uiso   1.00
H168   H     0.47618   0.24966   0.41756   0.00000  Uiso   1.00
H169   H     0.31880   0.99145   0.72499   0.00000  Uiso   1.00
H170   H     0.19529   0.00358   0.66387   0.00000  Uiso   1.00
H171   H     0.37312   0.81727   0.80835   0.00000  Uiso   1.00
H172   H     0.38685   0.16192   0.72918   0.00000  Uiso   1.00
H173   H     0.06018   0.00365   0.55449   0.00000  Uiso   1.00
H174   H     0.43516   0.61083   0.85914   0.00000  Uiso   1.00
H175   H     0.46413   0.33759   0.69220   0.00000  Uiso   1.00
O176   O     0.98521   0.96577   0.37118   0.00000  Uiso   1.00
O177   O     0.47718   0.45042   0.77087   0.00000  Uiso   1.00
O178   O     0.51518   0.40391   0.55185   0.00000  Uiso   1.00
N179   N     0.08635   0.93477   0.35286   0.00000  Uiso   1.00
N180   N     0.43692   0.56750   0.63769   0.00000  Uiso   1.00
N181   N     0.46402   0.24694   0.48163   0.00000  Uiso   1.00
N182   N     0.07986   0.98208   0.50065   0.00000  Uiso   1.00
N183   N     0.43044   0.61481   0.78548   0.00000  Uiso   1.00
N184   N     0.45754   0.29426   0.62942   0.00000  Uiso   1.00
