data_job_03258
_audit_creation_date              2018-12-19
_audit_creation_method            'Materials Studio'
_symmetry_space_group_name_H-M    'P1'
_symmetry_Int_Tables_number       1
_symmetry_cell_setting            triclinic
loop_
_symmetry_equiv_pos_as_xyz
  x,y,z
_cell_length_a                    10.2276
_cell_length_b                    12.0093
_cell_length_c                    16.1295
_cell_angle_alpha                 92.4064
_cell_angle_beta                  106.5360
_cell_angle_gamma                 66.3656
loop_
_atom_site_label
_atom_site_type_symbol
_atom_site_fract_x
_atom_site_fract_y
_atom_site_fract_z
_atom_site_U_iso_or_equiv
_atom_site_adp_type
_atom_site_occupancy
C1     C     0.52372   0.37703   0.71192   0.00000  Uiso   1.00
C2     C     0.59347   0.46741   0.74478   0.00000  Uiso   1.00
C3     C     0.73764   0.45151   0.74971   0.00000  Uiso   1.00
C4     C     0.78034   0.54482   0.78164   0.00000  Uiso   1.00
C5     C     0.90359   0.66911   0.82874   0.00000  Uiso   1.00
C6     C     0.47135   0.34983   0.78524   0.00000  Uiso   1.00
C7     C     0.51284   0.23506   0.82417   0.00000  Uiso   1.00
C8     C     0.45271   0.22940   0.89016   0.00000  Uiso   1.00
C9     C     0.38628   0.17112   0.00003   0.00000  Uiso   1.00
C10    C     0.38261   0.44677   0.63860   0.00000  Uiso   1.00
C11    C     0.34946   0.41351   0.55425   0.00000  Uiso   1.00
C12    C     0.21460   0.48944   0.49678   0.00000  Uiso   1.00
C13    C     0.01039   0.58169   0.37898   0.00000  Uiso   1.00
C14    C     0.34316   0.57101   0.75986   0.00000  Uiso   1.00
C15    C     0.49540   0.57277   0.77082   0.00000  Uiso   1.00
C16    C     0.53788   0.66614   0.80275   0.00000  Uiso   1.00
C17    C     0.68209   0.65038   0.80773   0.00000  Uiso   1.00
C18    C     0.37328   0.45519   0.81128   0.00000  Uiso   1.00
C19    C     0.31308   0.44969   0.87722   0.00000  Uiso   1.00
C20    C     0.35447   0.33495   0.91625   0.00000  Uiso   1.00
C21    C     0.28454   0.55214   0.66464   0.00000  Uiso   1.00
C22    C     0.14970   0.62814   0.60729   0.00000  Uiso   1.00
C23    C     0.11635   0.59500   0.52287   0.00000  Uiso   1.00
H24    H     0.60007   0.29499   0.69164   0.00000  Uiso   1.00
H25    H     0.81351   0.36995   0.72955   0.00000  Uiso   1.00
H26    H     0.58872   0.15354   0.80400   0.00000  Uiso   1.00
H27    H     0.42538   0.33196   0.53412   0.00000  Uiso   1.00
H28    H     0.00692   0.49951   0.78310   0.00000  Uiso   1.00
H29    H     0.53290   0.04319   0.94005   0.00000  Uiso   1.00
H30    H     0.18845   0.41942   0.37095   0.00000  Uiso   1.00
H31    H     0.26681   0.65305   0.78014   0.00000  Uiso   1.00
H32    H     0.46196   0.74766   0.82290   0.00000  Uiso   1.00
H33    H     0.23718   0.53124   0.89735   0.00000  Uiso   1.00
H34    H     0.07384   0.70967   0.62747   0.00000  Uiso   1.00
H35    H     0.72159   0.80607   0.85887   0.00000  Uiso   1.00
H36    H     0.24757   0.34974   0.01582   0.00000  Uiso   1.00
H37    H     0.90313   0.72598   0.44672   0.00000  Uiso   1.00
O38    O     0.99866   0.70855   0.84754   0.00000  Uiso   1.00
O39    O     0.37675   0.10987   0.05345   0.00000  Uiso   1.00
O40    O     0.92485   0.60348   0.30681   0.00000  Uiso   1.00
N41    N     0.91297   0.55868   0.79504   0.00000  Uiso   1.00
N42    N     0.46982   0.13205   0.94180   0.00000  Uiso   1.00
N43    N     0.14777   0.48378   0.40974   0.00000  Uiso   1.00
N44    N     0.75944   0.72364   0.83581   0.00000  Uiso   1.00
N45    N     0.31629   0.29701   0.98257   0.00000  Uiso   1.00
N46    N     0.99424   0.64874   0.45051   0.00000  Uiso   1.00
C47    C     0.47628   0.62297   0.28808   0.00000  Uiso   1.00
C48    C     0.40653   0.53259   0.25522   0.00000  Uiso   1.00
C49    C     0.26236   0.54849   0.25029   0.00000  Uiso   1.00
C50    C     0.21966   0.45518   0.21836   0.00000  Uiso   1.00
C51    C     0.09641   0.33089   0.17126   0.00000  Uiso   1.00
C52    C     0.52865   0.65017   0.21476   0.00000  Uiso   1.00
C53    C     0.48716   0.76494   0.17583   0.00000  Uiso   1.00
C54    C     0.54729   0.77060   0.10984   0.00000  Uiso   1.00
C55    C     0.61372   0.82888   0.99997   0.00000  Uiso   1.00
C56    C     0.61739   0.55323   0.36140   0.00000  Uiso   1.00
C57    C     0.65054   0.58649   0.44575   0.00000  Uiso   1.00
C58    C     0.78540   0.51056   0.50322   0.00000  Uiso   1.00
C59    C     0.98961   0.41831   0.62102   0.00000  Uiso   1.00
C60    C     0.65684   0.42899   0.24014   0.00000  Uiso   1.00
C61    C     0.50460   0.42723   0.22918   0.00000  Uiso   1.00
C62    C     0.46212   0.33386   0.19725   0.00000  Uiso   1.00
C63    C     0.31791   0.34962   0.19227   0.00000  Uiso   1.00
C64    C     0.62672   0.54481   0.18872   0.00000  Uiso   1.00
C65    C     0.68692   0.55031   0.12278   0.00000  Uiso   1.00
C66    C     0.64553   0.66505   0.08375   0.00000  Uiso   1.00
C67    C     0.71546   0.44786   0.33536   0.00000  Uiso   1.00
C68    C     0.85030   0.37186   0.39271   0.00000  Uiso   1.00
C69    C     0.88365   0.40500   0.47713   0.00000  Uiso   1.00
H70    H     0.39993   0.70501   0.30836   0.00000  Uiso   1.00
H71    H     0.18649   0.63005   0.27045   0.00000  Uiso   1.00
H72    H     0.41128   0.84646   0.19600   0.00000  Uiso   1.00
H73    H     0.57462   0.66804   0.46588   0.00000  Uiso   1.00
H74    H     0.99308   0.50049   0.21690   0.00000  Uiso   1.00
H75    H     0.46710   0.95681   0.05995   0.00000  Uiso   1.00
H76    H     0.81155   0.58058   0.62905   0.00000  Uiso   1.00
H77    H     0.73319   0.34695   0.21986   0.00000  Uiso   1.00
H78    H     0.53804   0.25234   0.17710   0.00000  Uiso   1.00
H79    H     0.76282   0.46876   0.10265   0.00000  Uiso   1.00
H80    H     0.92616   0.29033   0.37253   0.00000  Uiso   1.00
H81    H     0.27841   0.19393   0.14113   0.00000  Uiso   1.00
H82    H     0.75243   0.65026   0.98418   0.00000  Uiso   1.00
H83    H     0.09687   0.27402   0.55328   0.00000  Uiso   1.00
O84    O     0.00134   0.29145   0.15246   0.00000  Uiso   1.00
O85    O     0.62325   0.89013   0.94655   0.00000  Uiso   1.00
O86    O     0.07515   0.39652   0.69319   0.00000  Uiso   1.00
N87    N     0.08703   0.44132   0.20496   0.00000  Uiso   1.00
N88    N     0.53018   0.86795   0.05820   0.00000  Uiso   1.00
N89    N     0.85223   0.51622   0.59026   0.00000  Uiso   1.00
N90    N     0.24056   0.27636   0.16419   0.00000  Uiso   1.00
N91    N     0.68371   0.70299   0.01743   0.00000  Uiso   1.00
N92    N     0.00576   0.35126   0.54949   0.00000  Uiso   1.00
