data_job_05650
_audit_creation_date              2018-12-19
_audit_creation_method            'Materials Studio'
_symmetry_space_group_name_H-M    'P1'
_symmetry_Int_Tables_number       1
_symmetry_cell_setting            triclinic
loop_
_symmetry_equiv_pos_as_xyz
  x,y,z
_cell_length_a                    15.4610
_cell_length_b                    14.9442
_cell_length_c                    9.7649
_cell_angle_alpha                 90.0000
_cell_angle_beta                  90.0000
_cell_angle_gamma                 90.0000
loop_
_atom_site_label
_atom_site_type_symbol
_atom_site_fract_x
_atom_site_fract_y
_atom_site_fract_z
_atom_site_U_iso_or_equiv
_atom_site_adp_type
_atom_site_occupancy
C1     C     0.08153   0.30154   0.33809   0.00000  Uiso   1.00
C2     C     0.15778   0.36374   0.31069   0.00000  Uiso   1.00
C3     C     0.15988   0.43177   0.21402   0.00000  Uiso   1.00
C4     C     0.23570   0.48118   0.20474   0.00000  Uiso   1.00
C5     C     0.34330   0.58048   0.14931   0.00000  Uiso   1.00
C6     C     0.11603   0.20666   0.32018   0.00000  Uiso   1.00
C7     C     0.08302   0.14263   0.23150   0.00000  Uiso   1.00
C8     C     0.12370   0.05980   0.23022   0.00000  Uiso   1.00
C9     C     0.16644   0.91522   0.18959   0.00000  Uiso   1.00
C10    C     0.06050   0.31143   0.48990   0.00000  Uiso   1.00
C11    C     0.98079   0.33545   0.54394   0.00000  Uiso   1.00
C12    C     0.97471   0.34081   0.68557   0.00000  Uiso   1.00
C13    C     0.93123   0.35888   0.90846   0.00000  Uiso   1.00
C14    C     0.21245   0.26830   0.49352   0.00000  Uiso   1.00
C15    C     0.22889   0.34568   0.39512   0.00000  Uiso   1.00
C16    C     0.30473   0.39500   0.38599   0.00000  Uiso   1.00
C17    C     0.30694   0.46310   0.28932   0.00000  Uiso   1.00
C18    C     0.18714   0.18861   0.40460   0.00000  Uiso   1.00
C19    C     0.22787   0.10585   0.40346   0.00000  Uiso   1.00
C20    C     0.19494   0.04171   0.31479   0.00000  Uiso   1.00
C21    C     0.13161   0.29337   0.57433   0.00000  Uiso   1.00
C22    C     0.12565   0.29868   0.71590   0.00000  Uiso   1.00
C23    C     0.04595   0.32272   0.77014   0.00000  Uiso   1.00
H24    H     0.02617   0.31559   0.27236   0.00000  Uiso   1.00
H25    H     0.10484   0.44572   0.14870   0.00000  Uiso   1.00
H26    H     0.02799   0.15662   0.16619   0.00000  Uiso   1.00
H27    H     0.92578   0.34942   0.47858   0.00000  Uiso   1.00
H28    H     0.22343   0.58201   0.04879   0.00000  Uiso   1.00
H29    H     0.06137   0.97241   0.08570   0.00000  Uiso   1.00
H30    H     0.84584   0.37897   0.74443   0.00000  Uiso   1.00
H31    H     0.26782   0.25424   0.55925   0.00000  Uiso   1.00
H32    H     0.35975   0.38101   0.45133   0.00000  Uiso   1.00
H33    H     0.28290   0.09191   0.46881   0.00000  Uiso   1.00
H34    H     0.18069   0.28471   0.78120   0.00000  Uiso   1.00
H35    H     0.43033   0.52949   0.29441   0.00000  Uiso   1.00
H36    H     0.26826   0.91989   0.33132   0.00000  Uiso   1.00
H37    H     0.05273   0.32645   0.99006   0.00000  Uiso   1.00
O38    O     0.38301   0.64023   0.09540   0.00000  Uiso   1.00
O39    O     0.17038   0.84046   0.14384   0.00000  Uiso   1.00
O40    O     0.88760   0.37385   0.00808   0.00000  Uiso   1.00
N41    N     0.25950   0.55226   0.12142   0.00000  Uiso   1.00
N42    N     0.10799   0.98233   0.15592   0.00000  Uiso   1.00
N43    N     0.90648   0.36240   0.77178   0.00000  Uiso   1.00
N44    N     0.37083   0.52400   0.25359   0.00000  Uiso   1.00
N45    N     0.21932   0.95407   0.28808   0.00000  Uiso   1.00
N46    N     0.01781   0.33414   0.90395   0.00000  Uiso   1.00
C47    C     0.91847   0.69846   0.33809   0.00000  Uiso   1.00
C48    C     0.84222   0.63626   0.31069   0.00000  Uiso   1.00
C49    C     0.84012   0.56823   0.21402   0.00000  Uiso   1.00
C50    C     0.76430   0.51882   0.20474   0.00000  Uiso   1.00
C51    C     0.65670   0.41952   0.14931   0.00000  Uiso   1.00
C52    C     0.88397   0.79334   0.32018   0.00000  Uiso   1.00
C53    C     0.91698   0.85737   0.23150   0.00000  Uiso   1.00
C54    C     0.87630   0.94020   0.23022   0.00000  Uiso   1.00
C55    C     0.83356   0.08478   0.18959   0.00000  Uiso   1.00
C56    C     0.93950   0.68857   0.48990   0.00000  Uiso   1.00
C57    C     0.01921   0.66455   0.54394   0.00000  Uiso   1.00
C58    C     0.02529   0.65919   0.68557   0.00000  Uiso   1.00
C59    C     0.06877   0.64112   0.90846   0.00000  Uiso   1.00
C60    C     0.78755   0.73170   0.49352   0.00000  Uiso   1.00
C61    C     0.77111   0.65432   0.39512   0.00000  Uiso   1.00
C62    C     0.69527   0.60500   0.38599   0.00000  Uiso   1.00
C63    C     0.69306   0.53690   0.28932   0.00000  Uiso   1.00
C64    C     0.81286   0.81139   0.40460   0.00000  Uiso   1.00
C65    C     0.77213   0.89415   0.40346   0.00000  Uiso   1.00
C66    C     0.80506   0.95829   0.31479   0.00000  Uiso   1.00
C67    C     0.86839   0.70663   0.57433   0.00000  Uiso   1.00
C68    C     0.87435   0.70132   0.71590   0.00000  Uiso   1.00
C69    C     0.95405   0.67728   0.77014   0.00000  Uiso   1.00
H70    H     0.97383   0.68441   0.27236   0.00000  Uiso   1.00
H71    H     0.89516   0.55428   0.14870   0.00000  Uiso   1.00
H72    H     0.97201   0.84338   0.16619   0.00000  Uiso   1.00
H73    H     0.07422   0.65058   0.47858   0.00000  Uiso   1.00
H74    H     0.77657   0.41799   0.04879   0.00000  Uiso   1.00
H75    H     0.93863   0.02759   0.08570   0.00000  Uiso   1.00
H76    H     0.15416   0.62103   0.74443   0.00000  Uiso   1.00
H77    H     0.73218   0.74576   0.55925   0.00000  Uiso   1.00
H78    H     0.64025   0.61899   0.45133   0.00000  Uiso   1.00
H79    H     0.71710   0.90809   0.46881   0.00000  Uiso   1.00
H80    H     0.81931   0.71529   0.78120   0.00000  Uiso   1.00
H81    H     0.56967   0.47051   0.29441   0.00000  Uiso   1.00
H82    H     0.73174   0.08011   0.33132   0.00000  Uiso   1.00
H83    H     0.94727   0.67355   0.99006   0.00000  Uiso   1.00
O84    O     0.61699   0.35977   0.09540   0.00000  Uiso   1.00
O85    O     0.82962   0.15954   0.14384   0.00000  Uiso   1.00
O86    O     0.11240   0.62615   0.00808   0.00000  Uiso   1.00
N87    N     0.74050   0.44774   0.12142   0.00000  Uiso   1.00
N88    N     0.89201   0.01767   0.15592   0.00000  Uiso   1.00
N89    N     0.09352   0.63760   0.77178   0.00000  Uiso   1.00
N90    N     0.62917   0.47600   0.25359   0.00000  Uiso   1.00
N91    N     0.78068   0.04593   0.28808   0.00000  Uiso   1.00
N92    N     0.98219   0.66586   0.90395   0.00000  Uiso   1.00
C93    C     0.41847   0.80154   0.66191   0.00000  Uiso   1.00
C94    C     0.34222   0.86374   0.68931   0.00000  Uiso   1.00
C95    C     0.34012   0.93177   0.78598   0.00000  Uiso   1.00
C96    C     0.26430   0.98118   0.79526   0.00000  Uiso   1.00
C97    C     0.15670   0.08048   0.85069   0.00000  Uiso   1.00
C98    C     0.38397   0.70666   0.67982   0.00000  Uiso   1.00
C99    C     0.41698   0.64263   0.76850   0.00000  Uiso   1.00
C100   C     0.37630   0.55980   0.76978   0.00000  Uiso   1.00
C101   C     0.33356   0.41522   0.81041   0.00000  Uiso   1.00
C102   C     0.43950   0.81143   0.51010   0.00000  Uiso   1.00
C103   C     0.51921   0.83545   0.45606   0.00000  Uiso   1.00
C104   C     0.52529   0.84081   0.31443   0.00000  Uiso   1.00
C105   C     0.56877   0.85888   0.09154   0.00000  Uiso   1.00
C106   C     0.28755   0.76830   0.50648   0.00000  Uiso   1.00
C107   C     0.27111   0.84568   0.60488   0.00000  Uiso   1.00
C108   C     0.19527   0.89500   0.61401   0.00000  Uiso   1.00
C109   C     0.19306   0.96310   0.71068   0.00000  Uiso   1.00
C110   C     0.31286   0.68861   0.59540   0.00000  Uiso   1.00
C111   C     0.27213   0.60585   0.59654   0.00000  Uiso   1.00
C112   C     0.30506   0.54171   0.68521   0.00000  Uiso   1.00
C113   C     0.36839   0.79337   0.42567   0.00000  Uiso   1.00
C114   C     0.37435   0.79868   0.28410   0.00000  Uiso   1.00
C115   C     0.45405   0.82272   0.22986   0.00000  Uiso   1.00
H116   H     0.47383   0.81559   0.72764   0.00000  Uiso   1.00
H117   H     0.39516   0.94572   0.85130   0.00000  Uiso   1.00
H118   H     0.47201   0.65662   0.83381   0.00000  Uiso   1.00
H119   H     0.57422   0.84942   0.52142   0.00000  Uiso   1.00
H120   H     0.27657   0.08201   0.95121   0.00000  Uiso   1.00
H121   H     0.43863   0.47241   0.91430   0.00000  Uiso   1.00
H122   H     0.65416   0.87897   0.25557   0.00000  Uiso   1.00
H123   H     0.23218   0.75424   0.44075   0.00000  Uiso   1.00
H124   H     0.14025   0.88101   0.54867   0.00000  Uiso   1.00
H125   H     0.21710   0.59191   0.53119   0.00000  Uiso   1.00
H126   H     0.31931   0.78471   0.21880   0.00000  Uiso   1.00
H127   H     0.06967   0.02949   0.70559   0.00000  Uiso   1.00
H128   H     0.23174   0.41989   0.66868   0.00000  Uiso   1.00
H129   H     0.44727   0.82645   0.00994   0.00000  Uiso   1.00
O130   O     0.11699   0.14023   0.90460   0.00000  Uiso   1.00
O131   O     0.32962   0.34046   0.85616   0.00000  Uiso   1.00
O132   O     0.61240   0.87385   0.99192   0.00000  Uiso   1.00
N133   N     0.24050   0.05226   0.87858   0.00000  Uiso   1.00
N134   N     0.39201   0.48233   0.84408   0.00000  Uiso   1.00
N135   N     0.59352   0.86240   0.22822   0.00000  Uiso   1.00
N136   N     0.12917   0.02400   0.74641   0.00000  Uiso   1.00
N137   N     0.28068   0.45407   0.71192   0.00000  Uiso   1.00
N138   N     0.48219   0.83414   0.09605   0.00000  Uiso   1.00
C139   C     0.58153   0.19846   0.66191   0.00000  Uiso   1.00
C140   C     0.65778   0.13626   0.68931   0.00000  Uiso   1.00
C141   C     0.65988   0.06823   0.78598   0.00000  Uiso   1.00
C142   C     0.73570   0.01882   0.79526   0.00000  Uiso   1.00
C143   C     0.84330   0.91952   0.85069   0.00000  Uiso   1.00
C144   C     0.61603   0.29334   0.67982   0.00000  Uiso   1.00
C145   C     0.58302   0.35737   0.76850   0.00000  Uiso   1.00
C146   C     0.62370   0.44020   0.76978   0.00000  Uiso   1.00
C147   C     0.66644   0.58478   0.81041   0.00000  Uiso   1.00
C148   C     0.56050   0.18857   0.51010   0.00000  Uiso   1.00
C149   C     0.48079   0.16455   0.45606   0.00000  Uiso   1.00
C150   C     0.47471   0.15919   0.31443   0.00000  Uiso   1.00
C151   C     0.43123   0.14112   0.09154   0.00000  Uiso   1.00
C152   C     0.71245   0.23170   0.50648   0.00000  Uiso   1.00
C153   C     0.72889   0.15432   0.60488   0.00000  Uiso   1.00
C154   C     0.80473   0.10500   0.61401   0.00000  Uiso   1.00
C155   C     0.80694   0.03690   0.71068   0.00000  Uiso   1.00
C156   C     0.68714   0.31139   0.59540   0.00000  Uiso   1.00
C157   C     0.72787   0.39415   0.59654   0.00000  Uiso   1.00
C158   C     0.69494   0.45829   0.68521   0.00000  Uiso   1.00
C159   C     0.63161   0.20663   0.42567   0.00000  Uiso   1.00
C160   C     0.62565   0.20132   0.28410   0.00000  Uiso   1.00
C161   C     0.54595   0.17728   0.22986   0.00000  Uiso   1.00
H162   H     0.52617   0.18441   0.72764   0.00000  Uiso   1.00
H163   H     0.60484   0.05428   0.85130   0.00000  Uiso   1.00
H164   H     0.52799   0.34338   0.83381   0.00000  Uiso   1.00
H165   H     0.42578   0.15058   0.52142   0.00000  Uiso   1.00
H166   H     0.72343   0.91799   0.95121   0.00000  Uiso   1.00
H167   H     0.56137   0.52759   0.91430   0.00000  Uiso   1.00
H168   H     0.34584   0.12103   0.25557   0.00000  Uiso   1.00
H169   H     0.76782   0.24576   0.44075   0.00000  Uiso   1.00
H170   H     0.85975   0.11899   0.54867   0.00000  Uiso   1.00
H171   H     0.78290   0.40809   0.53119   0.00000  Uiso   1.00
H172   H     0.68069   0.21529   0.21880   0.00000  Uiso   1.00
H173   H     0.93033   0.97051   0.70559   0.00000  Uiso   1.00
H174   H     0.76826   0.58011   0.66868   0.00000  Uiso   1.00
H175   H     0.55273   0.17355   0.00994   0.00000  Uiso   1.00
O176   O     0.88301   0.85977   0.90460   0.00000  Uiso   1.00
O177   O     0.67038   0.65954   0.85616   0.00000  Uiso   1.00
O178   O     0.38760   0.12615   0.99192   0.00000  Uiso   1.00
N179   N     0.75950   0.94774   0.87858   0.00000  Uiso   1.00
N180   N     0.60799   0.51767   0.84408   0.00000  Uiso   1.00
N181   N     0.40648   0.13760   0.22822   0.00000  Uiso   1.00
N182   N     0.87083   0.97600   0.74641   0.00000  Uiso   1.00
N183   N     0.71932   0.54593   0.71192   0.00000  Uiso   1.00
N184   N     0.51781   0.16586   0.09605   0.00000  Uiso   1.00
