data_job_01931
_audit_creation_date              2018-12-19
_audit_creation_method            'Materials Studio'
_symmetry_space_group_name_H-M    'P1'
_symmetry_Int_Tables_number       1
_symmetry_cell_setting            triclinic
loop_
_symmetry_equiv_pos_as_xyz
  x,y,z
_cell_length_a                    11.7898
_cell_length_b                    11.9472
_cell_length_c                    24.9833
_cell_angle_alpha                 90.0000
_cell_angle_beta                  121.6100
_cell_angle_gamma                 90.0000
loop_
_atom_site_label
_atom_site_type_symbol
_atom_site_fract_x
_atom_site_fract_y
_atom_site_fract_z
_atom_site_U_iso_or_equiv
_atom_site_adp_type
_atom_site_occupancy
C1     C     0.46001   0.44590   0.28493   0.00000  Uiso   1.00
C2     C     0.31763   0.49032   0.24991   0.00000  Uiso   1.00
C3     C     0.23480   0.49859   0.18513   0.00000  Uiso   1.00
C4     C     0.10803   0.54146   0.16227   0.00000  Uiso   1.00
C5     C     0.89340   0.60541   0.10172   0.00000  Uiso   1.00
C6     C     0.54603   0.53888   0.32974   0.00000  Uiso   1.00
C7     C     0.65525   0.58796   0.33208   0.00000  Uiso   1.00
C8     C     0.72075   0.67169   0.37643   0.00000  Uiso   1.00
C9     C     0.86077   0.81097   0.43985   0.00000  Uiso   1.00
C10    C     0.46303   0.35062   0.32627   0.00000  Uiso   1.00
C11    C     0.50250   0.24140   0.32571   0.00000  Uiso   1.00
C12    C     0.49815   0.16663   0.36714   0.00000  Uiso   1.00
C13    C     0.50931   0.01360   0.42518   0.00000  Uiso   1.00
C14    C     0.38216   0.50733   0.35953   0.00000  Uiso   1.00
C15    C     0.27535   0.52369   0.29043   0.00000  Uiso   1.00
C16    C     0.14866   0.56656   0.26766   0.00000  Uiso   1.00
C17    C     0.06566   0.57488   0.20286   0.00000  Uiso   1.00
C18    C     0.50375   0.57225   0.37025   0.00000  Uiso   1.00
C19    C     0.56911   0.65592   0.41461   0.00000  Uiso   1.00
C20    C     0.67838   0.70512   0.41702   0.00000  Uiso   1.00
C21    C     0.42074   0.38398   0.36678   0.00000  Uiso   1.00
C22    C     0.41635   0.30937   0.40823   0.00000  Uiso   1.00
C23    C     0.45579   0.20006   0.40773   0.00000  Uiso   1.00
H24    H     0.49294   0.41993   0.25339   0.00000  Uiso   1.00
H25    H     0.26757   0.47277   0.15379   0.00000  Uiso   1.00
H26    H     0.68795   0.56211   0.30072   0.00000  Uiso   1.00
H27    H     0.53522   0.21561   0.29434   0.00000  Uiso   1.00
H28    H     0.99907   0.54610   0.06123   0.00000  Uiso   1.00
H29    H     0.88550   0.73446   0.37107   0.00000  Uiso   1.00
H30    H     0.56343   0.00379   0.35762   0.00000  Uiso   1.00
H31    H     0.34924   0.53331   0.39107   0.00000  Uiso   1.00
H32    H     0.11596   0.59237   0.29902   0.00000  Uiso   1.00
H33    H     0.53636   0.68172   0.44596   0.00000  Uiso   1.00
H34    H     0.38362   0.33522   0.43958   0.00000  Uiso   1.00
H35    H     0.87602   0.64318   0.17911   0.00000  Uiso   1.00
H36    H     0.76246   0.83154   0.48895   0.00000  Uiso   1.00
H37    H     0.44039   0.10087   0.47550   0.00000  Uiso   1.00
O38    O     0.78670   0.63148   0.05714   0.00000  Uiso   1.00
O39    O     0.94968   0.87858   0.46364   0.00000  Uiso   1.00
O40    O     0.52713   0.91997   0.44599   0.00000  Uiso   1.00
N41    N     0.00211   0.56082   0.10161   0.00000  Uiso   1.00
N42    N     0.83086   0.73694   0.39128   0.00000  Uiso   1.00
N43    N     0.52979   0.05383   0.37872   0.00000  Uiso   1.00
N44    N     0.93590   0.61306   0.16504   0.00000  Uiso   1.00
N45    N     0.76465   0.78918   0.45471   0.00000  Uiso   1.00
N46    N     0.46358   0.10607   0.44215   0.00000  Uiso   1.00
C47    C     0.53999   0.94590   0.21507   0.00000  Uiso   1.00
C48    C     0.68237   0.99032   0.25009   0.00000  Uiso   1.00
C49    C     0.76520   0.99859   0.31487   0.00000  Uiso   1.00
C50    C     0.89197   0.04146   0.33773   0.00000  Uiso   1.00
C51    C     0.10660   0.10541   0.39828   0.00000  Uiso   1.00
C52    C     0.45397   0.03888   0.17026   0.00000  Uiso   1.00
C53    C     0.34475   0.08796   0.16792   0.00000  Uiso   1.00
C54    C     0.27925   0.17169   0.12357   0.00000  Uiso   1.00
C55    C     0.13923   0.31097   0.06015   0.00000  Uiso   1.00
C56    C     0.53697   0.85062   0.17373   0.00000  Uiso   1.00
C57    C     0.49750   0.74140   0.17429   0.00000  Uiso   1.00
C58    C     0.50185   0.66663   0.13286   0.00000  Uiso   1.00
C59    C     0.49069   0.51360   0.07482   0.00000  Uiso   1.00
C60    C     0.61784   0.00733   0.14047   0.00000  Uiso   1.00
C61    C     0.72465   0.02369   0.20957   0.00000  Uiso   1.00
C62    C     0.85134   0.06656   0.23234   0.00000  Uiso   1.00
C63    C     0.93434   0.07488   0.29714   0.00000  Uiso   1.00
C64    C     0.49625   0.07225   0.12975   0.00000  Uiso   1.00
C65    C     0.43089   0.15592   0.08539   0.00000  Uiso   1.00
C66    C     0.32162   0.20512   0.08298   0.00000  Uiso   1.00
C67    C     0.57926   0.88398   0.13322   0.00000  Uiso   1.00
C68    C     0.58365   0.80937   0.09177   0.00000  Uiso   1.00
C69    C     0.54421   0.70006   0.09227   0.00000  Uiso   1.00
H70    H     0.50706   0.91993   0.24661   0.00000  Uiso   1.00
H71    H     0.73243   0.97277   0.34621   0.00000  Uiso   1.00
H72    H     0.31205   0.06211   0.19928   0.00000  Uiso   1.00
H73    H     0.46478   0.71561   0.20566   0.00000  Uiso   1.00
H74    H     0.00093   0.04610   0.43877   0.00000  Uiso   1.00
H75    H     0.11450   0.23446   0.12893   0.00000  Uiso   1.00
H76    H     0.43657   0.50379   0.14238   0.00000  Uiso   1.00
H77    H     0.65076   0.03331   0.10893   0.00000  Uiso   1.00
H78    H     0.88404   0.09237   0.20098   0.00000  Uiso   1.00
H79    H     0.46364   0.18172   0.05404   0.00000  Uiso   1.00
H80    H     0.61638   0.83522   0.06042   0.00000  Uiso   1.00
H81    H     0.12398   0.14318   0.32089   0.00000  Uiso   1.00
H82    H     0.23754   0.33154   0.01105   0.00000  Uiso   1.00
H83    H     0.55961   0.60087   0.02450   0.00000  Uiso   1.00
O84    O     0.21330   0.13148   0.44286   0.00000  Uiso   1.00
O85    O     0.05032   0.37858   0.03636   0.00000  Uiso   1.00
O86    O     0.47287   0.41997   0.05401   0.00000  Uiso   1.00
N87    N     0.99789   0.06082   0.39839   0.00000  Uiso   1.00
N88    N     0.16914   0.23694   0.10872   0.00000  Uiso   1.00
N89    N     0.47021   0.55383   0.12128   0.00000  Uiso   1.00
N90    N     0.06410   0.11306   0.33496   0.00000  Uiso   1.00
N91    N     0.23535   0.28918   0.04529   0.00000  Uiso   1.00
N92    N     0.53642   0.60607   0.05785   0.00000  Uiso   1.00
C93    C     0.53999   0.55410   0.71507   0.00000  Uiso   1.00
C94    C     0.68237   0.50968   0.75009   0.00000  Uiso   1.00
C95    C     0.76520   0.50141   0.81487   0.00000  Uiso   1.00
C96    C     0.89197   0.45854   0.83773   0.00000  Uiso   1.00
C97    C     0.10660   0.39459   0.89828   0.00000  Uiso   1.00
C98    C     0.45397   0.46112   0.67026   0.00000  Uiso   1.00
C99    C     0.34475   0.41204   0.66792   0.00000  Uiso   1.00
C100   C     0.27925   0.32831   0.62357   0.00000  Uiso   1.00
C101   C     0.13923   0.18903   0.56015   0.00000  Uiso   1.00
C102   C     0.53697   0.64938   0.67373   0.00000  Uiso   1.00
C103   C     0.49750   0.75860   0.67429   0.00000  Uiso   1.00
C104   C     0.50185   0.83337   0.63286   0.00000  Uiso   1.00
C105   C     0.49069   0.98640   0.57482   0.00000  Uiso   1.00
C106   C     0.61784   0.49267   0.64047   0.00000  Uiso   1.00
C107   C     0.72465   0.47631   0.70957   0.00000  Uiso   1.00
C108   C     0.85134   0.43344   0.73234   0.00000  Uiso   1.00
C109   C     0.93434   0.42512   0.79714   0.00000  Uiso   1.00
C110   C     0.49625   0.42775   0.62975   0.00000  Uiso   1.00
C111   C     0.43089   0.34408   0.58539   0.00000  Uiso   1.00
C112   C     0.32162   0.29488   0.58298   0.00000  Uiso   1.00
C113   C     0.57926   0.61602   0.63322   0.00000  Uiso   1.00
C114   C     0.58365   0.69063   0.59177   0.00000  Uiso   1.00
C115   C     0.54421   0.79994   0.59227   0.00000  Uiso   1.00
H116   H     0.50706   0.58007   0.74661   0.00000  Uiso   1.00
H117   H     0.73243   0.52723   0.84621   0.00000  Uiso   1.00
H118   H     0.31205   0.43789   0.69928   0.00000  Uiso   1.00
H119   H     0.46478   0.78439   0.70566   0.00000  Uiso   1.00
H120   H     0.00093   0.45390   0.93877   0.00000  Uiso   1.00
H121   H     0.11450   0.26554   0.62893   0.00000  Uiso   1.00
H122   H     0.43657   0.99621   0.64238   0.00000  Uiso   1.00
H123   H     0.65076   0.46669   0.60893   0.00000  Uiso   1.00
H124   H     0.88404   0.40763   0.70098   0.00000  Uiso   1.00
H125   H     0.46364   0.31828   0.55404   0.00000  Uiso   1.00
H126   H     0.61638   0.66478   0.56042   0.00000  Uiso   1.00
H127   H     0.12398   0.35682   0.82089   0.00000  Uiso   1.00
H128   H     0.23754   0.16846   0.51105   0.00000  Uiso   1.00
H129   H     0.55961   0.89913   0.52450   0.00000  Uiso   1.00
O130   O     0.21330   0.36852   0.94286   0.00000  Uiso   1.00
O131   O     0.05032   0.12142   0.53636   0.00000  Uiso   1.00
O132   O     0.47287   0.08003   0.55401   0.00000  Uiso   1.00
N133   N     0.99789   0.43918   0.89839   0.00000  Uiso   1.00
N134   N     0.16914   0.26306   0.60872   0.00000  Uiso   1.00
N135   N     0.47021   0.94617   0.62128   0.00000  Uiso   1.00
N136   N     0.06410   0.38694   0.83496   0.00000  Uiso   1.00
N137   N     0.23535   0.21082   0.54529   0.00000  Uiso   1.00
N138   N     0.53642   0.89393   0.55785   0.00000  Uiso   1.00
C139   C     0.46001   0.05410   0.78493   0.00000  Uiso   1.00
C140   C     0.31763   0.00968   0.74991   0.00000  Uiso   1.00
C141   C     0.23480   0.00141   0.68513   0.00000  Uiso   1.00
C142   C     0.10803   0.95854   0.66227   0.00000  Uiso   1.00
C143   C     0.89340   0.89459   0.60172   0.00000  Uiso   1.00
C144   C     0.54603   0.96112   0.82974   0.00000  Uiso   1.00
C145   C     0.65525   0.91204   0.83208   0.00000  Uiso   1.00
C146   C     0.72075   0.82831   0.87643   0.00000  Uiso   1.00
C147   C     0.86077   0.68903   0.93985   0.00000  Uiso   1.00
C148   C     0.46303   0.14938   0.82627   0.00000  Uiso   1.00
C149   C     0.50250   0.25860   0.82571   0.00000  Uiso   1.00
C150   C     0.49815   0.33337   0.86714   0.00000  Uiso   1.00
C151   C     0.50931   0.48640   0.92518   0.00000  Uiso   1.00
C152   C     0.38216   0.99267   0.85953   0.00000  Uiso   1.00
C153   C     0.27535   0.97631   0.79043   0.00000  Uiso   1.00
C154   C     0.14866   0.93344   0.76766   0.00000  Uiso   1.00
C155   C     0.06566   0.92512   0.70286   0.00000  Uiso   1.00
C156   C     0.50375   0.92775   0.87025   0.00000  Uiso   1.00
C157   C     0.56911   0.84408   0.91461   0.00000  Uiso   1.00
C158   C     0.67838   0.79488   0.91702   0.00000  Uiso   1.00
C159   C     0.42074   0.11602   0.86678   0.00000  Uiso   1.00
C160   C     0.41635   0.19063   0.90823   0.00000  Uiso   1.00
C161   C     0.45579   0.29994   0.90773   0.00000  Uiso   1.00
H162   H     0.49294   0.08007   0.75339   0.00000  Uiso   1.00
H163   H     0.26757   0.02723   0.65379   0.00000  Uiso   1.00
H164   H     0.68795   0.93789   0.80072   0.00000  Uiso   1.00
H165   H     0.53522   0.28439   0.79434   0.00000  Uiso   1.00
H166   H     0.99907   0.95390   0.56123   0.00000  Uiso   1.00
H167   H     0.88550   0.76554   0.87107   0.00000  Uiso   1.00
H168   H     0.56343   0.49621   0.85762   0.00000  Uiso   1.00
H169   H     0.34924   0.96669   0.89107   0.00000  Uiso   1.00
H170   H     0.11596   0.90763   0.79902   0.00000  Uiso   1.00
H171   H     0.53636   0.81828   0.94596   0.00000  Uiso   1.00
H172   H     0.38362   0.16478   0.93958   0.00000  Uiso   1.00
H173   H     0.87602   0.85682   0.67911   0.00000  Uiso   1.00
H174   H     0.76246   0.66846   0.98895   0.00000  Uiso   1.00
H175   H     0.44039   0.39913   0.97550   0.00000  Uiso   1.00
O176   O     0.78670   0.86852   0.55714   0.00000  Uiso   1.00
O177   O     0.94968   0.62142   0.96364   0.00000  Uiso   1.00
O178   O     0.52713   0.58003   0.94599   0.00000  Uiso   1.00
N179   N     0.00211   0.93918   0.60161   0.00000  Uiso   1.00
N180   N     0.83086   0.76306   0.89128   0.00000  Uiso   1.00
N181   N     0.52979   0.44617   0.87872   0.00000  Uiso   1.00
N182   N     0.93590   0.88694   0.66504   0.00000  Uiso   1.00
N183   N     0.76465   0.71082   0.95471   0.00000  Uiso   1.00
N184   N     0.46358   0.39393   0.94215   0.00000  Uiso   1.00
