data_job_05170
_audit_creation_date              2018-12-19
_audit_creation_method            'Materials Studio'
_symmetry_space_group_name_H-M    'P1'
_symmetry_Int_Tables_number       1
_symmetry_cell_setting            triclinic
loop_
_symmetry_equiv_pos_as_xyz
  x,y,z
_cell_length_a                    16.7649
_cell_length_b                    16.7649
_cell_length_c                    19.1016
_cell_angle_alpha                 90.0000
_cell_angle_beta                  90.0000
_cell_angle_gamma                 90.0000
loop_
_atom_site_label
_atom_site_type_symbol
_atom_site_fract_x
_atom_site_fract_y
_atom_site_fract_z
_atom_site_U_iso_or_equiv
_atom_site_adp_type
_atom_site_occupancy
C1     C     0.36949   0.68478   0.97767   0.00000  Uiso   1.00
C2     C     0.41017   0.74152   0.02885   0.00000  Uiso   1.00
C3     C     0.41524   0.73114   0.10079   0.00000  Uiso   1.00
C4     C     0.45494   0.78980   0.13846   0.00000  Uiso   1.00
C5     C     0.51299   0.86778   0.22298   0.00000  Uiso   1.00
C6     C     0.30774   0.73455   0.93859   0.00000  Uiso   1.00
C7     C     0.22669   0.71831   0.93463   0.00000  Uiso   1.00
C8     C     0.18016   0.77111   0.89630   0.00000  Uiso   1.00
C9     C     0.07919   0.83824   0.84064   0.00000  Uiso   1.00
C10    C     0.43269   0.66231   0.92375   0.00000  Uiso   1.00
C11    C     0.45669   0.58533   0.90731   0.00000  Uiso   1.00
C12    C     0.51535   0.57731   0.85648   0.00000  Uiso   1.00
C13    C     0.60838   0.53228   0.77778   0.00000  Uiso   1.00
C14    C     0.43097   0.80740   0.91664   0.00000  Uiso   1.00
C15    C     0.44356   0.80812   0.99570   0.00000  Uiso   1.00
C16    C     0.48326   0.86681   0.03327   0.00000  Uiso   1.00
C17    C     0.48839   0.85652   0.10525   0.00000  Uiso   1.00
C18    C     0.34113   0.80115   0.90544   0.00000  Uiso   1.00
C19    C     0.29471   0.85398   0.86710   0.00000  Uiso   1.00
C20    C     0.21361   0.83783   0.86309   0.00000  Uiso   1.00
C21    C     0.46609   0.72892   0.89060   0.00000  Uiso   1.00
C22    C     0.52471   0.72100   0.83978   0.00000  Uiso   1.00
C23    C     0.54880   0.64403   0.82327   0.00000  Uiso   1.00
H24    H     0.34349   0.63293   0.00348   0.00000  Uiso   1.00
H25    H     0.38938   0.67959   0.12643   0.00000  Uiso   1.00
H26    H     0.20086   0.66676   0.96028   0.00000  Uiso   1.00
H27    H     0.43083   0.53381   0.93297   0.00000  Uiso   1.00
H28    H     0.45497   0.76071   0.24813   0.00000  Uiso   1.00
H29    H     0.05747   0.73365   0.89778   0.00000  Uiso   1.00
H30    H     0.54240   0.45328   0.84018   0.00000  Uiso   1.00
H31    H     0.45697   0.85926   0.89083   0.00000  Uiso   1.00
H32    H     0.50910   0.91834   0.00760   0.00000  Uiso   1.00
H33    H     0.32058   0.90551   0.84145   0.00000  Uiso   1.00
H34    H     0.55054   0.77256   0.81414   0.00000  Uiso   1.00
H35    H     0.55213   0.95449   0.15168   0.00000  Uiso   1.00
H36    H     0.15463   0.92743   0.80133   0.00000  Uiso   1.00
H37    H     0.63956   0.64706   0.74373   0.00000  Uiso   1.00
O38    O     0.53577   0.89240   0.27875   0.00000  Uiso   1.00
O39    O     0.01427   0.85688   0.81910   0.00000  Uiso   1.00
O40    O     0.65048   0.48905   0.74354   0.00000  Uiso   1.00
N41    N     0.47070   0.79820   0.20940   0.00000  Uiso   1.00
N42    N     0.09906   0.77291   0.88186   0.00000  Uiso   1.00
N43    N     0.55241   0.51079   0.82799   0.00000  Uiso   1.00
N44    N     0.52298   0.90247   0.15750   0.00000  Uiso   1.00
N45    N     0.15134   0.87718   0.82996   0.00000  Uiso   1.00
N46    N     0.60469   0.61506   0.77610   0.00000  Uiso   1.00
C47    C     0.63051   0.31522   0.47767   0.00000  Uiso   1.00
C48    C     0.58983   0.25848   0.52885   0.00000  Uiso   1.00
C49    C     0.58476   0.26886   0.60079   0.00000  Uiso   1.00
C50    C     0.54506   0.21020   0.63846   0.00000  Uiso   1.00
C51    C     0.48701   0.13222   0.72298   0.00000  Uiso   1.00
C52    C     0.69226   0.26545   0.43859   0.00000  Uiso   1.00
C53    C     0.77331   0.28169   0.43463   0.00000  Uiso   1.00
C54    C     0.81984   0.22889   0.39630   0.00000  Uiso   1.00
C55    C     0.92081   0.16176   0.34064   0.00000  Uiso   1.00
C56    C     0.56731   0.33769   0.42375   0.00000  Uiso   1.00
C57    C     0.54331   0.41467   0.40731   0.00000  Uiso   1.00
C58    C     0.48465   0.42269   0.35648   0.00000  Uiso   1.00
C59    C     0.39162   0.46772   0.27778   0.00000  Uiso   1.00
C60    C     0.56903   0.19260   0.41664   0.00000  Uiso   1.00
C61    C     0.55644   0.19188   0.49570   0.00000  Uiso   1.00
C62    C     0.51674   0.13319   0.53327   0.00000  Uiso   1.00
C63    C     0.51161   0.14348   0.60525   0.00000  Uiso   1.00
C64    C     0.65887   0.19885   0.40544   0.00000  Uiso   1.00
C65    C     0.70529   0.14602   0.36710   0.00000  Uiso   1.00
C66    C     0.78639   0.16217   0.36309   0.00000  Uiso   1.00
C67    C     0.53391   0.27108   0.39060   0.00000  Uiso   1.00
C68    C     0.47529   0.27900   0.33978   0.00000  Uiso   1.00
C69    C     0.45120   0.35597   0.32327   0.00000  Uiso   1.00
H70    H     0.65651   0.36707   0.50348   0.00000  Uiso   1.00
H71    H     0.61062   0.32041   0.62643   0.00000  Uiso   1.00
H72    H     0.79914   0.33324   0.46028   0.00000  Uiso   1.00
H73    H     0.56917   0.46619   0.43297   0.00000  Uiso   1.00
H74    H     0.54503   0.23929   0.74813   0.00000  Uiso   1.00
H75    H     0.94253   0.26635   0.39778   0.00000  Uiso   1.00
H76    H     0.45760   0.54672   0.34018   0.00000  Uiso   1.00
H77    H     0.54303   0.14074   0.39083   0.00000  Uiso   1.00
H78    H     0.49090   0.08166   0.50760   0.00000  Uiso   1.00
H79    H     0.67942   0.09449   0.34145   0.00000  Uiso   1.00
H80    H     0.44946   0.22744   0.31414   0.00000  Uiso   1.00
H81    H     0.44787   0.04551   0.65168   0.00000  Uiso   1.00
H82    H     0.84537   0.07257   0.30133   0.00000  Uiso   1.00
H83    H     0.36044   0.35294   0.24373   0.00000  Uiso   1.00
O84    O     0.46423   0.10760   0.77875   0.00000  Uiso   1.00
O85    O     0.98573   0.14312   0.31910   0.00000  Uiso   1.00
O86    O     0.34952   0.51095   0.24354   0.00000  Uiso   1.00
N87    N     0.52930   0.20180   0.70940   0.00000  Uiso   1.00
N88    N     0.90094   0.22709   0.38186   0.00000  Uiso   1.00
N89    N     0.44759   0.48921   0.32799   0.00000  Uiso   1.00
N90    N     0.47702   0.09753   0.65750   0.00000  Uiso   1.00
N91    N     0.84866   0.12282   0.32996   0.00000  Uiso   1.00
N92    N     0.39531   0.38494   0.27610   0.00000  Uiso   1.00
C93    C     0.81522   0.86949   0.72767   0.00000  Uiso   1.00
C94    C     0.75848   0.91017   0.77885   0.00000  Uiso   1.00
C95    C     0.76886   0.91524   0.85079   0.00000  Uiso   1.00
C96    C     0.71020   0.95494   0.88846   0.00000  Uiso   1.00
C97    C     0.63222   0.01299   0.97298   0.00000  Uiso   1.00
C98    C     0.76545   0.80774   0.68859   0.00000  Uiso   1.00
C99    C     0.78169   0.72669   0.68463   0.00000  Uiso   1.00
C100   C     0.72889   0.68016   0.64630   0.00000  Uiso   1.00
C101   C     0.66176   0.57919   0.59064   0.00000  Uiso   1.00
C102   C     0.83769   0.93269   0.67375   0.00000  Uiso   1.00
C103   C     0.91467   0.95669   0.65731   0.00000  Uiso   1.00
C104   C     0.92269   0.01535   0.60648   0.00000  Uiso   1.00
C105   C     0.96772   0.10838   0.52778   0.00000  Uiso   1.00
C106   C     0.69260   0.93097   0.66664   0.00000  Uiso   1.00
C107   C     0.69188   0.94356   0.74570   0.00000  Uiso   1.00
C108   C     0.63319   0.98326   0.78327   0.00000  Uiso   1.00
C109   C     0.64348   0.98839   0.85525   0.00000  Uiso   1.00
C110   C     0.69885   0.84113   0.65544   0.00000  Uiso   1.00
C111   C     0.64602   0.79471   0.61710   0.00000  Uiso   1.00
C112   C     0.66217   0.71361   0.61309   0.00000  Uiso   1.00
C113   C     0.77108   0.96609   0.64060   0.00000  Uiso   1.00
C114   C     0.77900   0.02471   0.58978   0.00000  Uiso   1.00
C115   C     0.85597   0.04880   0.57327   0.00000  Uiso   1.00
H116   H     0.86707   0.84349   0.75348   0.00000  Uiso   1.00
H117   H     0.82041   0.88938   0.87643   0.00000  Uiso   1.00
H118   H     0.83324   0.70086   0.71028   0.00000  Uiso   1.00
H119   H     0.96619   0.93083   0.68297   0.00000  Uiso   1.00
H120   H     0.73929   0.95497   0.99813   0.00000  Uiso   1.00
H121   H     0.76635   0.55747   0.64778   0.00000  Uiso   1.00
H122   H     0.04672   0.04240   0.59018   0.00000  Uiso   1.00
H123   H     0.64074   0.95697   0.64083   0.00000  Uiso   1.00
H124   H     0.58166   0.00910   0.75760   0.00000  Uiso   1.00
H125   H     0.59449   0.82058   0.59145   0.00000  Uiso   1.00
H126   H     0.72744   0.05054   0.56414   0.00000  Uiso   1.00
H127   H     0.54551   0.05213   0.90168   0.00000  Uiso   1.00
H128   H     0.57257   0.65463   0.55133   0.00000  Uiso   1.00
H129   H     0.85294   0.13956   0.49373   0.00000  Uiso   1.00
O130   O     0.60760   0.03577   0.02875   0.00000  Uiso   1.00
O131   O     0.64312   0.51427   0.56910   0.00000  Uiso   1.00
O132   O     0.01095   0.15048   0.49354   0.00000  Uiso   1.00
N133   N     0.70180   0.97070   0.95940   0.00000  Uiso   1.00
N134   N     0.72709   0.59906   0.63186   0.00000  Uiso   1.00
N135   N     0.98921   0.05241   0.57799   0.00000  Uiso   1.00
N136   N     0.59753   0.02298   0.90750   0.00000  Uiso   1.00
N137   N     0.62282   0.65134   0.57996   0.00000  Uiso   1.00
N138   N     0.88494   0.10469   0.52610   0.00000  Uiso   1.00
C139   C     0.18478   0.13051   0.22767   0.00000  Uiso   1.00
C140   C     0.24152   0.08983   0.27885   0.00000  Uiso   1.00
C141   C     0.23114   0.08476   0.35079   0.00000  Uiso   1.00
C142   C     0.28980   0.04506   0.38846   0.00000  Uiso   1.00
C143   C     0.36778   0.98701   0.47298   0.00000  Uiso   1.00
C144   C     0.23455   0.19226   0.18859   0.00000  Uiso   1.00
C145   C     0.21831   0.27331   0.18463   0.00000  Uiso   1.00
C146   C     0.27111   0.31984   0.14630   0.00000  Uiso   1.00
C147   C     0.33824   0.42081   0.09064   0.00000  Uiso   1.00
C148   C     0.16231   0.06731   0.17375   0.00000  Uiso   1.00
C149   C     0.08533   0.04331   0.15731   0.00000  Uiso   1.00
C150   C     0.07731   0.98465   0.10648   0.00000  Uiso   1.00
C151   C     0.03228   0.89162   0.02778   0.00000  Uiso   1.00
C152   C     0.30740   0.06903   0.16664   0.00000  Uiso   1.00
C153   C     0.30812   0.05644   0.24570   0.00000  Uiso   1.00
C154   C     0.36681   0.01674   0.28327   0.00000  Uiso   1.00
C155   C     0.35652   0.01161   0.35525   0.00000  Uiso   1.00
C156   C     0.30115   0.15887   0.15544   0.00000  Uiso   1.00
C157   C     0.35398   0.20529   0.11710   0.00000  Uiso   1.00
C158   C     0.33783   0.28639   0.11309   0.00000  Uiso   1.00
C159   C     0.22892   0.03391   0.14060   0.00000  Uiso   1.00
C160   C     0.22100   0.97529   0.08978   0.00000  Uiso   1.00
C161   C     0.14403   0.95120   0.07327   0.00000  Uiso   1.00
H162   H     0.13293   0.15651   0.25348   0.00000  Uiso   1.00
H163   H     0.17959   0.11062   0.37643   0.00000  Uiso   1.00
H164   H     0.16676   0.29914   0.21028   0.00000  Uiso   1.00
H165   H     0.03381   0.06917   0.18297   0.00000  Uiso   1.00
H166   H     0.26071   0.04503   0.49813   0.00000  Uiso   1.00
H167   H     0.23365   0.44253   0.14778   0.00000  Uiso   1.00
H168   H     0.95328   0.95760   0.09018   0.00000  Uiso   1.00
H169   H     0.35926   0.04303   0.14083   0.00000  Uiso   1.00
H170   H     0.41834   0.99090   0.25760   0.00000  Uiso   1.00
H171   H     0.40551   0.17942   0.09145   0.00000  Uiso   1.00
H172   H     0.27256   0.94946   0.06414   0.00000  Uiso   1.00
H173   H     0.45449   0.94787   0.40168   0.00000  Uiso   1.00
H174   H     0.42743   0.34537   0.05133   0.00000  Uiso   1.00
H175   H     0.14706   0.86044   0.99373   0.00000  Uiso   1.00
O176   O     0.39240   0.96423   0.52875   0.00000  Uiso   1.00
O177   O     0.35688   0.48573   0.06910   0.00000  Uiso   1.00
O178   O     0.98905   0.84952   0.99354   0.00000  Uiso   1.00
N179   N     0.29820   0.02930   0.45940   0.00000  Uiso   1.00
N180   N     0.27291   0.40094   0.13186   0.00000  Uiso   1.00
N181   N     0.01079   0.94759   0.07799   0.00000  Uiso   1.00
N182   N     0.40247   0.97702   0.40750   0.00000  Uiso   1.00
N183   N     0.37718   0.34866   0.07996   0.00000  Uiso   1.00
N184   N     0.11506   0.89531   0.02610   0.00000  Uiso   1.00
C185   C     0.13051   0.18478   0.77233   0.00000  Uiso   1.00
C186   C     0.08983   0.24152   0.72115   0.00000  Uiso   1.00
C187   C     0.08476   0.23114   0.64921   0.00000  Uiso   1.00
C188   C     0.04506   0.28980   0.61154   0.00000  Uiso   1.00
C189   C     0.98701   0.36778   0.52702   0.00000  Uiso   1.00
C190   C     0.19226   0.23455   0.81141   0.00000  Uiso   1.00
C191   C     0.27331   0.21831   0.81537   0.00000  Uiso   1.00
C192   C     0.31984   0.27111   0.85370   0.00000  Uiso   1.00
C193   C     0.42081   0.33824   0.90936   0.00000  Uiso   1.00
C194   C     0.06731   0.16231   0.82625   0.00000  Uiso   1.00
C195   C     0.04331   0.08533   0.84269   0.00000  Uiso   1.00
C196   C     0.98465   0.07731   0.89352   0.00000  Uiso   1.00
C197   C     0.89162   0.03228   0.97222   0.00000  Uiso   1.00
C198   C     0.06903   0.30740   0.83336   0.00000  Uiso   1.00
C199   C     0.05644   0.30812   0.75430   0.00000  Uiso   1.00
C200   C     0.01674   0.36681   0.71673   0.00000  Uiso   1.00
C201   C     0.01161   0.35652   0.64475   0.00000  Uiso   1.00
C202   C     0.15887   0.30115   0.84456   0.00000  Uiso   1.00
C203   C     0.20529   0.35398   0.88290   0.00000  Uiso   1.00
C204   C     0.28639   0.33783   0.88691   0.00000  Uiso   1.00
C205   C     0.03391   0.22892   0.85940   0.00000  Uiso   1.00
C206   C     0.97529   0.22100   0.91022   0.00000  Uiso   1.00
C207   C     0.95120   0.14403   0.92673   0.00000  Uiso   1.00
H208   H     0.15651   0.13293   0.74652   0.00000  Uiso   1.00
H209   H     0.11062   0.17959   0.62357   0.00000  Uiso   1.00
H210   H     0.29914   0.16676   0.78972   0.00000  Uiso   1.00
H211   H     0.06917   0.03381   0.81703   0.00000  Uiso   1.00
H212   H     0.04503   0.26071   0.50187   0.00000  Uiso   1.00
H213   H     0.44253   0.23365   0.85222   0.00000  Uiso   1.00
H214   H     0.95760   0.95328   0.90982   0.00000  Uiso   1.00
H215   H     0.04303   0.35926   0.85917   0.00000  Uiso   1.00
H216   H     0.99090   0.41834   0.74240   0.00000  Uiso   1.00
H217   H     0.17942   0.40551   0.90855   0.00000  Uiso   1.00
H218   H     0.94946   0.27256   0.93586   0.00000  Uiso   1.00
H219   H     0.94787   0.45449   0.59832   0.00000  Uiso   1.00
H220   H     0.34537   0.42743   0.94867   0.00000  Uiso   1.00
H221   H     0.86044   0.14706   0.00627   0.00000  Uiso   1.00
O222   O     0.96423   0.39240   0.47125   0.00000  Uiso   1.00
O223   O     0.48573   0.35688   0.93090   0.00000  Uiso   1.00
O224   O     0.84952   0.98905   0.00646   0.00000  Uiso   1.00
N225   N     0.02930   0.29820   0.54060   0.00000  Uiso   1.00
N226   N     0.40094   0.27291   0.86814   0.00000  Uiso   1.00
N227   N     0.94759   0.01079   0.92201   0.00000  Uiso   1.00
N228   N     0.97702   0.40247   0.59250   0.00000  Uiso   1.00
N229   N     0.34866   0.37718   0.92004   0.00000  Uiso   1.00
N230   N     0.89531   0.11506   0.97390   0.00000  Uiso   1.00
C231   C     0.86949   0.81522   0.27233   0.00000  Uiso   1.00
C232   C     0.91017   0.75848   0.22115   0.00000  Uiso   1.00
C233   C     0.91524   0.76886   0.14921   0.00000  Uiso   1.00
C234   C     0.95494   0.71020   0.11154   0.00000  Uiso   1.00
C235   C     0.01299   0.63222   0.02702   0.00000  Uiso   1.00
C236   C     0.80774   0.76545   0.31141   0.00000  Uiso   1.00
C237   C     0.72669   0.78169   0.31537   0.00000  Uiso   1.00
C238   C     0.68016   0.72889   0.35370   0.00000  Uiso   1.00
C239   C     0.57919   0.66176   0.40936   0.00000  Uiso   1.00
C240   C     0.93269   0.83769   0.32625   0.00000  Uiso   1.00
C241   C     0.95669   0.91467   0.34269   0.00000  Uiso   1.00
C242   C     0.01535   0.92269   0.39352   0.00000  Uiso   1.00
C243   C     0.10838   0.96772   0.47222   0.00000  Uiso   1.00
C244   C     0.93097   0.69260   0.33336   0.00000  Uiso   1.00
C245   C     0.94356   0.69188   0.25430   0.00000  Uiso   1.00
C246   C     0.98326   0.63319   0.21673   0.00000  Uiso   1.00
C247   C     0.98839   0.64348   0.14475   0.00000  Uiso   1.00
C248   C     0.84113   0.69885   0.34456   0.00000  Uiso   1.00
C249   C     0.79471   0.64602   0.38290   0.00000  Uiso   1.00
C250   C     0.71361   0.66217   0.38691   0.00000  Uiso   1.00
C251   C     0.96609   0.77108   0.35940   0.00000  Uiso   1.00
C252   C     0.02471   0.77900   0.41022   0.00000  Uiso   1.00
C253   C     0.04880   0.85597   0.42673   0.00000  Uiso   1.00
H254   H     0.84349   0.86707   0.24652   0.00000  Uiso   1.00
H255   H     0.88938   0.82041   0.12357   0.00000  Uiso   1.00
H256   H     0.70086   0.83324   0.28972   0.00000  Uiso   1.00
H257   H     0.93083   0.96619   0.31703   0.00000  Uiso   1.00
H258   H     0.95497   0.73929   0.00187   0.00000  Uiso   1.00
H259   H     0.55747   0.76635   0.35222   0.00000  Uiso   1.00
H260   H     0.04240   0.04672   0.40982   0.00000  Uiso   1.00
H261   H     0.95697   0.64074   0.35917   0.00000  Uiso   1.00
H262   H     0.00910   0.58166   0.24240   0.00000  Uiso   1.00
H263   H     0.82058   0.59449   0.40855   0.00000  Uiso   1.00
H264   H     0.05054   0.72744   0.43586   0.00000  Uiso   1.00
H265   H     0.05213   0.54551   0.09832   0.00000  Uiso   1.00
H266   H     0.65463   0.57257   0.44867   0.00000  Uiso   1.00
H267   H     0.13956   0.85294   0.50627   0.00000  Uiso   1.00
O268   O     0.03577   0.60760   0.97125   0.00000  Uiso   1.00
O269   O     0.51427   0.64312   0.43090   0.00000  Uiso   1.00
O270   O     0.15048   0.01095   0.50646   0.00000  Uiso   1.00
N271   N     0.97070   0.70180   0.04060   0.00000  Uiso   1.00
N272   N     0.59906   0.72709   0.36814   0.00000  Uiso   1.00
N273   N     0.05241   0.98921   0.42201   0.00000  Uiso   1.00
N274   N     0.02298   0.59753   0.09250   0.00000  Uiso   1.00
N275   N     0.65134   0.62282   0.42004   0.00000  Uiso   1.00
N276   N     0.10469   0.88494   0.47390   0.00000  Uiso   1.00
C277   C     0.68478   0.36949   0.02233   0.00000  Uiso   1.00
C278   C     0.74152   0.41017   0.97115   0.00000  Uiso   1.00
C279   C     0.73114   0.41524   0.89921   0.00000  Uiso   1.00
C280   C     0.78980   0.45494   0.86154   0.00000  Uiso   1.00
C281   C     0.86778   0.51299   0.77702   0.00000  Uiso   1.00
C282   C     0.73455   0.30774   0.06141   0.00000  Uiso   1.00
C283   C     0.71831   0.22669   0.06537   0.00000  Uiso   1.00
C284   C     0.77111   0.18016   0.10370   0.00000  Uiso   1.00
C285   C     0.83824   0.07919   0.15936   0.00000  Uiso   1.00
C286   C     0.66231   0.43269   0.07625   0.00000  Uiso   1.00
C287   C     0.58533   0.45669   0.09269   0.00000  Uiso   1.00
C288   C     0.57731   0.51535   0.14352   0.00000  Uiso   1.00
C289   C     0.53228   0.60838   0.22222   0.00000  Uiso   1.00
C290   C     0.80740   0.43097   0.08336   0.00000  Uiso   1.00
C291   C     0.80812   0.44356   0.00430   0.00000  Uiso   1.00
C292   C     0.86681   0.48326   0.96673   0.00000  Uiso   1.00
C293   C     0.85652   0.48839   0.89475   0.00000  Uiso   1.00
C294   C     0.80115   0.34113   0.09456   0.00000  Uiso   1.00
C295   C     0.85398   0.29471   0.13290   0.00000  Uiso   1.00
C296   C     0.83783   0.21361   0.13691   0.00000  Uiso   1.00
C297   C     0.72892   0.46609   0.10940   0.00000  Uiso   1.00
C298   C     0.72100   0.52471   0.16022   0.00000  Uiso   1.00
C299   C     0.64403   0.54880   0.17673   0.00000  Uiso   1.00
H300   H     0.63293   0.34349   0.99652   0.00000  Uiso   1.00
H301   H     0.67959   0.38938   0.87357   0.00000  Uiso   1.00
H302   H     0.66676   0.20086   0.03972   0.00000  Uiso   1.00
H303   H     0.53381   0.43083   0.06703   0.00000  Uiso   1.00
H304   H     0.76071   0.45497   0.75187   0.00000  Uiso   1.00
H305   H     0.73365   0.05747   0.10222   0.00000  Uiso   1.00
H306   H     0.45328   0.54240   0.15982   0.00000  Uiso   1.00
H307   H     0.85926   0.45697   0.10917   0.00000  Uiso   1.00
H308   H     0.91834   0.50910   0.99240   0.00000  Uiso   1.00
H309   H     0.90551   0.32058   0.15855   0.00000  Uiso   1.00
H310   H     0.77256   0.55054   0.18586   0.00000  Uiso   1.00
H311   H     0.95449   0.55213   0.84832   0.00000  Uiso   1.00
H312   H     0.92743   0.15463   0.19867   0.00000  Uiso   1.00
H313   H     0.64706   0.63956   0.25627   0.00000  Uiso   1.00
O314   O     0.89240   0.53577   0.72125   0.00000  Uiso   1.00
O315   O     0.85688   0.01427   0.18090   0.00000  Uiso   1.00
O316   O     0.48905   0.65048   0.25646   0.00000  Uiso   1.00
N317   N     0.79820   0.47070   0.79060   0.00000  Uiso   1.00
N318   N     0.77291   0.09906   0.11814   0.00000  Uiso   1.00
N319   N     0.51079   0.55241   0.17201   0.00000  Uiso   1.00
N320   N     0.90247   0.52298   0.84250   0.00000  Uiso   1.00
N321   N     0.87718   0.15134   0.17004   0.00000  Uiso   1.00
N322   N     0.61506   0.60469   0.22390   0.00000  Uiso   1.00
C323   C     0.31522   0.63051   0.52233   0.00000  Uiso   1.00
C324   C     0.25848   0.58983   0.47115   0.00000  Uiso   1.00
C325   C     0.26886   0.58476   0.39921   0.00000  Uiso   1.00
C326   C     0.21020   0.54506   0.36154   0.00000  Uiso   1.00
C327   C     0.13222   0.48701   0.27702   0.00000  Uiso   1.00
C328   C     0.26545   0.69226   0.56141   0.00000  Uiso   1.00
C329   C     0.28169   0.77331   0.56537   0.00000  Uiso   1.00
C330   C     0.22889   0.81984   0.60370   0.00000  Uiso   1.00
C331   C     0.16176   0.92081   0.65936   0.00000  Uiso   1.00
C332   C     0.33769   0.56731   0.57625   0.00000  Uiso   1.00
C333   C     0.41467   0.54331   0.59269   0.00000  Uiso   1.00
C334   C     0.42269   0.48465   0.64352   0.00000  Uiso   1.00
C335   C     0.46772   0.39162   0.72222   0.00000  Uiso   1.00
C336   C     0.19260   0.56903   0.58336   0.00000  Uiso   1.00
C337   C     0.19188   0.55644   0.50430   0.00000  Uiso   1.00
C338   C     0.13319   0.51674   0.46673   0.00000  Uiso   1.00
C339   C     0.14348   0.51161   0.39475   0.00000  Uiso   1.00
C340   C     0.19885   0.65887   0.59456   0.00000  Uiso   1.00
C341   C     0.14602   0.70529   0.63290   0.00000  Uiso   1.00
C342   C     0.16217   0.78639   0.63691   0.00000  Uiso   1.00
C343   C     0.27108   0.53391   0.60940   0.00000  Uiso   1.00
C344   C     0.27900   0.47529   0.66022   0.00000  Uiso   1.00
C345   C     0.35597   0.45120   0.67673   0.00000  Uiso   1.00
H346   H     0.36707   0.65651   0.49652   0.00000  Uiso   1.00
H347   H     0.32041   0.61062   0.37357   0.00000  Uiso   1.00
H348   H     0.33324   0.79914   0.53972   0.00000  Uiso   1.00
H349   H     0.46619   0.56917   0.56703   0.00000  Uiso   1.00
H350   H     0.23929   0.54503   0.25187   0.00000  Uiso   1.00
H351   H     0.26635   0.94253   0.60222   0.00000  Uiso   1.00
H352   H     0.54672   0.45760   0.65982   0.00000  Uiso   1.00
H353   H     0.14074   0.54303   0.60917   0.00000  Uiso   1.00
H354   H     0.08166   0.49090   0.49240   0.00000  Uiso   1.00
H355   H     0.09449   0.67942   0.65855   0.00000  Uiso   1.00
H356   H     0.22744   0.44946   0.68586   0.00000  Uiso   1.00
H357   H     0.04551   0.44787   0.34832   0.00000  Uiso   1.00
H358   H     0.07257   0.84537   0.69867   0.00000  Uiso   1.00
H359   H     0.35294   0.36044   0.75627   0.00000  Uiso   1.00
O360   O     0.10760   0.46423   0.22125   0.00000  Uiso   1.00
O361   O     0.14312   0.98573   0.68090   0.00000  Uiso   1.00
O362   O     0.51095   0.34952   0.75646   0.00000  Uiso   1.00
N363   N     0.20180   0.52930   0.29060   0.00000  Uiso   1.00
N364   N     0.22709   0.90094   0.61814   0.00000  Uiso   1.00
N365   N     0.48921   0.44759   0.67201   0.00000  Uiso   1.00
N366   N     0.09753   0.47702   0.34250   0.00000  Uiso   1.00
N367   N     0.12282   0.84866   0.67004   0.00000  Uiso   1.00
N368   N     0.38494   0.39531   0.72390   0.00000  Uiso   1.00
