data_job_05502
_audit_creation_date              2018-12-19
_audit_creation_method            'Materials Studio'
_symmetry_space_group_name_H-M    'P1'
_symmetry_Int_Tables_number       1
_symmetry_cell_setting            triclinic
loop_
_symmetry_equiv_pos_as_xyz
  x,y,z
_cell_length_a                    11.7407
_cell_length_b                    11.7407
_cell_length_c                    21.2289
_cell_angle_alpha                 90.0000
_cell_angle_beta                  90.0000
_cell_angle_gamma                 90.0000
loop_
_atom_site_label
_atom_site_type_symbol
_atom_site_fract_x
_atom_site_fract_y
_atom_site_fract_z
_atom_site_U_iso_or_equiv
_atom_site_adp_type
_atom_site_occupancy
C1     C     0.66562   0.76480   0.66397   0.00000  Uiso   1.00
C2     C     0.76615   0.69589   0.63914   0.00000  Uiso   1.00
C3     C     0.81790   0.60519   0.66977   0.00000  Uiso   1.00
C4     C     0.90869   0.55334   0.63922   0.00000  Uiso   1.00
C5     C     0.05911   0.44067   0.60966   0.00000  Uiso   1.00
C6     C     0.70475   0.88864   0.66471   0.00000  Uiso   1.00
C7     C     0.70485   0.96000   0.71683   0.00000  Uiso   1.00
C8     C     0.74394   0.07040   0.70780   0.00000  Uiso   1.00
C9     C     0.79895   0.25700   0.71792   0.00000  Uiso   1.00
C10    C     0.57340   0.75729   0.61356   0.00000  Uiso   1.00
C11    C     0.46306   0.71824   0.62268   0.00000  Uiso   1.00
C12    C     0.39155   0.71809   0.57058   0.00000  Uiso   1.00
C13    C     0.24263   0.70075   0.50130   0.00000  Uiso   1.00
C14    C     0.73483   0.83400   0.55525   0.00000  Uiso   1.00
C15    C     0.80375   0.73349   0.58009   0.00000  Uiso   1.00
C16    C     0.89448   0.68176   0.54948   0.00000  Uiso   1.00
C17    C     0.94636   0.59099   0.58005   0.00000  Uiso   1.00
C18    C     0.74234   0.92623   0.60566   0.00000  Uiso   1.00
C19    C     0.78143   0.03656   0.59654   0.00000  Uiso   1.00
C20    C     0.78160   0.10807   0.64864   0.00000  Uiso   1.00
C21    C     0.61099   0.79488   0.55451   0.00000  Uiso   1.00
C22    C     0.53964   0.79480   0.50239   0.00000  Uiso   1.00
C23    C     0.42922   0.75575   0.51143   0.00000  Uiso   1.00
H24    H     0.63635   0.73554   0.70995   0.00000  Uiso   1.00
H25    H     0.78879   0.57613   0.71547   0.00000  Uiso   1.00
H26    H     0.67574   0.93088   0.76252   0.00000  Uiso   1.00
H27    H     0.43399   0.68916   0.66838   0.00000  Uiso   1.00
H28    H     0.97440   0.41600   0.69556   0.00000  Uiso   1.00
H29    H     0.73600   0.16403   0.79477   0.00000  Uiso   1.00
H30    H     0.22622   0.65431   0.59626   0.00000  Uiso   1.00
H31    H     0.76411   0.86327   0.50928   0.00000  Uiso   1.00
H32    H     0.92356   0.71087   0.50378   0.00000  Uiso   1.00
H33    H     0.81051   0.06562   0.55084   0.00000  Uiso   1.00
H34    H     0.56876   0.82390   0.45670   0.00000  Uiso   1.00
H35    H     0.08379   0.52536   0.52375   0.00000  Uiso   1.00
H36    H     0.84538   0.27340   0.62296   0.00000  Uiso   1.00
H37    H     0.33561   0.76367   0.42445   0.00000  Uiso   1.00
O38    O     0.13170   0.36815   0.60967   0.00000  Uiso   1.00
O39    O     0.81891   0.34953   0.73983   0.00000  Uiso   1.00
O40    O     0.15010   0.68078   0.47939   0.00000  Uiso   1.00
N41    N     0.97825   0.46264   0.65587   0.00000  Uiso   1.00
N42    N     0.75538   0.16200   0.74863   0.00000  Uiso   1.00
N43    N     0.27877   0.68548   0.56304   0.00000  Uiso   1.00
N44    N     0.03711   0.52149   0.56342   0.00000  Uiso   1.00
N45    N     0.81424   0.22084   0.65618   0.00000  Uiso   1.00
N46    N     0.33763   0.74432   0.47059   0.00000  Uiso   1.00
C47    C     0.33438   0.23520   0.16397   0.00000  Uiso   1.00
C48    C     0.23385   0.30411   0.13914   0.00000  Uiso   1.00
C49    C     0.18210   0.39481   0.16977   0.00000  Uiso   1.00
C50    C     0.09131   0.44666   0.13922   0.00000  Uiso   1.00
C51    C     0.94089   0.55933   0.10966   0.00000  Uiso   1.00
C52    C     0.29525   0.11136   0.16471   0.00000  Uiso   1.00
C53    C     0.29515   0.04000   0.21683   0.00000  Uiso   1.00
C54    C     0.25606   0.92960   0.20780   0.00000  Uiso   1.00
C55    C     0.20105   0.74300   0.21792   0.00000  Uiso   1.00
C56    C     0.42660   0.24271   0.11356   0.00000  Uiso   1.00
C57    C     0.53694   0.28176   0.12268   0.00000  Uiso   1.00
C58    C     0.60845   0.28191   0.07058   0.00000  Uiso   1.00
C59    C     0.75737   0.29925   0.00130   0.00000  Uiso   1.00
C60    C     0.26517   0.16600   0.05525   0.00000  Uiso   1.00
C61    C     0.19625   0.26651   0.08009   0.00000  Uiso   1.00
C62    C     0.10552   0.31824   0.04948   0.00000  Uiso   1.00
C63    C     0.05364   0.40901   0.08005   0.00000  Uiso   1.00
C64    C     0.25766   0.07377   0.10566   0.00000  Uiso   1.00
C65    C     0.21857   0.96344   0.09654   0.00000  Uiso   1.00
C66    C     0.21840   0.89193   0.14864   0.00000  Uiso   1.00
C67    C     0.38901   0.20512   0.05451   0.00000  Uiso   1.00
C68    C     0.46036   0.20520   0.00239   0.00000  Uiso   1.00
C69    C     0.57078   0.24425   0.01143   0.00000  Uiso   1.00
H70    H     0.36365   0.26446   0.20995   0.00000  Uiso   1.00
H71    H     0.21121   0.42387   0.21547   0.00000  Uiso   1.00
H72    H     0.32426   0.06912   0.26252   0.00000  Uiso   1.00
H73    H     0.56601   0.31084   0.16838   0.00000  Uiso   1.00
H74    H     0.02560   0.58400   0.19556   0.00000  Uiso   1.00
H75    H     0.26400   0.83597   0.29477   0.00000  Uiso   1.00
H76    H     0.77378   0.34569   0.09626   0.00000  Uiso   1.00
H77    H     0.23589   0.13673   0.00928   0.00000  Uiso   1.00
H78    H     0.07644   0.28913   0.00378   0.00000  Uiso   1.00
H79    H     0.18949   0.93438   0.05084   0.00000  Uiso   1.00
H80    H     0.43124   0.17610   0.95670   0.00000  Uiso   1.00
H81    H     0.91621   0.47464   0.02375   0.00000  Uiso   1.00
H82    H     0.15462   0.72660   0.12296   0.00000  Uiso   1.00
H83    H     0.66439   0.23633   0.92445   0.00000  Uiso   1.00
O84    O     0.86830   0.63185   0.10967   0.00000  Uiso   1.00
O85    O     0.18109   0.65047   0.23983   0.00000  Uiso   1.00
O86    O     0.84990   0.31922   0.97939   0.00000  Uiso   1.00
N87    N     0.02175   0.53736   0.15587   0.00000  Uiso   1.00
N88    N     0.24462   0.83800   0.24863   0.00000  Uiso   1.00
N89    N     0.72123   0.31452   0.06304   0.00000  Uiso   1.00
N90    N     0.96289   0.47851   0.06342   0.00000  Uiso   1.00
N91    N     0.18576   0.77916   0.15618   0.00000  Uiso   1.00
N92    N     0.66237   0.25568   0.97059   0.00000  Uiso   1.00
C93    C     0.23520   0.66562   0.91397   0.00000  Uiso   1.00
C94    C     0.30411   0.76615   0.88914   0.00000  Uiso   1.00
C95    C     0.39481   0.81790   0.91977   0.00000  Uiso   1.00
C96    C     0.44666   0.90869   0.88922   0.00000  Uiso   1.00
C97    C     0.55933   0.05911   0.85966   0.00000  Uiso   1.00
C98    C     0.11136   0.70475   0.91471   0.00000  Uiso   1.00
C99    C     0.04000   0.70485   0.96683   0.00000  Uiso   1.00
C100   C     0.92960   0.74394   0.95780   0.00000  Uiso   1.00
C101   C     0.74300   0.79895   0.96792   0.00000  Uiso   1.00
C102   C     0.24271   0.57340   0.86356   0.00000  Uiso   1.00
C103   C     0.28176   0.46306   0.87268   0.00000  Uiso   1.00
C104   C     0.28191   0.39155   0.82058   0.00000  Uiso   1.00
C105   C     0.29925   0.24263   0.75130   0.00000  Uiso   1.00
C106   C     0.16600   0.73483   0.80525   0.00000  Uiso   1.00
C107   C     0.26651   0.80375   0.83009   0.00000  Uiso   1.00
C108   C     0.31824   0.89448   0.79948   0.00000  Uiso   1.00
C109   C     0.40901   0.94636   0.83005   0.00000  Uiso   1.00
C110   C     0.07377   0.74234   0.85566   0.00000  Uiso   1.00
C111   C     0.96344   0.78143   0.84654   0.00000  Uiso   1.00
C112   C     0.89193   0.78160   0.89864   0.00000  Uiso   1.00
C113   C     0.20512   0.61099   0.80451   0.00000  Uiso   1.00
C114   C     0.20520   0.53964   0.75239   0.00000  Uiso   1.00
C115   C     0.24425   0.42922   0.76143   0.00000  Uiso   1.00
H116   H     0.26446   0.63635   0.95995   0.00000  Uiso   1.00
H117   H     0.42387   0.78879   0.96547   0.00000  Uiso   1.00
H118   H     0.06912   0.67574   0.01252   0.00000  Uiso   1.00
H119   H     0.31084   0.43399   0.91838   0.00000  Uiso   1.00
H120   H     0.58400   0.97440   0.94556   0.00000  Uiso   1.00
H121   H     0.83597   0.73600   0.04477   0.00000  Uiso   1.00
H122   H     0.34569   0.22622   0.84626   0.00000  Uiso   1.00
H123   H     0.13673   0.76411   0.75928   0.00000  Uiso   1.00
H124   H     0.28913   0.92356   0.75378   0.00000  Uiso   1.00
H125   H     0.93438   0.81051   0.80084   0.00000  Uiso   1.00
H126   H     0.17610   0.56876   0.70670   0.00000  Uiso   1.00
H127   H     0.47464   0.08379   0.77375   0.00000  Uiso   1.00
H128   H     0.72660   0.84538   0.87296   0.00000  Uiso   1.00
H129   H     0.23633   0.33561   0.67445   0.00000  Uiso   1.00
O130   O     0.63185   0.13170   0.85967   0.00000  Uiso   1.00
O131   O     0.65047   0.81891   0.98983   0.00000  Uiso   1.00
O132   O     0.31922   0.15010   0.72939   0.00000  Uiso   1.00
N133   N     0.53736   0.97825   0.90587   0.00000  Uiso   1.00
N134   N     0.83800   0.75538   0.99863   0.00000  Uiso   1.00
N135   N     0.31452   0.27877   0.81304   0.00000  Uiso   1.00
N136   N     0.47851   0.03711   0.81342   0.00000  Uiso   1.00
N137   N     0.77916   0.81424   0.90618   0.00000  Uiso   1.00
N138   N     0.25568   0.33763   0.72059   0.00000  Uiso   1.00
C139   C     0.76480   0.33438   0.41397   0.00000  Uiso   1.00
C140   C     0.69589   0.23385   0.38914   0.00000  Uiso   1.00
C141   C     0.60519   0.18210   0.41977   0.00000  Uiso   1.00
C142   C     0.55334   0.09131   0.38922   0.00000  Uiso   1.00
C143   C     0.44067   0.94089   0.35966   0.00000  Uiso   1.00
C144   C     0.88864   0.29525   0.41471   0.00000  Uiso   1.00
C145   C     0.96000   0.29515   0.46683   0.00000  Uiso   1.00
C146   C     0.07040   0.25606   0.45780   0.00000  Uiso   1.00
C147   C     0.25700   0.20105   0.46792   0.00000  Uiso   1.00
C148   C     0.75729   0.42660   0.36356   0.00000  Uiso   1.00
C149   C     0.71824   0.53694   0.37268   0.00000  Uiso   1.00
C150   C     0.71809   0.60845   0.32058   0.00000  Uiso   1.00
C151   C     0.70075   0.75737   0.25130   0.00000  Uiso   1.00
C152   C     0.83400   0.26517   0.30525   0.00000  Uiso   1.00
C153   C     0.73349   0.19625   0.33009   0.00000  Uiso   1.00
C154   C     0.68176   0.10552   0.29948   0.00000  Uiso   1.00
C155   C     0.59099   0.05364   0.33005   0.00000  Uiso   1.00
C156   C     0.92623   0.25766   0.35566   0.00000  Uiso   1.00
C157   C     0.03656   0.21857   0.34654   0.00000  Uiso   1.00
C158   C     0.10807   0.21840   0.39864   0.00000  Uiso   1.00
C159   C     0.79488   0.38901   0.30451   0.00000  Uiso   1.00
C160   C     0.79480   0.46036   0.25239   0.00000  Uiso   1.00
C161   C     0.75575   0.57078   0.26143   0.00000  Uiso   1.00
H162   H     0.73554   0.36365   0.45995   0.00000  Uiso   1.00
H163   H     0.57613   0.21121   0.46547   0.00000  Uiso   1.00
H164   H     0.93088   0.32426   0.51252   0.00000  Uiso   1.00
H165   H     0.68916   0.56601   0.41838   0.00000  Uiso   1.00
H166   H     0.41600   0.02560   0.44556   0.00000  Uiso   1.00
H167   H     0.16403   0.26400   0.54477   0.00000  Uiso   1.00
H168   H     0.65431   0.77378   0.34626   0.00000  Uiso   1.00
H169   H     0.86327   0.23589   0.25928   0.00000  Uiso   1.00
H170   H     0.71087   0.07644   0.25378   0.00000  Uiso   1.00
H171   H     0.06562   0.18949   0.30084   0.00000  Uiso   1.00
H172   H     0.82390   0.43124   0.20670   0.00000  Uiso   1.00
H173   H     0.52536   0.91621   0.27375   0.00000  Uiso   1.00
H174   H     0.27340   0.15462   0.37296   0.00000  Uiso   1.00
H175   H     0.76367   0.66439   0.17445   0.00000  Uiso   1.00
O176   O     0.36815   0.86830   0.35967   0.00000  Uiso   1.00
O177   O     0.34953   0.18109   0.48983   0.00000  Uiso   1.00
O178   O     0.68078   0.84990   0.22939   0.00000  Uiso   1.00
N179   N     0.46264   0.02175   0.40587   0.00000  Uiso   1.00
N180   N     0.16200   0.24462   0.49863   0.00000  Uiso   1.00
N181   N     0.68548   0.72123   0.31304   0.00000  Uiso   1.00
N182   N     0.52149   0.96289   0.31342   0.00000  Uiso   1.00
N183   N     0.22084   0.18576   0.40618   0.00000  Uiso   1.00
N184   N     0.74432   0.66237   0.22059   0.00000  Uiso   1.00
