data_job_00320
_audit_creation_date              2018-12-19
_audit_creation_method            'Materials Studio'
_symmetry_space_group_name_H-M    'P1'
_symmetry_Int_Tables_number       1
_symmetry_cell_setting            triclinic
loop_
_symmetry_equiv_pos_as_xyz
  x,y,z
_cell_length_a                    19.7797
_cell_length_b                    16.3079
_cell_length_c                    13.2249
_cell_angle_alpha                 90.0000
_cell_angle_beta                  90.0000
_cell_angle_gamma                 90.0000
loop_
_atom_site_label
_atom_site_type_symbol
_atom_site_fract_x
_atom_site_fract_y
_atom_site_fract_z
_atom_site_U_iso_or_equiv
_atom_site_adp_type
_atom_site_occupancy
C1     C     0.80038   0.79737   0.48608   0.00000  Uiso   1.00
C2     C     0.79955   0.72723   0.40984   0.00000  Uiso   1.00
C3     C     0.85416   0.70110   0.35239   0.00000  Uiso   1.00
C4     C     0.84309   0.63590   0.28694   0.00000  Uiso   1.00
C5     C     0.85144   0.53274   0.16968   0.00000  Uiso   1.00
C6     C     0.74504   0.85660   0.45275   0.00000  Uiso   1.00
C7     C     0.75382   0.93923   0.43138   0.00000  Uiso   1.00
C8     C     0.69685   0.98294   0.40207   0.00000  Uiso   1.00
C9     C     0.62056   0.08063   0.35149   0.00000  Uiso   1.00
C10    C     0.77653   0.76080   0.58602   0.00000  Uiso   1.00
C11    C     0.81177   0.76291   0.67673   0.00000  Uiso   1.00
C12    C     0.78131   0.72597   0.75963   0.00000  Uiso   1.00
C13    C     0.75391   0.67493   0.91598   0.00000  Uiso   1.00
C14    C     0.68360   0.72806   0.47203   0.00000  Uiso   1.00
C15    C     0.73612   0.68958   0.40221   0.00000  Uiso   1.00
C16    C     0.72496   0.62440   0.33684   0.00000  Uiso   1.00
C17    C     0.77955   0.59817   0.27930   0.00000  Uiso   1.00
C18    C     0.68161   0.81895   0.44512   0.00000  Uiso   1.00
C19    C     0.62462   0.86254   0.41584   0.00000  Uiso   1.00
C20    C     0.63331   0.94522   0.39442   0.00000  Uiso   1.00
C21    C     0.71310   0.72315   0.57839   0.00000  Uiso   1.00
C22    C     0.68257   0.68621   0.66117   0.00000  Uiso   1.00
C23    C     0.71777   0.68825   0.75198   0.00000  Uiso   1.00
H24    H     0.84976   0.82669   0.49203   0.00000  Uiso   1.00
H25    H     0.90324   0.73026   0.35831   0.00000  Uiso   1.00
H26    H     0.80291   0.96835   0.43730   0.00000  Uiso   1.00
H27    H     0.86085   0.79205   0.68260   0.00000  Uiso   1.00
H28    H     0.93455   0.60675   0.20666   0.00000  Uiso   1.00
H29    H     0.72299   0.10880   0.37326   0.00000  Uiso   1.00
H30    H     0.84519   0.73703   0.89053   0.00000  Uiso   1.00
H31    H     0.63422   0.69875   0.46609   0.00000  Uiso   1.00
H32    H     0.67587   0.59528   0.33095   0.00000  Uiso   1.00
H33    H     0.57554   0.83339   0.40994   0.00000  Uiso   1.00
H34    H     0.63349   0.65708   0.65524   0.00000  Uiso   1.00
H35    H     0.75001   0.49720   0.18445   0.00000  Uiso   1.00
H36    H     0.53845   0.99926   0.35106   0.00000  Uiso   1.00
H37    H     0.66065   0.62749   0.86832   0.00000  Uiso   1.00
O38    O     0.87356   0.48624   0.10710   0.00000  Uiso   1.00
O39    O     0.59601   0.14492   0.32569   0.00000  Uiso   1.00
O40    O     0.75633   0.65716   0.00433   0.00000  Uiso   1.00
N41    N     0.88541   0.59516   0.22000   0.00000  Uiso   1.00
N42    N     0.68762   0.06455   0.37574   0.00000  Uiso   1.00
N43    N     0.80185   0.71699   0.85935   0.00000  Uiso   1.00
N44    N     0.78611   0.53621   0.20805   0.00000  Uiso   1.00
N45    N     0.58832   0.00560   0.36379   0.00000  Uiso   1.00
N46    N     0.70255   0.65804   0.84740   0.00000  Uiso   1.00
C47    C     0.91577   0.03074   0.21637   0.00000  Uiso   1.00
C48    C     0.97286   0.01602   0.14104   0.00000  Uiso   1.00
C49    C     0.00127   0.07466   0.07798   0.00000  Uiso   1.00
C50    C     0.05300   0.04895   0.01449   0.00000  Uiso   1.00
C51    C     0.13821   0.03847   0.89753   0.00000  Uiso   1.00
C52    C     0.86006   0.97013   0.18868   0.00000  Uiso   1.00
C53    C     0.79362   0.99019   0.16569   0.00000  Uiso   1.00
C54    C     0.75039   0.92584   0.14232   0.00000  Uiso   1.00
C55    C     0.66046   0.84412   0.09940   0.00000  Uiso   1.00
C56    C     0.94272   0.00331   0.31897   0.00000  Uiso   1.00
C57    C     0.94577   0.05127   0.40555   0.00000  Uiso   1.00
C58    C     0.97211   0.01486   0.49189   0.00000  Uiso   1.00
C59    C     0.01052   0.98466   0.65126   0.00000  Uiso   1.00
C60    C     0.95711   0.88080   0.21577   0.00000  Uiso   1.00
C61    C     0.99531   0.93458   0.14071   0.00000  Uiso   1.00
C62    C     0.04702   0.90877   0.07731   0.00000  Uiso   1.00
C63    C     0.07550   0.96736   0.01416   0.00000  Uiso   1.00
C64    C     0.88251   0.88869   0.18835   0.00000  Uiso   1.00
C65    C     0.83937   0.82430   0.16502   0.00000  Uiso   1.00
C66    C     0.77289   0.84426   0.14199   0.00000  Uiso   1.00
C67    C     0.96517   0.92187   0.31865   0.00000  Uiso   1.00
C68    C     0.99151   0.88538   0.40487   0.00000  Uiso   1.00
C69    C     0.99461   0.93327   0.49156   0.00000  Uiso   1.00
H70    H     0.89828   0.09414   0.21663   0.00000  Uiso   1.00
H71    H     0.98388   0.13768   0.07825   0.00000  Uiso   1.00
H72    H     0.77626   0.05321   0.16596   0.00000  Uiso   1.00
H73    H     0.92838   0.11429   0.40578   0.00000  Uiso   1.00
H74    H     0.08866   0.15002   0.92466   0.00000  Uiso   1.00
H75    H     0.65088   0.97193   0.10963   0.00000  Uiso   1.00
H76    H     0.97166   0.10071   0.61533   0.00000  Uiso   1.00
H77    H     0.97459   0.81739   0.21551   0.00000  Uiso   1.00
H78    H     0.06438   0.84574   0.07707   0.00000  Uiso   1.00
H79    H     0.85676   0.76129   0.16478   0.00000  Uiso   1.00
H80    H     0.00889   0.82236   0.40459   0.00000  Uiso   1.00
H81    H     0.15400   0.91308   0.92369   0.00000  Uiso   1.00
H82    H     0.71622   0.73499   0.10867   0.00000  Uiso   1.00
H83    H     0.03700   0.86377   0.61437   0.00000  Uiso   1.00
O84    O     0.17900   0.05519   0.83310   0.00000  Uiso   1.00
O85    O     0.60465   0.82154   0.07580   0.00000  Uiso   1.00
O86    O     0.02551   0.99050   0.73926   0.00000  Uiso   1.00
N87    N     0.09173   0.09037   0.94345   0.00000  Uiso   1.00
N88    N     0.68243   0.92387   0.11637   0.00000  Uiso   1.00
N89    N     0.98232   0.04426   0.58916   0.00000  Uiso   1.00
N90    N     0.12688   0.96287   0.94293   0.00000  Uiso   1.00
N91    N     0.71759   0.79637   0.11585   0.00000  Uiso   1.00
N92    N     0.01748   0.91676   0.58865   0.00000  Uiso   1.00
C93    C     0.69962   0.20263   0.98608   0.00000  Uiso   1.00
C94    C     0.70045   0.27277   0.90984   0.00000  Uiso   1.00
C95    C     0.64584   0.29890   0.85239   0.00000  Uiso   1.00
C96    C     0.65691   0.36410   0.78694   0.00000  Uiso   1.00
C97    C     0.64856   0.46726   0.66968   0.00000  Uiso   1.00
C98    C     0.75496   0.14340   0.95275   0.00000  Uiso   1.00
C99    C     0.74618   0.06077   0.93138   0.00000  Uiso   1.00
C100   C     0.80315   0.01706   0.90207   0.00000  Uiso   1.00
C101   C     0.87944   0.91937   0.85149   0.00000  Uiso   1.00
C102   C     0.72347   0.23920   0.08602   0.00000  Uiso   1.00
C103   C     0.68823   0.23709   0.17673   0.00000  Uiso   1.00
C104   C     0.71869   0.27403   0.25963   0.00000  Uiso   1.00
C105   C     0.74609   0.32507   0.41598   0.00000  Uiso   1.00
C106   C     0.81640   0.27194   0.97203   0.00000  Uiso   1.00
C107   C     0.76388   0.31042   0.90221   0.00000  Uiso   1.00
C108   C     0.77504   0.37560   0.83684   0.00000  Uiso   1.00
C109   C     0.72045   0.40183   0.77930   0.00000  Uiso   1.00
C110   C     0.81839   0.18105   0.94512   0.00000  Uiso   1.00
C111   C     0.87538   0.13746   0.91584   0.00000  Uiso   1.00
C112   C     0.86669   0.05478   0.89442   0.00000  Uiso   1.00
C113   C     0.78690   0.27685   0.07839   0.00000  Uiso   1.00
C114   C     0.81743   0.31379   0.16117   0.00000  Uiso   1.00
C115   C     0.78223   0.31175   0.25198   0.00000  Uiso   1.00
H116   H     0.65024   0.17331   0.99203   0.00000  Uiso   1.00
H117   H     0.59676   0.26974   0.85831   0.00000  Uiso   1.00
H118   H     0.69709   0.03165   0.93730   0.00000  Uiso   1.00
H119   H     0.63915   0.20795   0.18260   0.00000  Uiso   1.00
H120   H     0.56545   0.39325   0.70666   0.00000  Uiso   1.00
H121   H     0.77701   0.89120   0.87326   0.00000  Uiso   1.00
H122   H     0.65481   0.26297   0.39053   0.00000  Uiso   1.00
H123   H     0.86578   0.30125   0.96609   0.00000  Uiso   1.00
H124   H     0.82413   0.40472   0.83095   0.00000  Uiso   1.00
H125   H     0.92446   0.16661   0.90994   0.00000  Uiso   1.00
H126   H     0.86651   0.34292   0.15524   0.00000  Uiso   1.00
H127   H     0.74999   0.50280   0.68445   0.00000  Uiso   1.00
H128   H     0.96155   0.00074   0.85106   0.00000  Uiso   1.00
H129   H     0.83935   0.37251   0.36832   0.00000  Uiso   1.00
O130   O     0.62644   0.51376   0.60710   0.00000  Uiso   1.00
O131   O     0.90399   0.85508   0.82569   0.00000  Uiso   1.00
O132   O     0.74367   0.34284   0.50433   0.00000  Uiso   1.00
N133   N     0.61459   0.40484   0.72000   0.00000  Uiso   1.00
N134   N     0.81238   0.93545   0.87574   0.00000  Uiso   1.00
N135   N     0.69815   0.28301   0.35935   0.00000  Uiso   1.00
N136   N     0.71389   0.46379   0.70805   0.00000  Uiso   1.00
N137   N     0.91168   0.99440   0.86379   0.00000  Uiso   1.00
N138   N     0.79745   0.34196   0.34740   0.00000  Uiso   1.00
C139   C     0.58423   0.96926   0.71637   0.00000  Uiso   1.00
C140   C     0.52714   0.98398   0.64104   0.00000  Uiso   1.00
C141   C     0.49873   0.92534   0.57798   0.00000  Uiso   1.00
C142   C     0.44700   0.95105   0.51449   0.00000  Uiso   1.00
C143   C     0.36179   0.96153   0.39753   0.00000  Uiso   1.00
C144   C     0.63994   0.02987   0.68868   0.00000  Uiso   1.00
C145   C     0.70638   0.00981   0.66569   0.00000  Uiso   1.00
C146   C     0.74961   0.07416   0.64232   0.00000  Uiso   1.00
C147   C     0.83954   0.15588   0.59940   0.00000  Uiso   1.00
C148   C     0.55728   0.99669   0.81897   0.00000  Uiso   1.00
C149   C     0.55423   0.94873   0.90555   0.00000  Uiso   1.00
C150   C     0.52789   0.98514   0.99189   0.00000  Uiso   1.00
C151   C     0.48948   0.01534   0.15126   0.00000  Uiso   1.00
C152   C     0.54289   0.11920   0.71577   0.00000  Uiso   1.00
C153   C     0.50469   0.06542   0.64071   0.00000  Uiso   1.00
C154   C     0.45298   0.09123   0.57731   0.00000  Uiso   1.00
C155   C     0.42450   0.03264   0.51416   0.00000  Uiso   1.00
C156   C     0.61749   0.11131   0.68835   0.00000  Uiso   1.00
C157   C     0.66063   0.17570   0.66502   0.00000  Uiso   1.00
C158   C     0.72711   0.15574   0.64199   0.00000  Uiso   1.00
C159   C     0.53483   0.07813   0.81865   0.00000  Uiso   1.00
C160   C     0.50849   0.11462   0.90487   0.00000  Uiso   1.00
C161   C     0.50539   0.06673   0.99156   0.00000  Uiso   1.00
H162   H     0.60172   0.90586   0.71663   0.00000  Uiso   1.00
H163   H     0.51612   0.86232   0.57825   0.00000  Uiso   1.00
H164   H     0.72374   0.94679   0.66596   0.00000  Uiso   1.00
H165   H     0.57162   0.88571   0.90578   0.00000  Uiso   1.00
H166   H     0.41134   0.84998   0.42466   0.00000  Uiso   1.00
H167   H     0.84912   0.02807   0.60963   0.00000  Uiso   1.00
H168   H     0.52834   0.89929   0.11533   0.00000  Uiso   1.00
H169   H     0.52541   0.18261   0.71551   0.00000  Uiso   1.00
H170   H     0.43562   0.15426   0.57707   0.00000  Uiso   1.00
H171   H     0.64324   0.23871   0.66478   0.00000  Uiso   1.00
H172   H     0.49111   0.17764   0.90459   0.00000  Uiso   1.00
H173   H     0.34600   0.08692   0.42369   0.00000  Uiso   1.00
H174   H     0.78378   0.26501   0.60867   0.00000  Uiso   1.00
H175   H     0.46300   0.13623   0.11437   0.00000  Uiso   1.00
O176   O     0.32100   0.94481   0.33310   0.00000  Uiso   1.00
O177   O     0.89535   0.17846   0.57580   0.00000  Uiso   1.00
O178   O     0.47449   0.00950   0.23926   0.00000  Uiso   1.00
N179   N     0.40827   0.90963   0.44345   0.00000  Uiso   1.00
N180   N     0.81757   0.07613   0.61637   0.00000  Uiso   1.00
N181   N     0.51768   0.95574   0.08916   0.00000  Uiso   1.00
N182   N     0.37312   0.03713   0.44293   0.00000  Uiso   1.00
N183   N     0.78241   0.20363   0.61585   0.00000  Uiso   1.00
N184   N     0.48252   0.08324   0.08865   0.00000  Uiso   1.00
C185   C     0.19962   0.29737   0.01392   0.00000  Uiso   1.00
C186   C     0.20045   0.22723   0.09016   0.00000  Uiso   1.00
C187   C     0.14584   0.20110   0.14761   0.00000  Uiso   1.00
C188   C     0.15691   0.13590   0.21306   0.00000  Uiso   1.00
C189   C     0.14856   0.03274   0.33032   0.00000  Uiso   1.00
C190   C     0.25496   0.35660   0.04725   0.00000  Uiso   1.00
C191   C     0.24618   0.43923   0.06862   0.00000  Uiso   1.00
C192   C     0.30315   0.48294   0.09793   0.00000  Uiso   1.00
C193   C     0.37944   0.58063   0.14851   0.00000  Uiso   1.00
C194   C     0.22347   0.26080   0.91398   0.00000  Uiso   1.00
C195   C     0.18823   0.26291   0.82327   0.00000  Uiso   1.00
C196   C     0.21869   0.22597   0.74037   0.00000  Uiso   1.00
C197   C     0.24609   0.17493   0.58402   0.00000  Uiso   1.00
C198   C     0.31640   0.22806   0.02797   0.00000  Uiso   1.00
C199   C     0.26388   0.18958   0.09779   0.00000  Uiso   1.00
C200   C     0.27504   0.12440   0.16316   0.00000  Uiso   1.00
C201   C     0.22045   0.09817   0.22070   0.00000  Uiso   1.00
C202   C     0.31839   0.31895   0.05488   0.00000  Uiso   1.00
C203   C     0.37538   0.36254   0.08416   0.00000  Uiso   1.00
C204   C     0.36669   0.44522   0.10558   0.00000  Uiso   1.00
C205   C     0.28690   0.22315   0.92161   0.00000  Uiso   1.00
C206   C     0.31743   0.18621   0.83883   0.00000  Uiso   1.00
C207   C     0.28223   0.18825   0.74802   0.00000  Uiso   1.00
H208   H     0.15024   0.32669   0.00797   0.00000  Uiso   1.00
H209   H     0.09676   0.23026   0.14169   0.00000  Uiso   1.00
H210   H     0.19709   0.46835   0.06270   0.00000  Uiso   1.00
H211   H     0.13915   0.29205   0.81740   0.00000  Uiso   1.00
H212   H     0.06545   0.10675   0.29334   0.00000  Uiso   1.00
H213   H     0.27701   0.60880   0.12674   0.00000  Uiso   1.00
H214   H     0.15481   0.23703   0.60947   0.00000  Uiso   1.00
H215   H     0.36578   0.19875   0.03391   0.00000  Uiso   1.00
H216   H     0.32413   0.09528   0.16905   0.00000  Uiso   1.00
H217   H     0.42446   0.33339   0.09006   0.00000  Uiso   1.00
H218   H     0.36651   0.15708   0.84476   0.00000  Uiso   1.00
H219   H     0.24999   0.99720   0.31555   0.00000  Uiso   1.00
H220   H     0.46155   0.49926   0.14894   0.00000  Uiso   1.00
H221   H     0.33935   0.12749   0.63168   0.00000  Uiso   1.00
O222   O     0.12644   0.98624   0.39290   0.00000  Uiso   1.00
O223   O     0.40399   0.64492   0.17431   0.00000  Uiso   1.00
O224   O     0.24367   0.15716   0.49567   0.00000  Uiso   1.00
N225   N     0.11459   0.09516   0.28000   0.00000  Uiso   1.00
N226   N     0.31238   0.56455   0.12426   0.00000  Uiso   1.00
N227   N     0.19815   0.21699   0.64065   0.00000  Uiso   1.00
N228   N     0.21389   0.03621   0.29195   0.00000  Uiso   1.00
N229   N     0.41168   0.50560   0.13621   0.00000  Uiso   1.00
N230   N     0.29745   0.15804   0.65260   0.00000  Uiso   1.00
C231   C     0.08423   0.53074   0.28363   0.00000  Uiso   1.00
C232   C     0.02714   0.51602   0.35896   0.00000  Uiso   1.00
C233   C     0.99873   0.57466   0.42202   0.00000  Uiso   1.00
C234   C     0.94700   0.54895   0.48551   0.00000  Uiso   1.00
C235   C     0.86179   0.53847   0.60247   0.00000  Uiso   1.00
C236   C     0.13994   0.47013   0.31132   0.00000  Uiso   1.00
C237   C     0.20638   0.49019   0.33431   0.00000  Uiso   1.00
C238   C     0.24961   0.42584   0.35768   0.00000  Uiso   1.00
C239   C     0.33954   0.34412   0.40060   0.00000  Uiso   1.00
C240   C     0.05728   0.50331   0.18103   0.00000  Uiso   1.00
C241   C     0.05423   0.55127   0.09445   0.00000  Uiso   1.00
C242   C     0.02789   0.51486   0.00811   0.00000  Uiso   1.00
C243   C     0.98948   0.48466   0.84874   0.00000  Uiso   1.00
C244   C     0.04289   0.38080   0.28423   0.00000  Uiso   1.00
C245   C     0.00469   0.43458   0.35929   0.00000  Uiso   1.00
C246   C     0.95298   0.40877   0.42269   0.00000  Uiso   1.00
C247   C     0.92450   0.46736   0.48584   0.00000  Uiso   1.00
C248   C     0.11749   0.38869   0.31165   0.00000  Uiso   1.00
C249   C     0.16063   0.32430   0.33498   0.00000  Uiso   1.00
C250   C     0.22711   0.34426   0.35801   0.00000  Uiso   1.00
C251   C     0.03483   0.42187   0.18135   0.00000  Uiso   1.00
C252   C     0.00849   0.38538   0.09513   0.00000  Uiso   1.00
C253   C     0.00539   0.43327   0.00844   0.00000  Uiso   1.00
H254   H     0.10172   0.59414   0.28337   0.00000  Uiso   1.00
H255   H     0.01612   0.63768   0.42175   0.00000  Uiso   1.00
H256   H     0.22374   0.55321   0.33404   0.00000  Uiso   1.00
H257   H     0.07162   0.61429   0.09422   0.00000  Uiso   1.00
H258   H     0.91134   0.65002   0.57534   0.00000  Uiso   1.00
H259   H     0.34912   0.47193   0.39037   0.00000  Uiso   1.00
H260   H     0.02834   0.60071   0.88467   0.00000  Uiso   1.00
H261   H     0.02541   0.31739   0.28449   0.00000  Uiso   1.00
H262   H     0.93562   0.34574   0.42293   0.00000  Uiso   1.00
H263   H     0.14324   0.26129   0.33522   0.00000  Uiso   1.00
H264   H     0.99111   0.32236   0.09541   0.00000  Uiso   1.00
H265   H     0.84600   0.41308   0.57631   0.00000  Uiso   1.00
H266   H     0.28378   0.23499   0.39133   0.00000  Uiso   1.00
H267   H     0.96300   0.36377   0.88563   0.00000  Uiso   1.00
O268   O     0.82100   0.55519   0.66690   0.00000  Uiso   1.00
O269   O     0.39535   0.32154   0.42420   0.00000  Uiso   1.00
O270   O     0.97449   0.49050   0.76074   0.00000  Uiso   1.00
N271   N     0.90827   0.59037   0.55655   0.00000  Uiso   1.00
N272   N     0.31757   0.42387   0.38363   0.00000  Uiso   1.00
N273   N     0.01768   0.54426   0.91084   0.00000  Uiso   1.00
N274   N     0.87312   0.46287   0.55707   0.00000  Uiso   1.00
N275   N     0.28241   0.29637   0.38415   0.00000  Uiso   1.00
N276   N     0.98252   0.41676   0.91135   0.00000  Uiso   1.00
C277   C     0.30038   0.70263   0.51392   0.00000  Uiso   1.00
C278   C     0.29955   0.77277   0.59016   0.00000  Uiso   1.00
C279   C     0.35416   0.79890   0.64761   0.00000  Uiso   1.00
C280   C     0.34309   0.86410   0.71306   0.00000  Uiso   1.00
C281   C     0.35144   0.96726   0.83032   0.00000  Uiso   1.00
C282   C     0.24504   0.64340   0.54725   0.00000  Uiso   1.00
C283   C     0.25382   0.56077   0.56862   0.00000  Uiso   1.00
C284   C     0.19685   0.51706   0.59793   0.00000  Uiso   1.00
C285   C     0.12056   0.41937   0.64851   0.00000  Uiso   1.00
C286   C     0.27653   0.73920   0.41398   0.00000  Uiso   1.00
C287   C     0.31177   0.73709   0.32327   0.00000  Uiso   1.00
C288   C     0.28131   0.77403   0.24037   0.00000  Uiso   1.00
C289   C     0.25391   0.82507   0.08402   0.00000  Uiso   1.00
C290   C     0.18360   0.77194   0.52797   0.00000  Uiso   1.00
C291   C     0.23612   0.81042   0.59779   0.00000  Uiso   1.00
C292   C     0.22496   0.87560   0.66316   0.00000  Uiso   1.00
C293   C     0.27955   0.90183   0.72070   0.00000  Uiso   1.00
C294   C     0.18161   0.68105   0.55488   0.00000  Uiso   1.00
C295   C     0.12462   0.63746   0.58416   0.00000  Uiso   1.00
C296   C     0.13331   0.55478   0.60558   0.00000  Uiso   1.00
C297   C     0.21310   0.77685   0.42161   0.00000  Uiso   1.00
C298   C     0.18257   0.81379   0.33883   0.00000  Uiso   1.00
C299   C     0.21777   0.81175   0.24802   0.00000  Uiso   1.00
H300   H     0.34976   0.67331   0.50797   0.00000  Uiso   1.00
H301   H     0.40324   0.76974   0.64169   0.00000  Uiso   1.00
H302   H     0.30291   0.53165   0.56270   0.00000  Uiso   1.00
H303   H     0.36085   0.70795   0.31740   0.00000  Uiso   1.00
H304   H     0.43455   0.89325   0.79334   0.00000  Uiso   1.00
H305   H     0.22299   0.39120   0.62674   0.00000  Uiso   1.00
H306   H     0.34519   0.76297   0.10947   0.00000  Uiso   1.00
H307   H     0.13422   0.80125   0.53391   0.00000  Uiso   1.00
H308   H     0.17587   0.90472   0.66905   0.00000  Uiso   1.00
H309   H     0.07554   0.66661   0.59006   0.00000  Uiso   1.00
H310   H     0.13349   0.84292   0.34476   0.00000  Uiso   1.00
H311   H     0.25001   0.00280   0.81555   0.00000  Uiso   1.00
H312   H     0.03845   0.50074   0.64894   0.00000  Uiso   1.00
H313   H     0.16065   0.87251   0.13168   0.00000  Uiso   1.00
O314   O     0.37356   0.01376   0.89290   0.00000  Uiso   1.00
O315   O     0.09601   0.35508   0.67431   0.00000  Uiso   1.00
O316   O     0.25633   0.84284   0.99567   0.00000  Uiso   1.00
N317   N     0.38541   0.90484   0.78000   0.00000  Uiso   1.00
N318   N     0.18762   0.43545   0.62426   0.00000  Uiso   1.00
N319   N     0.30185   0.78301   0.14065   0.00000  Uiso   1.00
N320   N     0.28611   0.96379   0.79195   0.00000  Uiso   1.00
N321   N     0.08832   0.49440   0.63621   0.00000  Uiso   1.00
N322   N     0.20255   0.84196   0.15260   0.00000  Uiso   1.00
C323   C     0.41577   0.46926   0.78363   0.00000  Uiso   1.00
C324   C     0.47286   0.48398   0.85896   0.00000  Uiso   1.00
C325   C     0.50127   0.42534   0.92202   0.00000  Uiso   1.00
C326   C     0.55300   0.45105   0.98551   0.00000  Uiso   1.00
C327   C     0.63821   0.46153   0.10247   0.00000  Uiso   1.00
C328   C     0.36006   0.52987   0.81132   0.00000  Uiso   1.00
C329   C     0.29362   0.50981   0.83431   0.00000  Uiso   1.00
C330   C     0.25039   0.57416   0.85768   0.00000  Uiso   1.00
C331   C     0.16046   0.65588   0.90060   0.00000  Uiso   1.00
C332   C     0.44272   0.49669   0.68103   0.00000  Uiso   1.00
C333   C     0.44577   0.44873   0.59445   0.00000  Uiso   1.00
C334   C     0.47211   0.48514   0.50811   0.00000  Uiso   1.00
C335   C     0.51052   0.51534   0.34874   0.00000  Uiso   1.00
C336   C     0.45711   0.61920   0.78423   0.00000  Uiso   1.00
C337   C     0.49531   0.56542   0.85929   0.00000  Uiso   1.00
C338   C     0.54702   0.59123   0.92269   0.00000  Uiso   1.00
C339   C     0.57550   0.53264   0.98584   0.00000  Uiso   1.00
C340   C     0.38251   0.61131   0.81165   0.00000  Uiso   1.00
C341   C     0.33937   0.67570   0.83498   0.00000  Uiso   1.00
C342   C     0.27289   0.65574   0.85801   0.00000  Uiso   1.00
C343   C     0.46517   0.57813   0.68135   0.00000  Uiso   1.00
C344   C     0.49151   0.61462   0.59513   0.00000  Uiso   1.00
C345   C     0.49461   0.56673   0.50844   0.00000  Uiso   1.00
H346   H     0.39828   0.40586   0.78337   0.00000  Uiso   1.00
H347   H     0.48388   0.36232   0.92175   0.00000  Uiso   1.00
H348   H     0.27626   0.44679   0.83404   0.00000  Uiso   1.00
H349   H     0.42838   0.38571   0.59422   0.00000  Uiso   1.00
H350   H     0.58866   0.34998   0.07534   0.00000  Uiso   1.00
H351   H     0.15088   0.52807   0.89037   0.00000  Uiso   1.00
H352   H     0.47166   0.39929   0.38467   0.00000  Uiso   1.00
H353   H     0.47459   0.68261   0.78449   0.00000  Uiso   1.00
H354   H     0.56438   0.65426   0.92293   0.00000  Uiso   1.00
H355   H     0.35676   0.73871   0.83522   0.00000  Uiso   1.00
H356   H     0.50889   0.67764   0.59541   0.00000  Uiso   1.00
H357   H     0.65400   0.58692   0.07631   0.00000  Uiso   1.00
H358   H     0.21622   0.76501   0.89133   0.00000  Uiso   1.00
H359   H     0.53700   0.63623   0.38563   0.00000  Uiso   1.00
O360   O     0.67900   0.44481   0.16690   0.00000  Uiso   1.00
O361   O     0.10465   0.67846   0.92420   0.00000  Uiso   1.00
O362   O     0.52551   0.50950   0.26074   0.00000  Uiso   1.00
N363   N     0.59173   0.40963   0.05655   0.00000  Uiso   1.00
N364   N     0.18243   0.57613   0.88363   0.00000  Uiso   1.00
N365   N     0.48232   0.45574   0.41084   0.00000  Uiso   1.00
N366   N     0.62688   0.53713   0.05707   0.00000  Uiso   1.00
N367   N     0.21759   0.70363   0.88415   0.00000  Uiso   1.00
N368   N     0.51748   0.58324   0.41135   0.00000  Uiso   1.00
