data_job_03023
_audit_creation_date              2018-12-19
_audit_creation_method            'Materials Studio'
_symmetry_space_group_name_H-M    'P1'
_symmetry_Int_Tables_number       1
_symmetry_cell_setting            triclinic
loop_
_symmetry_equiv_pos_as_xyz
  x,y,z
_cell_length_a                    20.0081
_cell_length_b                    22.4549
_cell_length_c                    9.4720
_cell_angle_alpha                 90.0000
_cell_angle_beta                  108.5250
_cell_angle_gamma                 90.0000
loop_
_atom_site_label
_atom_site_type_symbol
_atom_site_fract_x
_atom_site_fract_y
_atom_site_fract_z
_atom_site_U_iso_or_equiv
_atom_site_adp_type
_atom_site_occupancy
C1     C     0.86028   0.92205   0.47222   0.00000  Uiso   1.00
C2     C     0.87411   0.95966   0.61265   0.00000  Uiso   1.00
C3     C     0.93075   0.99791   0.67010   0.00000  Uiso   1.00
C4     C     0.93396   0.02833   0.79971   0.00000  Uiso   1.00
C5     C     0.96330   0.08786   0.00723   0.00000  Uiso   1.00
C6     C     0.85490   0.85783   0.51981   0.00000  Uiso   1.00
C7     C     0.89537   0.81045   0.49917   0.00000  Uiso   1.00
C8     C     0.88239   0.75514   0.55061   0.00000  Uiso   1.00
C9     C     0.88187   0.65657   0.61389   0.00000  Uiso   1.00
C10    C     0.78674   0.93906   0.37194   0.00000  Uiso   1.00
C11    C     0.76990   0.95998   0.22695   0.00000  Uiso   1.00
C12    C     0.69954   0.97305   0.15388   0.00000  Uiso   1.00
C13    C     0.59318   0.00060   0.98757   0.00000  Uiso   1.00
C14    C     0.76528   0.90805   0.60025   0.00000  Uiso   1.00
C15    C     0.82251   0.95206   0.68219   0.00000  Uiso   1.00
C16    C     0.82563   0.98242   0.81175   0.00000  Uiso   1.00
C17    C     0.88226   0.02071   0.86937   0.00000  Uiso   1.00
C18    C     0.80329   0.85022   0.58935   0.00000  Uiso   1.00
C19    C     0.79025   0.79497   0.64082   0.00000  Uiso   1.00
C20    C     0.83070   0.74752   0.62027   0.00000  Uiso   1.00
C21    C     0.73513   0.93146   0.44148   0.00000  Uiso   1.00
C22    C     0.66478   0.94449   0.36861   0.00000  Uiso   1.00
C23    C     0.64784   0.96543   0.22355   0.00000  Uiso   1.00
H24    H     0.90046   0.92796   0.41808   0.00000  Uiso   1.00
H25    H     0.97067   0.00378   0.61625   0.00000  Uiso   1.00
H26    H     0.93529   0.81635   0.44534   0.00000  Uiso   1.00
H27    H     0.80984   0.96585   0.17317   0.00000  Uiso   1.00
H28    H     0.02578   0.08446   0.86667   0.00000  Uiso   1.00
H29    H     0.95116   0.68925   0.50623   0.00000  Uiso   1.00
H30    H     0.68662   0.00451   0.93232   0.00000  Uiso   1.00
H31    H     0.72510   0.90213   0.65439   0.00000  Uiso   1.00
H32    H     0.78569   0.97653   0.86554   0.00000  Uiso   1.00
H33    H     0.75031   0.78910   0.69462   0.00000  Uiso   1.00
H34    H     0.62487   0.93861   0.42246   0.00000  Uiso   1.00
H35    H     0.87564   0.06234   0.06900   0.00000  Uiso   1.00
H36    H     0.80102   0.66713   0.70856   0.00000  Uiso   1.00
H37    H     0.53649   0.98240   0.13465   0.00000  Uiso   1.00
O38    O     0.99375   0.12280   0.10250   0.00000  Uiso   1.00
O39    O     0.89584   0.60430   0.62959   0.00000  Uiso   1.00
O40    O     0.54878   0.01791   0.87664   0.00000  Uiso   1.00
N41    N     0.98212   0.06906   0.88529   0.00000  Uiso   1.00
N42    N     0.91236   0.69956   0.54833   0.00000  Uiso   1.00
N43    N     0.66504   0.99429   0.01175   0.00000  Uiso   1.00
N44    N     0.90133   0.05716   0.99417   0.00000  Uiso   1.00
N45    N     0.83158   0.68766   0.65720   0.00000  Uiso   1.00
N46    N     0.58426   0.98239   0.12062   0.00000  Uiso   1.00
C47    C     0.13972   0.42205   0.02778   0.00000  Uiso   1.00
C48    C     0.12589   0.45966   0.88735   0.00000  Uiso   1.00
C49    C     0.06925   0.49791   0.82990   0.00000  Uiso   1.00
C50    C     0.06604   0.52833   0.70029   0.00000  Uiso   1.00
C51    C     0.03670   0.58786   0.49277   0.00000  Uiso   1.00
C52    C     0.14510   0.35783   0.98019   0.00000  Uiso   1.00
C53    C     0.10463   0.31045   0.00083   0.00000  Uiso   1.00
C54    C     0.11761   0.25514   0.94939   0.00000  Uiso   1.00
C55    C     0.11813   0.15657   0.88611   0.00000  Uiso   1.00
C56    C     0.21326   0.43906   0.12806   0.00000  Uiso   1.00
C57    C     0.23010   0.45998   0.27305   0.00000  Uiso   1.00
C58    C     0.30046   0.47305   0.34612   0.00000  Uiso   1.00
C59    C     0.40682   0.50060   0.51243   0.00000  Uiso   1.00
C60    C     0.23472   0.40805   0.89975   0.00000  Uiso   1.00
C61    C     0.17749   0.45206   0.81781   0.00000  Uiso   1.00
C62    C     0.17437   0.48242   0.68825   0.00000  Uiso   1.00
C63    C     0.11774   0.52071   0.63063   0.00000  Uiso   1.00
C64    C     0.19671   0.35022   0.91065   0.00000  Uiso   1.00
C65    C     0.20975   0.29497   0.85918   0.00000  Uiso   1.00
C66    C     0.16930   0.24752   0.87973   0.00000  Uiso   1.00
C67    C     0.26487   0.43146   0.05852   0.00000  Uiso   1.00
C68    C     0.33522   0.44449   0.13139   0.00000  Uiso   1.00
C69    C     0.35216   0.46543   0.27645   0.00000  Uiso   1.00
H70    H     0.09954   0.42796   0.08192   0.00000  Uiso   1.00
H71    H     0.02933   0.50378   0.88375   0.00000  Uiso   1.00
H72    H     0.06471   0.31635   0.05466   0.00000  Uiso   1.00
H73    H     0.19016   0.46585   0.32683   0.00000  Uiso   1.00
H74    H     0.97422   0.58446   0.63333   0.00000  Uiso   1.00
H75    H     0.04884   0.18925   0.99377   0.00000  Uiso   1.00
H76    H     0.31338   0.50451   0.56768   0.00000  Uiso   1.00
H77    H     0.27490   0.40213   0.84561   0.00000  Uiso   1.00
H78    H     0.21431   0.47653   0.63446   0.00000  Uiso   1.00
H79    H     0.24969   0.28910   0.80538   0.00000  Uiso   1.00
H80    H     0.37513   0.43861   0.07754   0.00000  Uiso   1.00
H81    H     0.12436   0.56234   0.43100   0.00000  Uiso   1.00
H82    H     0.19898   0.16713   0.79144   0.00000  Uiso   1.00
H83    H     0.46351   0.48240   0.36535   0.00000  Uiso   1.00
O84    O     0.00625   0.62280   0.39750   0.00000  Uiso   1.00
O85    O     0.10416   0.10430   0.87041   0.00000  Uiso   1.00
O86    O     0.45122   0.51791   0.62336   0.00000  Uiso   1.00
N87    N     0.01788   0.56906   0.61471   0.00000  Uiso   1.00
N88    N     0.08764   0.19956   0.95167   0.00000  Uiso   1.00
N89    N     0.33496   0.49429   0.48825   0.00000  Uiso   1.00
N90    N     0.09867   0.55716   0.50583   0.00000  Uiso   1.00
N91    N     0.16842   0.18766   0.84280   0.00000  Uiso   1.00
N92    N     0.41574   0.48239   0.37938   0.00000  Uiso   1.00
C93    C     0.13972   0.07795   0.52778   0.00000  Uiso   1.00
C94    C     0.12589   0.04034   0.38735   0.00000  Uiso   1.00
C95    C     0.06925   0.00209   0.32990   0.00000  Uiso   1.00
C96    C     0.06604   0.97167   0.20029   0.00000  Uiso   1.00
C97    C     0.03670   0.91214   0.99277   0.00000  Uiso   1.00
C98    C     0.14510   0.14217   0.48019   0.00000  Uiso   1.00
C99    C     0.10463   0.18955   0.50083   0.00000  Uiso   1.00
C100   C     0.11761   0.24486   0.44939   0.00000  Uiso   1.00
C101   C     0.11813   0.34343   0.38611   0.00000  Uiso   1.00
C102   C     0.21326   0.06094   0.62806   0.00000  Uiso   1.00
C103   C     0.23010   0.04002   0.77305   0.00000  Uiso   1.00
C104   C     0.30046   0.02695   0.84612   0.00000  Uiso   1.00
C105   C     0.40682   0.99940   0.01243   0.00000  Uiso   1.00
C106   C     0.23472   0.09195   0.39975   0.00000  Uiso   1.00
C107   C     0.17749   0.04794   0.31781   0.00000  Uiso   1.00
C108   C     0.17437   0.01758   0.18825   0.00000  Uiso   1.00
C109   C     0.11774   0.97929   0.13063   0.00000  Uiso   1.00
C110   C     0.19671   0.14978   0.41065   0.00000  Uiso   1.00
C111   C     0.20975   0.20503   0.35918   0.00000  Uiso   1.00
C112   C     0.16930   0.25248   0.37973   0.00000  Uiso   1.00
C113   C     0.26487   0.06854   0.55852   0.00000  Uiso   1.00
C114   C     0.33522   0.05551   0.63139   0.00000  Uiso   1.00
C115   C     0.35216   0.03457   0.77645   0.00000  Uiso   1.00
H116   H     0.09954   0.07204   0.58192   0.00000  Uiso   1.00
H117   H     0.02933   0.99622   0.38375   0.00000  Uiso   1.00
H118   H     0.06471   0.18365   0.55466   0.00000  Uiso   1.00
H119   H     0.19016   0.03415   0.82683   0.00000  Uiso   1.00
H120   H     0.97422   0.91554   0.13333   0.00000  Uiso   1.00
H121   H     0.04884   0.31075   0.49377   0.00000  Uiso   1.00
H122   H     0.31338   0.99549   0.06768   0.00000  Uiso   1.00
H123   H     0.27490   0.09787   0.34561   0.00000  Uiso   1.00
H124   H     0.21431   0.02347   0.13446   0.00000  Uiso   1.00
H125   H     0.24969   0.21090   0.30538   0.00000  Uiso   1.00
H126   H     0.37513   0.06139   0.57754   0.00000  Uiso   1.00
H127   H     0.12436   0.93766   0.93100   0.00000  Uiso   1.00
H128   H     0.19898   0.33287   0.29144   0.00000  Uiso   1.00
H129   H     0.46351   0.01760   0.86535   0.00000  Uiso   1.00
O130   O     0.00625   0.87720   0.89750   0.00000  Uiso   1.00
O131   O     0.10416   0.39570   0.37041   0.00000  Uiso   1.00
O132   O     0.45122   0.98209   0.12336   0.00000  Uiso   1.00
N133   N     0.01788   0.93094   0.11471   0.00000  Uiso   1.00
N134   N     0.08764   0.30044   0.45167   0.00000  Uiso   1.00
N135   N     0.33496   0.00571   0.98825   0.00000  Uiso   1.00
N136   N     0.09867   0.94284   0.00583   0.00000  Uiso   1.00
N137   N     0.16842   0.31234   0.34280   0.00000  Uiso   1.00
N138   N     0.41574   0.01761   0.87938   0.00000  Uiso   1.00
C139   C     0.86028   0.57795   0.97222   0.00000  Uiso   1.00
C140   C     0.87411   0.54034   0.11265   0.00000  Uiso   1.00
C141   C     0.93075   0.50209   0.17010   0.00000  Uiso   1.00
C142   C     0.93396   0.47167   0.29971   0.00000  Uiso   1.00
C143   C     0.96330   0.41214   0.50723   0.00000  Uiso   1.00
C144   C     0.85490   0.64217   0.01981   0.00000  Uiso   1.00
C145   C     0.89537   0.68955   0.99917   0.00000  Uiso   1.00
C146   C     0.88239   0.74486   0.05061   0.00000  Uiso   1.00
C147   C     0.88187   0.84343   0.11389   0.00000  Uiso   1.00
C148   C     0.78674   0.56094   0.87194   0.00000  Uiso   1.00
C149   C     0.76990   0.54002   0.72695   0.00000  Uiso   1.00
C150   C     0.69954   0.52695   0.65388   0.00000  Uiso   1.00
C151   C     0.59318   0.49940   0.48757   0.00000  Uiso   1.00
C152   C     0.76528   0.59195   0.10025   0.00000  Uiso   1.00
C153   C     0.82251   0.54794   0.18219   0.00000  Uiso   1.00
C154   C     0.82563   0.51758   0.31175   0.00000  Uiso   1.00
C155   C     0.88226   0.47929   0.36937   0.00000  Uiso   1.00
C156   C     0.80329   0.64978   0.08935   0.00000  Uiso   1.00
C157   C     0.79025   0.70503   0.14082   0.00000  Uiso   1.00
C158   C     0.83070   0.75248   0.12027   0.00000  Uiso   1.00
C159   C     0.73513   0.56854   0.94148   0.00000  Uiso   1.00
C160   C     0.66478   0.55551   0.86861   0.00000  Uiso   1.00
C161   C     0.64784   0.53457   0.72355   0.00000  Uiso   1.00
H162   H     0.90046   0.57204   0.91808   0.00000  Uiso   1.00
H163   H     0.97067   0.49622   0.11625   0.00000  Uiso   1.00
H164   H     0.93529   0.68365   0.94534   0.00000  Uiso   1.00
H165   H     0.80984   0.53415   0.67317   0.00000  Uiso   1.00
H166   H     0.02578   0.41554   0.36667   0.00000  Uiso   1.00
H167   H     0.95116   0.81075   0.00623   0.00000  Uiso   1.00
H168   H     0.68662   0.49549   0.43232   0.00000  Uiso   1.00
H169   H     0.72510   0.59787   0.15439   0.00000  Uiso   1.00
H170   H     0.78569   0.52347   0.36554   0.00000  Uiso   1.00
H171   H     0.75031   0.71090   0.19462   0.00000  Uiso   1.00
H172   H     0.62487   0.56139   0.92246   0.00000  Uiso   1.00
H173   H     0.87564   0.43766   0.56900   0.00000  Uiso   1.00
H174   H     0.80102   0.83287   0.20856   0.00000  Uiso   1.00
H175   H     0.53649   0.51760   0.63465   0.00000  Uiso   1.00
O176   O     0.99375   0.37720   0.60250   0.00000  Uiso   1.00
O177   O     0.89584   0.89570   0.12959   0.00000  Uiso   1.00
O178   O     0.54878   0.48209   0.37664   0.00000  Uiso   1.00
N179   N     0.98212   0.43094   0.38529   0.00000  Uiso   1.00
N180   N     0.91236   0.80044   0.04833   0.00000  Uiso   1.00
N181   N     0.66504   0.50571   0.51175   0.00000  Uiso   1.00
N182   N     0.90133   0.44284   0.49417   0.00000  Uiso   1.00
N183   N     0.83158   0.81234   0.15720   0.00000  Uiso   1.00
N184   N     0.58426   0.51761   0.62062   0.00000  Uiso   1.00
