data_job_04013
_audit_creation_date              2018-12-19
_audit_creation_method            'Materials Studio'
_symmetry_space_group_name_H-M    'P1'
_symmetry_Int_Tables_number       1
_symmetry_cell_setting            triclinic
loop_
_symmetry_equiv_pos_as_xyz
  x,y,z
_cell_length_a                    33.0987
_cell_length_b                    33.0987
_cell_length_c                    7.2204
_cell_angle_alpha                 90.0000
_cell_angle_beta                  90.0000
_cell_angle_gamma                 120.0000
loop_
_atom_site_label
_atom_site_type_symbol
_atom_site_fract_x
_atom_site_fract_y
_atom_site_fract_z
_atom_site_U_iso_or_equiv
_atom_site_adp_type
_atom_site_occupancy
C1     C     0.83735   0.29856   0.17501   0.00000  Uiso   1.00
C2     C     0.82024   0.32982   0.09325   0.00000  Uiso   1.00
C3     C     0.80584   0.35612   0.19364   0.00000  Uiso   1.00
C4     C     0.79143   0.38243   0.09310   0.00000  Uiso   1.00
C5     C     0.76484   0.43095   0.99565   0.00000  Uiso   1.00
C6     C     0.80608   0.25016   0.09353   0.00000  Uiso   1.00
C7     C     0.77978   0.20949   0.19418   0.00000  Uiso   1.00
C8     C     0.75346   0.16874   0.09387   0.00000  Uiso   1.00
C9     C     0.70492   0.09359   0.99686   0.00000  Uiso   1.00
C10    C     0.88574   0.31566   0.09353   0.00000  Uiso   1.00
C11    C     0.92641   0.33004   0.19417   0.00000  Uiso   1.00
C12    C     0.96716   0.34442   0.09386   0.00000  Uiso   1.00
C13    C     0.04229   0.37096   0.99687   0.00000  Uiso   1.00
C14    C     0.83738   0.29850   0.81792   0.00000  Uiso   1.00
C15    C     0.82026   0.32979   0.89929   0.00000  Uiso   1.00
C16    C     0.80587   0.35606   0.79857   0.00000  Uiso   1.00
C17    C     0.79145   0.38240   0.89880   0.00000  Uiso   1.00
C18    C     0.80610   0.25013   0.89958   0.00000  Uiso   1.00
C19    C     0.77981   0.20943   0.79910   0.00000  Uiso   1.00
C20    C     0.75348   0.16871   0.89956   0.00000  Uiso   1.00
C21    C     0.88576   0.31563   0.89958   0.00000  Uiso   1.00
C22    C     0.92644   0.32998   0.79910   0.00000  Uiso   1.00
C23    C     0.96717   0.34439   0.89956   0.00000  Uiso   1.00
H24    H     0.83733   0.29858   0.32601   0.00000  Uiso   1.00
H25    H     0.80582   0.35614   0.34374   0.00000  Uiso   1.00
H26    H     0.77978   0.20953   0.34427   0.00000  Uiso   1.00
H27    H     0.92639   0.33006   0.34426   0.00000  Uiso   1.00
H28    H     0.77088   0.41992   0.27787   0.00000  Uiso   1.00
H29    H     0.71597   0.11078   0.27898   0.00000  Uiso   1.00
H30    H     0.02512   0.36495   0.27898   0.00000  Uiso   1.00
H31    H     0.83739   0.29848   0.66691   0.00000  Uiso   1.00
H32    H     0.80589   0.35603   0.64848   0.00000  Uiso   1.00
H33    H     0.77984   0.20942   0.64901   0.00000  Uiso   1.00
H34    H     0.92644   0.32995   0.64900   0.00000  Uiso   1.00
H35    H     0.77093   0.41983   0.71357   0.00000  Uiso   1.00
H36    H     0.71602   0.11069   0.71468   0.00000  Uiso   1.00
H37    H     0.02517   0.36486   0.71467   0.00000  Uiso   1.00
O38    O     0.75016   0.45772   0.99548   0.00000  Uiso   1.00
O39    O     0.67813   0.05215   0.99695   0.00000  Uiso   1.00
O40    O     0.08373   0.38561   0.99694   0.00000  Uiso   1.00
N41    N     0.77523   0.41200   0.14759   0.00000  Uiso   1.00
N42    N     0.72388   0.12298   0.14863   0.00000  Uiso   1.00
N43    N     0.01291   0.36060   0.14863   0.00000  Uiso   1.00
N44    N     0.77525   0.41196   0.84394   0.00000  Uiso   1.00
N45    N     0.72391   0.12294   0.84499   0.00000  Uiso   1.00
N46    N     0.01294   0.36055   0.84498   0.00000  Uiso   1.00
C47    C     0.70144   0.53879   0.17501   0.00000  Uiso   1.00
C48    C     0.67018   0.49042   0.09325   0.00000  Uiso   1.00
C49    C     0.64388   0.44971   0.19364   0.00000  Uiso   1.00
C50    C     0.61757   0.40900   0.09310   0.00000  Uiso   1.00
C51    C     0.56905   0.33389   0.99565   0.00000  Uiso   1.00
C52    C     0.74984   0.55592   0.09353   0.00000  Uiso   1.00
C53    C     0.79051   0.57029   0.19418   0.00000  Uiso   1.00
C54    C     0.83126   0.58472   0.09387   0.00000  Uiso   1.00
C55    C     0.90641   0.61133   0.99686   0.00000  Uiso   1.00
C56    C     0.68434   0.57008   0.09353   0.00000  Uiso   1.00
C57    C     0.66996   0.59637   0.19417   0.00000  Uiso   1.00
C58    C     0.65558   0.62273   0.09386   0.00000  Uiso   1.00
C59    C     0.62904   0.67133   0.99687   0.00000  Uiso   1.00
C60    C     0.70150   0.53888   0.81792   0.00000  Uiso   1.00
C61    C     0.67021   0.49047   0.89929   0.00000  Uiso   1.00
C62    C     0.64394   0.44981   0.79857   0.00000  Uiso   1.00
C63    C     0.61760   0.40905   0.89880   0.00000  Uiso   1.00
C64    C     0.74987   0.55597   0.89958   0.00000  Uiso   1.00
C65    C     0.79057   0.57038   0.79910   0.00000  Uiso   1.00
C66    C     0.83129   0.58477   0.89956   0.00000  Uiso   1.00
C67    C     0.68437   0.57013   0.89958   0.00000  Uiso   1.00
C68    C     0.67002   0.59646   0.79910   0.00000  Uiso   1.00
C69    C     0.65561   0.62278   0.89956   0.00000  Uiso   1.00
H70    H     0.70142   0.53875   0.32601   0.00000  Uiso   1.00
H71    H     0.64386   0.44969   0.34374   0.00000  Uiso   1.00
H72    H     0.79047   0.57025   0.34427   0.00000  Uiso   1.00
H73    H     0.66994   0.59632   0.34426   0.00000  Uiso   1.00
H74    H     0.58008   0.35096   0.27787   0.00000  Uiso   1.00
H75    H     0.88922   0.60519   0.27898   0.00000  Uiso   1.00
H76    H     0.63505   0.66017   0.27898   0.00000  Uiso   1.00
H77    H     0.70152   0.53891   0.66691   0.00000  Uiso   1.00
H78    H     0.64397   0.44986   0.64848   0.00000  Uiso   1.00
H79    H     0.79058   0.57042   0.64901   0.00000  Uiso   1.00
H80    H     0.67005   0.59649   0.64900   0.00000  Uiso   1.00
H81    H     0.58017   0.35110   0.71357   0.00000  Uiso   1.00
H82    H     0.88931   0.60533   0.71468   0.00000  Uiso   1.00
H83    H     0.63514   0.66031   0.71467   0.00000  Uiso   1.00
O84    O     0.54228   0.29244   0.99548   0.00000  Uiso   1.00
O85    O     0.94785   0.62598   0.99695   0.00000  Uiso   1.00
O86    O     0.61439   0.69812   0.99694   0.00000  Uiso   1.00
N87    N     0.58800   0.36322   0.14759   0.00000  Uiso   1.00
N88    N     0.87702   0.60090   0.14863   0.00000  Uiso   1.00
N89    N     0.63940   0.65231   0.14863   0.00000  Uiso   1.00
N90    N     0.58804   0.36329   0.84394   0.00000  Uiso   1.00
N91    N     0.87706   0.60097   0.84499   0.00000  Uiso   1.00
N92    N     0.63945   0.65238   0.84498   0.00000  Uiso   1.00
C93    C     0.46121   0.16265   0.17501   0.00000  Uiso   1.00
C94    C     0.50958   0.17976   0.09325   0.00000  Uiso   1.00
C95    C     0.55029   0.19416   0.19364   0.00000  Uiso   1.00
C96    C     0.59100   0.20857   0.09310   0.00000  Uiso   1.00
C97    C     0.66611   0.23516   0.99565   0.00000  Uiso   1.00
C98    C     0.44408   0.19392   0.09353   0.00000  Uiso   1.00
C99    C     0.42971   0.22022   0.19418   0.00000  Uiso   1.00
C100   C     0.41528   0.24654   0.09387   0.00000  Uiso   1.00
C101   C     0.38867   0.29508   0.99686   0.00000  Uiso   1.00
C102   C     0.42992   0.11426   0.09353   0.00000  Uiso   1.00
C103   C     0.40363   0.07359   0.19417   0.00000  Uiso   1.00
C104   C     0.37727   0.03284   0.09386   0.00000  Uiso   1.00
C105   C     0.32867   0.95771   0.99687   0.00000  Uiso   1.00
C106   C     0.46112   0.16262   0.81792   0.00000  Uiso   1.00
C107   C     0.50953   0.17974   0.89929   0.00000  Uiso   1.00
C108   C     0.55019   0.19413   0.79857   0.00000  Uiso   1.00
C109   C     0.59095   0.20855   0.89880   0.00000  Uiso   1.00
C110   C     0.44403   0.19390   0.89958   0.00000  Uiso   1.00
C111   C     0.42962   0.22019   0.79910   0.00000  Uiso   1.00
C112   C     0.41523   0.24652   0.89956   0.00000  Uiso   1.00
C113   C     0.42987   0.11424   0.89958   0.00000  Uiso   1.00
C114   C     0.40354   0.07356   0.79910   0.00000  Uiso   1.00
C115   C     0.37722   0.03283   0.89956   0.00000  Uiso   1.00
H116   H     0.46125   0.16267   0.32601   0.00000  Uiso   1.00
H117   H     0.55031   0.19418   0.34374   0.00000  Uiso   1.00
H118   H     0.42975   0.22022   0.34427   0.00000  Uiso   1.00
H119   H     0.40368   0.07361   0.34426   0.00000  Uiso   1.00
H120   H     0.64904   0.22912   0.27787   0.00000  Uiso   1.00
H121   H     0.39481   0.28403   0.27898   0.00000  Uiso   1.00
H122   H     0.33983   0.97488   0.27898   0.00000  Uiso   1.00
H123   H     0.46109   0.16261   0.66691   0.00000  Uiso   1.00
H124   H     0.55014   0.19411   0.64848   0.00000  Uiso   1.00
H125   H     0.42958   0.22016   0.64901   0.00000  Uiso   1.00
H126   H     0.40351   0.07356   0.64900   0.00000  Uiso   1.00
H127   H     0.64890   0.22907   0.71357   0.00000  Uiso   1.00
H128   H     0.39467   0.28398   0.71468   0.00000  Uiso   1.00
H129   H     0.33969   0.97483   0.71467   0.00000  Uiso   1.00
O130   O     0.70756   0.24984   0.99548   0.00000  Uiso   1.00
O131   O     0.37402   0.32187   0.99695   0.00000  Uiso   1.00
O132   O     0.30188   0.91627   0.99694   0.00000  Uiso   1.00
N133   N     0.63678   0.22477   0.14759   0.00000  Uiso   1.00
N134   N     0.39910   0.27612   0.14863   0.00000  Uiso   1.00
N135   N     0.34769   0.98709   0.14863   0.00000  Uiso   1.00
N136   N     0.63671   0.22475   0.84394   0.00000  Uiso   1.00
N137   N     0.39903   0.27609   0.84499   0.00000  Uiso   1.00
N138   N     0.34762   0.98706   0.84498   0.00000  Uiso   1.00
C139   C     0.16265   0.70144   0.67501   0.00000  Uiso   1.00
C140   C     0.17976   0.67018   0.59325   0.00000  Uiso   1.00
C141   C     0.19416   0.64388   0.69364   0.00000  Uiso   1.00
C142   C     0.20857   0.61757   0.59310   0.00000  Uiso   1.00
C143   C     0.23516   0.56905   0.49565   0.00000  Uiso   1.00
C144   C     0.19392   0.74984   0.59353   0.00000  Uiso   1.00
C145   C     0.22022   0.79051   0.69418   0.00000  Uiso   1.00
C146   C     0.24654   0.83126   0.59387   0.00000  Uiso   1.00
C147   C     0.29508   0.90641   0.49686   0.00000  Uiso   1.00
C148   C     0.11426   0.68434   0.59353   0.00000  Uiso   1.00
C149   C     0.07359   0.66996   0.69417   0.00000  Uiso   1.00
C150   C     0.03284   0.65558   0.59386   0.00000  Uiso   1.00
C151   C     0.95771   0.62904   0.49687   0.00000  Uiso   1.00
C152   C     0.16262   0.70150   0.31792   0.00000  Uiso   1.00
C153   C     0.17974   0.67021   0.39929   0.00000  Uiso   1.00
C154   C     0.19413   0.64394   0.29857   0.00000  Uiso   1.00
C155   C     0.20855   0.61760   0.39880   0.00000  Uiso   1.00
C156   C     0.19390   0.74987   0.39958   0.00000  Uiso   1.00
C157   C     0.22019   0.79057   0.29910   0.00000  Uiso   1.00
C158   C     0.24652   0.83129   0.39956   0.00000  Uiso   1.00
C159   C     0.11424   0.68437   0.39958   0.00000  Uiso   1.00
C160   C     0.07356   0.67002   0.29910   0.00000  Uiso   1.00
C161   C     0.03283   0.65561   0.39956   0.00000  Uiso   1.00
H162   H     0.16267   0.70142   0.82601   0.00000  Uiso   1.00
H163   H     0.19418   0.64386   0.84374   0.00000  Uiso   1.00
H164   H     0.22022   0.79047   0.84427   0.00000  Uiso   1.00
H165   H     0.07361   0.66994   0.84426   0.00000  Uiso   1.00
H166   H     0.22912   0.58008   0.77787   0.00000  Uiso   1.00
H167   H     0.28403   0.88922   0.77898   0.00000  Uiso   1.00
H168   H     0.97488   0.63505   0.77898   0.00000  Uiso   1.00
H169   H     0.16261   0.70152   0.16691   0.00000  Uiso   1.00
H170   H     0.19411   0.64397   0.14848   0.00000  Uiso   1.00
H171   H     0.22016   0.79058   0.14901   0.00000  Uiso   1.00
H172   H     0.07356   0.67005   0.14900   0.00000  Uiso   1.00
H173   H     0.22907   0.58017   0.21357   0.00000  Uiso   1.00
H174   H     0.28398   0.88931   0.21468   0.00000  Uiso   1.00
H175   H     0.97483   0.63514   0.21467   0.00000  Uiso   1.00
O176   O     0.24984   0.54228   0.49548   0.00000  Uiso   1.00
O177   O     0.32187   0.94785   0.49695   0.00000  Uiso   1.00
O178   O     0.91627   0.61439   0.49694   0.00000  Uiso   1.00
N179   N     0.22477   0.58800   0.64759   0.00000  Uiso   1.00
N180   N     0.27612   0.87702   0.64863   0.00000  Uiso   1.00
N181   N     0.98709   0.63940   0.64863   0.00000  Uiso   1.00
N182   N     0.22475   0.58804   0.34394   0.00000  Uiso   1.00
N183   N     0.27609   0.87706   0.34499   0.00000  Uiso   1.00
N184   N     0.98706   0.63945   0.34498   0.00000  Uiso   1.00
C185   C     0.29856   0.46121   0.67501   0.00000  Uiso   1.00
C186   C     0.32982   0.50958   0.59325   0.00000  Uiso   1.00
C187   C     0.35612   0.55029   0.69364   0.00000  Uiso   1.00
C188   C     0.38243   0.59100   0.59310   0.00000  Uiso   1.00
C189   C     0.43095   0.66611   0.49565   0.00000  Uiso   1.00
C190   C     0.25016   0.44408   0.59353   0.00000  Uiso   1.00
C191   C     0.20949   0.42971   0.69418   0.00000  Uiso   1.00
C192   C     0.16874   0.41528   0.59387   0.00000  Uiso   1.00
C193   C     0.09359   0.38867   0.49686   0.00000  Uiso   1.00
C194   C     0.31566   0.42992   0.59353   0.00000  Uiso   1.00
C195   C     0.33004   0.40363   0.69417   0.00000  Uiso   1.00
C196   C     0.34442   0.37727   0.59386   0.00000  Uiso   1.00
C197   C     0.37096   0.32867   0.49687   0.00000  Uiso   1.00
C198   C     0.29850   0.46112   0.31792   0.00000  Uiso   1.00
C199   C     0.32979   0.50953   0.39929   0.00000  Uiso   1.00
C200   C     0.35606   0.55019   0.29857   0.00000  Uiso   1.00
C201   C     0.38240   0.59095   0.39880   0.00000  Uiso   1.00
C202   C     0.25013   0.44403   0.39958   0.00000  Uiso   1.00
C203   C     0.20943   0.42962   0.29910   0.00000  Uiso   1.00
C204   C     0.16871   0.41523   0.39956   0.00000  Uiso   1.00
C205   C     0.31563   0.42987   0.39958   0.00000  Uiso   1.00
C206   C     0.32998   0.40354   0.29910   0.00000  Uiso   1.00
C207   C     0.34439   0.37722   0.39956   0.00000  Uiso   1.00
H208   H     0.29858   0.46125   0.82601   0.00000  Uiso   1.00
H209   H     0.35614   0.55031   0.84374   0.00000  Uiso   1.00
H210   H     0.20953   0.42975   0.84427   0.00000  Uiso   1.00
H211   H     0.33006   0.40368   0.84426   0.00000  Uiso   1.00
H212   H     0.41992   0.64904   0.77787   0.00000  Uiso   1.00
H213   H     0.11078   0.39481   0.77898   0.00000  Uiso   1.00
H214   H     0.36495   0.33983   0.77898   0.00000  Uiso   1.00
H215   H     0.29848   0.46109   0.16691   0.00000  Uiso   1.00
H216   H     0.35603   0.55014   0.14848   0.00000  Uiso   1.00
H217   H     0.20942   0.42958   0.14901   0.00000  Uiso   1.00
H218   H     0.32995   0.40351   0.14900   0.00000  Uiso   1.00
H219   H     0.41983   0.64890   0.21357   0.00000  Uiso   1.00
H220   H     0.11069   0.39467   0.21468   0.00000  Uiso   1.00
H221   H     0.36486   0.33969   0.21467   0.00000  Uiso   1.00
O222   O     0.45772   0.70756   0.49548   0.00000  Uiso   1.00
O223   O     0.05215   0.37402   0.49695   0.00000  Uiso   1.00
O224   O     0.38561   0.30188   0.49694   0.00000  Uiso   1.00
N225   N     0.41200   0.63678   0.64759   0.00000  Uiso   1.00
N226   N     0.12298   0.39910   0.64863   0.00000  Uiso   1.00
N227   N     0.36060   0.34769   0.64863   0.00000  Uiso   1.00
N228   N     0.41196   0.63671   0.34394   0.00000  Uiso   1.00
N229   N     0.12294   0.39903   0.34499   0.00000  Uiso   1.00
N230   N     0.36055   0.34762   0.34498   0.00000  Uiso   1.00
C231   C     0.53879   0.83735   0.67501   0.00000  Uiso   1.00
C232   C     0.49042   0.82024   0.59325   0.00000  Uiso   1.00
C233   C     0.44971   0.80584   0.69364   0.00000  Uiso   1.00
C234   C     0.40900   0.79143   0.59310   0.00000  Uiso   1.00
C235   C     0.33389   0.76484   0.49565   0.00000  Uiso   1.00
C236   C     0.55592   0.80608   0.59353   0.00000  Uiso   1.00
C237   C     0.57029   0.77978   0.69418   0.00000  Uiso   1.00
C238   C     0.58472   0.75346   0.59387   0.00000  Uiso   1.00
C239   C     0.61133   0.70492   0.49686   0.00000  Uiso   1.00
C240   C     0.57008   0.88574   0.59353   0.00000  Uiso   1.00
C241   C     0.59637   0.92641   0.69417   0.00000  Uiso   1.00
C242   C     0.62273   0.96716   0.59386   0.00000  Uiso   1.00
C243   C     0.67133   0.04229   0.49687   0.00000  Uiso   1.00
C244   C     0.53888   0.83738   0.31792   0.00000  Uiso   1.00
C245   C     0.49047   0.82026   0.39929   0.00000  Uiso   1.00
C246   C     0.44981   0.80587   0.29857   0.00000  Uiso   1.00
C247   C     0.40905   0.79145   0.39880   0.00000  Uiso   1.00
C248   C     0.55597   0.80610   0.39958   0.00000  Uiso   1.00
C249   C     0.57038   0.77981   0.29910   0.00000  Uiso   1.00
C250   C     0.58477   0.75348   0.39956   0.00000  Uiso   1.00
C251   C     0.57013   0.88576   0.39958   0.00000  Uiso   1.00
C252   C     0.59646   0.92644   0.29910   0.00000  Uiso   1.00
C253   C     0.62278   0.96717   0.39956   0.00000  Uiso   1.00
H254   H     0.53875   0.83733   0.82601   0.00000  Uiso   1.00
H255   H     0.44969   0.80582   0.84374   0.00000  Uiso   1.00
H256   H     0.57025   0.77978   0.84427   0.00000  Uiso   1.00
H257   H     0.59632   0.92639   0.84426   0.00000  Uiso   1.00
H258   H     0.35096   0.77088   0.77787   0.00000  Uiso   1.00
H259   H     0.60519   0.71597   0.77898   0.00000  Uiso   1.00
H260   H     0.66017   0.02512   0.77898   0.00000  Uiso   1.00
H261   H     0.53891   0.83739   0.16691   0.00000  Uiso   1.00
H262   H     0.44986   0.80589   0.14848   0.00000  Uiso   1.00
H263   H     0.57042   0.77984   0.14901   0.00000  Uiso   1.00
H264   H     0.59649   0.92644   0.14900   0.00000  Uiso   1.00
H265   H     0.35110   0.77093   0.21357   0.00000  Uiso   1.00
H266   H     0.60533   0.71602   0.21468   0.00000  Uiso   1.00
H267   H     0.66031   0.02517   0.21467   0.00000  Uiso   1.00
O268   O     0.29244   0.75016   0.49548   0.00000  Uiso   1.00
O269   O     0.62598   0.67813   0.49695   0.00000  Uiso   1.00
O270   O     0.69812   0.08373   0.49694   0.00000  Uiso   1.00
N271   N     0.36322   0.77523   0.64759   0.00000  Uiso   1.00
N272   N     0.60090   0.72388   0.64863   0.00000  Uiso   1.00
N273   N     0.65231   0.01291   0.64863   0.00000  Uiso   1.00
N274   N     0.36329   0.77525   0.34394   0.00000  Uiso   1.00
N275   N     0.60097   0.72391   0.34499   0.00000  Uiso   1.00
N276   N     0.65238   0.01294   0.34498   0.00000  Uiso   1.00
