data_job_05424
_audit_creation_date              2018-12-19
_audit_creation_method            'Materials Studio'
_symmetry_space_group_name_H-M    'P1'
_symmetry_Int_Tables_number       1
_symmetry_cell_setting            triclinic
loop_
_symmetry_equiv_pos_as_xyz
  x,y,z
_cell_length_a                    12.8301
_cell_length_b                    19.3879
_cell_length_c                    21.7996
_cell_angle_alpha                 90.0000
_cell_angle_beta                  90.0000
_cell_angle_gamma                 90.0000
loop_
_atom_site_label
_atom_site_type_symbol
_atom_site_fract_x
_atom_site_fract_y
_atom_site_fract_z
_atom_site_U_iso_or_equiv
_atom_site_adp_type
_atom_site_occupancy
C1     C     0.62763   0.08730   0.65198   0.00000  Uiso   1.00
C2     C     0.68140   0.08665   0.71436   0.00000  Uiso   1.00
C3     C     0.64845   0.12206   0.76618   0.00000  Uiso   1.00
C4     C     0.70837   0.11479   0.81881   0.00000  Uiso   1.00
C5     C     0.77825   0.12008   0.91556   0.00000  Uiso   1.00
C6     C     0.70966   0.11115   0.60602   0.00000  Uiso   1.00
C7     C     0.70047   0.16716   0.56674   0.00000  Uiso   1.00
C8     C     0.78419   0.18050   0.52816   0.00000  Uiso   1.00
C9     C     0.89792   0.22380   0.45667   0.00000  Uiso   1.00
C10    C     0.60492   0.01209   0.63647   0.00000  Uiso   1.00
C11    C     0.50766   0.98480   0.62277   0.00000  Uiso   1.00
C12    C     0.50320   0.91475   0.60982   0.00000  Uiso   1.00
C13    C     0.45431   0.80424   0.58560   0.00000  Uiso   1.00
C14    C     0.79264   0.01141   0.65331   0.00000  Uiso   1.00
C15    C     0.77103   0.04544   0.71508   0.00000  Uiso   1.00
C16    C     0.83102   0.03810   0.76766   0.00000  Uiso   1.00
C17    C     0.79816   0.07350   0.81954   0.00000  Uiso   1.00
C18    C     0.79929   0.06994   0.60674   0.00000  Uiso   1.00
C19    C     0.88304   0.08320   0.56822   0.00000  Uiso   1.00
C20    C     0.87398   0.13921   0.52889   0.00000  Uiso   1.00
C21    C     0.69455   0.97087   0.63719   0.00000  Uiso   1.00
C22    C     0.69024   0.90085   0.62425   0.00000  Uiso   1.00
C23    C     0.59299   0.87346   0.61054   0.00000  Uiso   1.00
H24    H     0.55785   0.11939   0.65141   0.00000  Uiso   1.00
H25    H     0.57909   0.15396   0.76560   0.00000  Uiso   1.00
H26    H     0.63110   0.19904   0.56618   0.00000  Uiso   1.00
H27    H     0.43832   0.01672   0.62221   0.00000  Uiso   1.00
H28    H     0.64217   0.17413   0.89251   0.00000  Uiso   1.00
H29    H     0.75183   0.26917   0.47202   0.00000  Uiso   1.00
H30    H     0.34533   0.88471   0.59016   0.00000  Uiso   1.00
H31    H     0.86243   0.97932   0.65388   0.00000  Uiso   1.00
H32    H     0.90037   0.00620   0.76820   0.00000  Uiso   1.00
H33    H     0.95238   0.05129   0.56879   0.00000  Uiso   1.00
H34    H     0.75961   0.86897   0.62482   0.00000  Uiso   1.00
H35    H     0.90295   0.05421   0.89462   0.00000  Uiso   1.00
H36    H     0.01260   0.14925   0.47413   0.00000  Uiso   1.00
H37    H     0.60610   0.76479   0.59228   0.00000  Uiso   1.00
O38    O     0.79205   0.13440   0.96872   0.00000  Uiso   1.00
O39    O     0.93589   0.25908   0.41705   0.00000  Uiso   1.00
O40    O     0.40258   0.75468   0.57206   0.00000  Uiso   1.00
N41    N     0.69833   0.14220   0.87732   0.00000  Uiso   1.00
N42    N     0.80085   0.23107   0.48419   0.00000  Uiso   1.00
N43    N     0.42081   0.87163   0.59463   0.00000  Uiso   1.00
N44    N     0.83865   0.07768   0.87846   0.00000  Uiso   1.00
N45    N     0.94117   0.16654   0.48533   0.00000  Uiso   1.00
N46    N     0.56113   0.80710   0.59577   0.00000  Uiso   1.00
C47    C     0.87237   0.41270   0.15198   0.00000  Uiso   1.00
C48    C     0.81860   0.41335   0.21436   0.00000  Uiso   1.00
C49    C     0.85155   0.37794   0.26618   0.00000  Uiso   1.00
C50    C     0.79163   0.38521   0.31881   0.00000  Uiso   1.00
C51    C     0.72175   0.37992   0.41556   0.00000  Uiso   1.00
C52    C     0.79034   0.38885   0.10602   0.00000  Uiso   1.00
C53    C     0.79953   0.33284   0.06674   0.00000  Uiso   1.00
C54    C     0.71581   0.31950   0.02816   0.00000  Uiso   1.00
C55    C     0.60208   0.27620   0.95667   0.00000  Uiso   1.00
C56    C     0.89508   0.48791   0.13647   0.00000  Uiso   1.00
C57    C     0.99234   0.51520   0.12277   0.00000  Uiso   1.00
C58    C     0.99680   0.58525   0.10982   0.00000  Uiso   1.00
C59    C     0.04569   0.69576   0.08560   0.00000  Uiso   1.00
C60    C     0.70736   0.48859   0.15331   0.00000  Uiso   1.00
C61    C     0.72897   0.45456   0.21508   0.00000  Uiso   1.00
C62    C     0.66898   0.46190   0.26766   0.00000  Uiso   1.00
C63    C     0.70184   0.42650   0.31954   0.00000  Uiso   1.00
C64    C     0.70071   0.43006   0.10674   0.00000  Uiso   1.00
C65    C     0.61696   0.41680   0.06822   0.00000  Uiso   1.00
C66    C     0.62602   0.36079   0.02889   0.00000  Uiso   1.00
C67    C     0.80545   0.52913   0.13719   0.00000  Uiso   1.00
C68    C     0.80976   0.59915   0.12425   0.00000  Uiso   1.00
C69    C     0.90701   0.62654   0.11054   0.00000  Uiso   1.00
H70    H     0.94215   0.38061   0.15141   0.00000  Uiso   1.00
H71    H     0.92091   0.34604   0.26560   0.00000  Uiso   1.00
H72    H     0.86890   0.30096   0.06618   0.00000  Uiso   1.00
H73    H     0.06168   0.48328   0.12221   0.00000  Uiso   1.00
H74    H     0.85783   0.32587   0.39251   0.00000  Uiso   1.00
H75    H     0.74817   0.23083   0.97202   0.00000  Uiso   1.00
H76    H     0.15467   0.61529   0.09016   0.00000  Uiso   1.00
H77    H     0.63757   0.52068   0.15388   0.00000  Uiso   1.00
H78    H     0.59963   0.49380   0.26820   0.00000  Uiso   1.00
H79    H     0.54762   0.44871   0.06879   0.00000  Uiso   1.00
H80    H     0.74039   0.63103   0.12482   0.00000  Uiso   1.00
H81    H     0.59705   0.44579   0.39462   0.00000  Uiso   1.00
H82    H     0.48740   0.35075   0.97413   0.00000  Uiso   1.00
H83    H     0.89390   0.73521   0.09228   0.00000  Uiso   1.00
O84    O     0.70795   0.36560   0.46872   0.00000  Uiso   1.00
O85    O     0.56411   0.24092   0.91705   0.00000  Uiso   1.00
O86    O     0.09742   0.74532   0.07206   0.00000  Uiso   1.00
N87    N     0.80167   0.35780   0.37732   0.00000  Uiso   1.00
N88    N     0.69915   0.26893   0.98419   0.00000  Uiso   1.00
N89    N     0.07919   0.62837   0.09463   0.00000  Uiso   1.00
N90    N     0.66135   0.42232   0.37846   0.00000  Uiso   1.00
N91    N     0.55883   0.33346   0.98533   0.00000  Uiso   1.00
N92    N     0.93887   0.69290   0.09577   0.00000  Uiso   1.00
C93    C     0.37237   0.08730   0.84802   0.00000  Uiso   1.00
C94    C     0.31860   0.08665   0.78564   0.00000  Uiso   1.00
C95    C     0.35155   0.12206   0.73382   0.00000  Uiso   1.00
C96    C     0.29163   0.11479   0.68119   0.00000  Uiso   1.00
C97    C     0.22175   0.12008   0.58444   0.00000  Uiso   1.00
C98    C     0.29034   0.11115   0.89398   0.00000  Uiso   1.00
C99    C     0.29953   0.16716   0.93326   0.00000  Uiso   1.00
C100   C     0.21581   0.18050   0.97184   0.00000  Uiso   1.00
C101   C     0.10208   0.22380   0.04333   0.00000  Uiso   1.00
C102   C     0.39508   0.01209   0.86353   0.00000  Uiso   1.00
C103   C     0.49234   0.98480   0.87723   0.00000  Uiso   1.00
C104   C     0.49680   0.91475   0.89018   0.00000  Uiso   1.00
C105   C     0.54569   0.80424   0.91440   0.00000  Uiso   1.00
C106   C     0.20736   0.01141   0.84669   0.00000  Uiso   1.00
C107   C     0.22897   0.04544   0.78492   0.00000  Uiso   1.00
C108   C     0.16898   0.03810   0.73234   0.00000  Uiso   1.00
C109   C     0.20184   0.07350   0.68046   0.00000  Uiso   1.00
C110   C     0.20071   0.06994   0.89326   0.00000  Uiso   1.00
C111   C     0.11696   0.08320   0.93178   0.00000  Uiso   1.00
C112   C     0.12602   0.13921   0.97111   0.00000  Uiso   1.00
C113   C     0.30545   0.97087   0.86281   0.00000  Uiso   1.00
C114   C     0.30976   0.90085   0.87575   0.00000  Uiso   1.00
C115   C     0.40701   0.87346   0.88946   0.00000  Uiso   1.00
H116   H     0.44215   0.11939   0.84859   0.00000  Uiso   1.00
H117   H     0.42091   0.15396   0.73440   0.00000  Uiso   1.00
H118   H     0.36890   0.19904   0.93382   0.00000  Uiso   1.00
H119   H     0.56168   0.01672   0.87779   0.00000  Uiso   1.00
H120   H     0.35783   0.17413   0.60749   0.00000  Uiso   1.00
H121   H     0.24817   0.26917   0.02798   0.00000  Uiso   1.00
H122   H     0.65467   0.88471   0.90984   0.00000  Uiso   1.00
H123   H     0.13757   0.97932   0.84612   0.00000  Uiso   1.00
H124   H     0.09963   0.00620   0.73180   0.00000  Uiso   1.00
H125   H     0.04762   0.05129   0.93121   0.00000  Uiso   1.00
H126   H     0.24039   0.86897   0.87518   0.00000  Uiso   1.00
H127   H     0.09705   0.05421   0.60538   0.00000  Uiso   1.00
H128   H     0.98740   0.14925   0.02587   0.00000  Uiso   1.00
H129   H     0.39390   0.76479   0.90772   0.00000  Uiso   1.00
O130   O     0.20795   0.13440   0.53128   0.00000  Uiso   1.00
O131   O     0.06411   0.25908   0.08295   0.00000  Uiso   1.00
O132   O     0.59742   0.75468   0.92794   0.00000  Uiso   1.00
N133   N     0.30167   0.14220   0.62268   0.00000  Uiso   1.00
N134   N     0.19915   0.23107   0.01581   0.00000  Uiso   1.00
N135   N     0.57919   0.87163   0.90537   0.00000  Uiso   1.00
N136   N     0.16135   0.07768   0.62154   0.00000  Uiso   1.00
N137   N     0.05883   0.16654   0.01467   0.00000  Uiso   1.00
N138   N     0.43887   0.80710   0.90423   0.00000  Uiso   1.00
C139   C     0.12763   0.41270   0.34802   0.00000  Uiso   1.00
C140   C     0.18140   0.41335   0.28564   0.00000  Uiso   1.00
C141   C     0.14845   0.37794   0.23382   0.00000  Uiso   1.00
C142   C     0.20837   0.38521   0.18119   0.00000  Uiso   1.00
C143   C     0.27825   0.37992   0.08444   0.00000  Uiso   1.00
C144   C     0.20966   0.38885   0.39398   0.00000  Uiso   1.00
C145   C     0.20047   0.33284   0.43326   0.00000  Uiso   1.00
C146   C     0.28419   0.31950   0.47184   0.00000  Uiso   1.00
C147   C     0.39792   0.27620   0.54333   0.00000  Uiso   1.00
C148   C     0.10492   0.48791   0.36353   0.00000  Uiso   1.00
C149   C     0.00766   0.51520   0.37723   0.00000  Uiso   1.00
C150   C     0.00320   0.58525   0.39018   0.00000  Uiso   1.00
C151   C     0.95431   0.69576   0.41440   0.00000  Uiso   1.00
C152   C     0.29264   0.48859   0.34669   0.00000  Uiso   1.00
C153   C     0.27103   0.45456   0.28492   0.00000  Uiso   1.00
C154   C     0.33102   0.46190   0.23234   0.00000  Uiso   1.00
C155   C     0.29816   0.42650   0.18046   0.00000  Uiso   1.00
C156   C     0.29929   0.43006   0.39326   0.00000  Uiso   1.00
C157   C     0.38304   0.41680   0.43178   0.00000  Uiso   1.00
C158   C     0.37398   0.36079   0.47111   0.00000  Uiso   1.00
C159   C     0.19455   0.52913   0.36281   0.00000  Uiso   1.00
C160   C     0.19024   0.59915   0.37575   0.00000  Uiso   1.00
C161   C     0.09299   0.62654   0.38946   0.00000  Uiso   1.00
H162   H     0.05785   0.38061   0.34859   0.00000  Uiso   1.00
H163   H     0.07909   0.34604   0.23440   0.00000  Uiso   1.00
H164   H     0.13110   0.30096   0.43382   0.00000  Uiso   1.00
H165   H     0.93832   0.48328   0.37779   0.00000  Uiso   1.00
H166   H     0.14217   0.32587   0.10749   0.00000  Uiso   1.00
H167   H     0.25183   0.23083   0.52798   0.00000  Uiso   1.00
H168   H     0.84533   0.61529   0.40984   0.00000  Uiso   1.00
H169   H     0.36243   0.52068   0.34612   0.00000  Uiso   1.00
H170   H     0.40037   0.49380   0.23180   0.00000  Uiso   1.00
H171   H     0.45238   0.44871   0.43121   0.00000  Uiso   1.00
H172   H     0.25961   0.63103   0.37518   0.00000  Uiso   1.00
H173   H     0.40295   0.44579   0.10538   0.00000  Uiso   1.00
H174   H     0.51260   0.35075   0.52587   0.00000  Uiso   1.00
H175   H     0.10610   0.73521   0.40772   0.00000  Uiso   1.00
O176   O     0.29205   0.36560   0.03128   0.00000  Uiso   1.00
O177   O     0.43589   0.24092   0.58295   0.00000  Uiso   1.00
O178   O     0.90258   0.74532   0.42794   0.00000  Uiso   1.00
N179   N     0.19833   0.35780   0.12268   0.00000  Uiso   1.00
N180   N     0.30085   0.26893   0.51581   0.00000  Uiso   1.00
N181   N     0.92081   0.62837   0.40537   0.00000  Uiso   1.00
N182   N     0.33865   0.42232   0.12154   0.00000  Uiso   1.00
N183   N     0.44117   0.33346   0.51467   0.00000  Uiso   1.00
N184   N     0.06113   0.69290   0.40423   0.00000  Uiso   1.00
C185   C     0.37237   0.91270   0.34802   0.00000  Uiso   1.00
C186   C     0.31860   0.91335   0.28564   0.00000  Uiso   1.00
C187   C     0.35155   0.87794   0.23382   0.00000  Uiso   1.00
C188   C     0.29163   0.88521   0.18119   0.00000  Uiso   1.00
C189   C     0.22175   0.87992   0.08444   0.00000  Uiso   1.00
C190   C     0.29034   0.88885   0.39398   0.00000  Uiso   1.00
C191   C     0.29953   0.83284   0.43326   0.00000  Uiso   1.00
C192   C     0.21581   0.81950   0.47184   0.00000  Uiso   1.00
C193   C     0.10208   0.77620   0.54333   0.00000  Uiso   1.00
C194   C     0.39508   0.98791   0.36353   0.00000  Uiso   1.00
C195   C     0.49234   0.01520   0.37723   0.00000  Uiso   1.00
C196   C     0.49680   0.08525   0.39018   0.00000  Uiso   1.00
C197   C     0.54569   0.19576   0.41440   0.00000  Uiso   1.00
C198   C     0.20736   0.98859   0.34669   0.00000  Uiso   1.00
C199   C     0.22897   0.95456   0.28492   0.00000  Uiso   1.00
C200   C     0.16898   0.96190   0.23234   0.00000  Uiso   1.00
C201   C     0.20184   0.92650   0.18046   0.00000  Uiso   1.00
C202   C     0.20071   0.93006   0.39326   0.00000  Uiso   1.00
C203   C     0.11696   0.91680   0.43178   0.00000  Uiso   1.00
C204   C     0.12602   0.86079   0.47111   0.00000  Uiso   1.00
C205   C     0.30545   0.02913   0.36281   0.00000  Uiso   1.00
C206   C     0.30976   0.09915   0.37575   0.00000  Uiso   1.00
C207   C     0.40701   0.12654   0.38946   0.00000  Uiso   1.00
H208   H     0.44215   0.88061   0.34859   0.00000  Uiso   1.00
H209   H     0.42091   0.84604   0.23440   0.00000  Uiso   1.00
H210   H     0.36890   0.80096   0.43382   0.00000  Uiso   1.00
H211   H     0.56168   0.98328   0.37779   0.00000  Uiso   1.00
H212   H     0.35783   0.82587   0.10749   0.00000  Uiso   1.00
H213   H     0.24817   0.73083   0.52798   0.00000  Uiso   1.00
H214   H     0.65467   0.11529   0.40984   0.00000  Uiso   1.00
H215   H     0.13757   0.02068   0.34612   0.00000  Uiso   1.00
H216   H     0.09963   0.99380   0.23180   0.00000  Uiso   1.00
H217   H     0.04762   0.94871   0.43121   0.00000  Uiso   1.00
H218   H     0.24039   0.13103   0.37518   0.00000  Uiso   1.00
H219   H     0.09705   0.94579   0.10538   0.00000  Uiso   1.00
H220   H     0.98740   0.85075   0.52587   0.00000  Uiso   1.00
H221   H     0.39390   0.23521   0.40772   0.00000  Uiso   1.00
O222   O     0.20795   0.86560   0.03128   0.00000  Uiso   1.00
O223   O     0.06411   0.74092   0.58295   0.00000  Uiso   1.00
O224   O     0.59742   0.24532   0.42794   0.00000  Uiso   1.00
N225   N     0.30167   0.85780   0.12268   0.00000  Uiso   1.00
N226   N     0.19915   0.76893   0.51581   0.00000  Uiso   1.00
N227   N     0.57919   0.12837   0.40537   0.00000  Uiso   1.00
N228   N     0.16135   0.92232   0.12154   0.00000  Uiso   1.00
N229   N     0.05883   0.83346   0.51467   0.00000  Uiso   1.00
N230   N     0.43887   0.19290   0.40423   0.00000  Uiso   1.00
C231   C     0.12763   0.58730   0.84802   0.00000  Uiso   1.00
C232   C     0.18140   0.58665   0.78564   0.00000  Uiso   1.00
C233   C     0.14845   0.62206   0.73382   0.00000  Uiso   1.00
C234   C     0.20837   0.61479   0.68119   0.00000  Uiso   1.00
C235   C     0.27825   0.62008   0.58444   0.00000  Uiso   1.00
C236   C     0.20966   0.61115   0.89398   0.00000  Uiso   1.00
C237   C     0.20047   0.66716   0.93326   0.00000  Uiso   1.00
C238   C     0.28419   0.68050   0.97184   0.00000  Uiso   1.00
C239   C     0.39792   0.72380   0.04333   0.00000  Uiso   1.00
C240   C     0.10492   0.51209   0.86353   0.00000  Uiso   1.00
C241   C     0.00766   0.48480   0.87723   0.00000  Uiso   1.00
C242   C     0.00320   0.41475   0.89018   0.00000  Uiso   1.00
C243   C     0.95431   0.30424   0.91440   0.00000  Uiso   1.00
C244   C     0.29264   0.51141   0.84669   0.00000  Uiso   1.00
C245   C     0.27103   0.54544   0.78492   0.00000  Uiso   1.00
C246   C     0.33102   0.53810   0.73234   0.00000  Uiso   1.00
C247   C     0.29816   0.57350   0.68046   0.00000  Uiso   1.00
C248   C     0.29929   0.56994   0.89326   0.00000  Uiso   1.00
C249   C     0.38304   0.58320   0.93178   0.00000  Uiso   1.00
C250   C     0.37398   0.63921   0.97111   0.00000  Uiso   1.00
C251   C     0.19455   0.47087   0.86281   0.00000  Uiso   1.00
C252   C     0.19024   0.40085   0.87575   0.00000  Uiso   1.00
C253   C     0.09299   0.37346   0.88946   0.00000  Uiso   1.00
H254   H     0.05785   0.61939   0.84859   0.00000  Uiso   1.00
H255   H     0.07909   0.65396   0.73440   0.00000  Uiso   1.00
H256   H     0.13110   0.69904   0.93382   0.00000  Uiso   1.00
H257   H     0.93832   0.51672   0.87779   0.00000  Uiso   1.00
H258   H     0.14217   0.67413   0.60749   0.00000  Uiso   1.00
H259   H     0.25183   0.76917   0.02798   0.00000  Uiso   1.00
H260   H     0.84533   0.38471   0.90984   0.00000  Uiso   1.00
H261   H     0.36243   0.47932   0.84612   0.00000  Uiso   1.00
H262   H     0.40037   0.50620   0.73180   0.00000  Uiso   1.00
H263   H     0.45238   0.55129   0.93121   0.00000  Uiso   1.00
H264   H     0.25961   0.36897   0.87518   0.00000  Uiso   1.00
H265   H     0.40295   0.55421   0.60538   0.00000  Uiso   1.00
H266   H     0.51260   0.64925   0.02587   0.00000  Uiso   1.00
H267   H     0.10610   0.26479   0.90772   0.00000  Uiso   1.00
O268   O     0.29205   0.63440   0.53128   0.00000  Uiso   1.00
O269   O     0.43589   0.75908   0.08295   0.00000  Uiso   1.00
O270   O     0.90258   0.25468   0.92794   0.00000  Uiso   1.00
N271   N     0.19833   0.64220   0.62268   0.00000  Uiso   1.00
N272   N     0.30085   0.73107   0.01581   0.00000  Uiso   1.00
N273   N     0.92081   0.37163   0.90537   0.00000  Uiso   1.00
N274   N     0.33865   0.57768   0.62154   0.00000  Uiso   1.00
N275   N     0.44117   0.66654   0.01467   0.00000  Uiso   1.00
N276   N     0.06113   0.30710   0.90423   0.00000  Uiso   1.00
C277   C     0.62763   0.91270   0.15198   0.00000  Uiso   1.00
C278   C     0.68140   0.91335   0.21436   0.00000  Uiso   1.00
C279   C     0.64845   0.87794   0.26618   0.00000  Uiso   1.00
C280   C     0.70837   0.88521   0.31881   0.00000  Uiso   1.00
C281   C     0.77825   0.87992   0.41556   0.00000  Uiso   1.00
C282   C     0.70966   0.88885   0.10602   0.00000  Uiso   1.00
C283   C     0.70047   0.83284   0.06674   0.00000  Uiso   1.00
C284   C     0.78419   0.81950   0.02816   0.00000  Uiso   1.00
C285   C     0.89792   0.77620   0.95667   0.00000  Uiso   1.00
C286   C     0.60492   0.98791   0.13647   0.00000  Uiso   1.00
C287   C     0.50766   0.01520   0.12277   0.00000  Uiso   1.00
C288   C     0.50320   0.08525   0.10982   0.00000  Uiso   1.00
C289   C     0.45431   0.19576   0.08560   0.00000  Uiso   1.00
C290   C     0.79264   0.98859   0.15331   0.00000  Uiso   1.00
C291   C     0.77103   0.95456   0.21508   0.00000  Uiso   1.00
C292   C     0.83102   0.96190   0.26766   0.00000  Uiso   1.00
C293   C     0.79816   0.92650   0.31954   0.00000  Uiso   1.00
C294   C     0.79929   0.93006   0.10674   0.00000  Uiso   1.00
C295   C     0.88304   0.91680   0.06822   0.00000  Uiso   1.00
C296   C     0.87398   0.86079   0.02889   0.00000  Uiso   1.00
C297   C     0.69455   0.02913   0.13719   0.00000  Uiso   1.00
C298   C     0.69024   0.09915   0.12425   0.00000  Uiso   1.00
C299   C     0.59299   0.12654   0.11054   0.00000  Uiso   1.00
H300   H     0.55785   0.88061   0.15141   0.00000  Uiso   1.00
H301   H     0.57909   0.84604   0.26560   0.00000  Uiso   1.00
H302   H     0.63110   0.80096   0.06618   0.00000  Uiso   1.00
H303   H     0.43832   0.98328   0.12221   0.00000  Uiso   1.00
H304   H     0.64217   0.82587   0.39251   0.00000  Uiso   1.00
H305   H     0.75183   0.73083   0.97202   0.00000  Uiso   1.00
H306   H     0.34533   0.11529   0.09016   0.00000  Uiso   1.00
H307   H     0.86243   0.02068   0.15388   0.00000  Uiso   1.00
H308   H     0.90037   0.99380   0.26820   0.00000  Uiso   1.00
H309   H     0.95238   0.94871   0.06879   0.00000  Uiso   1.00
H310   H     0.75961   0.13103   0.12482   0.00000  Uiso   1.00
H311   H     0.90295   0.94579   0.39462   0.00000  Uiso   1.00
H312   H     0.01260   0.85075   0.97413   0.00000  Uiso   1.00
H313   H     0.60610   0.23521   0.09228   0.00000  Uiso   1.00
O314   O     0.79205   0.86560   0.46872   0.00000  Uiso   1.00
O315   O     0.93589   0.74092   0.91705   0.00000  Uiso   1.00
O316   O     0.40258   0.24532   0.07206   0.00000  Uiso   1.00
N317   N     0.69833   0.85780   0.37732   0.00000  Uiso   1.00
N318   N     0.80085   0.76893   0.98419   0.00000  Uiso   1.00
N319   N     0.42081   0.12837   0.09463   0.00000  Uiso   1.00
N320   N     0.83865   0.92232   0.37846   0.00000  Uiso   1.00
N321   N     0.94117   0.83346   0.98533   0.00000  Uiso   1.00
N322   N     0.56113   0.19290   0.09577   0.00000  Uiso   1.00
C323   C     0.87237   0.58730   0.65198   0.00000  Uiso   1.00
C324   C     0.81860   0.58665   0.71436   0.00000  Uiso   1.00
C325   C     0.85155   0.62206   0.76618   0.00000  Uiso   1.00
C326   C     0.79163   0.61479   0.81881   0.00000  Uiso   1.00
C327   C     0.72175   0.62008   0.91556   0.00000  Uiso   1.00
C328   C     0.79034   0.61115   0.60602   0.00000  Uiso   1.00
C329   C     0.79953   0.66716   0.56674   0.00000  Uiso   1.00
C330   C     0.71581   0.68050   0.52816   0.00000  Uiso   1.00
C331   C     0.60208   0.72380   0.45667   0.00000  Uiso   1.00
C332   C     0.89508   0.51209   0.63647   0.00000  Uiso   1.00
C333   C     0.99234   0.48480   0.62277   0.00000  Uiso   1.00
C334   C     0.99680   0.41475   0.60982   0.00000  Uiso   1.00
C335   C     0.04569   0.30424   0.58560   0.00000  Uiso   1.00
C336   C     0.70736   0.51141   0.65331   0.00000  Uiso   1.00
C337   C     0.72897   0.54544   0.71508   0.00000  Uiso   1.00
C338   C     0.66898   0.53810   0.76766   0.00000  Uiso   1.00
C339   C     0.70184   0.57350   0.81954   0.00000  Uiso   1.00
C340   C     0.70071   0.56994   0.60674   0.00000  Uiso   1.00
C341   C     0.61696   0.58320   0.56822   0.00000  Uiso   1.00
C342   C     0.62602   0.63921   0.52889   0.00000  Uiso   1.00
C343   C     0.80545   0.47087   0.63719   0.00000  Uiso   1.00
C344   C     0.80976   0.40085   0.62425   0.00000  Uiso   1.00
C345   C     0.90701   0.37346   0.61054   0.00000  Uiso   1.00
H346   H     0.94215   0.61939   0.65141   0.00000  Uiso   1.00
H347   H     0.92091   0.65396   0.76560   0.00000  Uiso   1.00
H348   H     0.86890   0.69904   0.56618   0.00000  Uiso   1.00
H349   H     0.06168   0.51672   0.62221   0.00000  Uiso   1.00
H350   H     0.85783   0.67413   0.89251   0.00000  Uiso   1.00
H351   H     0.74817   0.76917   0.47202   0.00000  Uiso   1.00
H352   H     0.15467   0.38471   0.59016   0.00000  Uiso   1.00
H353   H     0.63757   0.47932   0.65388   0.00000  Uiso   1.00
H354   H     0.59963   0.50620   0.76820   0.00000  Uiso   1.00
H355   H     0.54762   0.55129   0.56879   0.00000  Uiso   1.00
H356   H     0.74039   0.36897   0.62482   0.00000  Uiso   1.00
H357   H     0.59705   0.55421   0.89462   0.00000  Uiso   1.00
H358   H     0.48740   0.64925   0.47413   0.00000  Uiso   1.00
H359   H     0.89390   0.26479   0.59228   0.00000  Uiso   1.00
O360   O     0.70795   0.63440   0.96872   0.00000  Uiso   1.00
O361   O     0.56411   0.75908   0.41705   0.00000  Uiso   1.00
O362   O     0.09742   0.25468   0.57206   0.00000  Uiso   1.00
N363   N     0.80167   0.64220   0.87732   0.00000  Uiso   1.00
N364   N     0.69915   0.73107   0.48419   0.00000  Uiso   1.00
N365   N     0.07919   0.37163   0.59463   0.00000  Uiso   1.00
N366   N     0.66135   0.57768   0.87846   0.00000  Uiso   1.00
N367   N     0.55883   0.66654   0.48533   0.00000  Uiso   1.00
N368   N     0.93887   0.30710   0.59577   0.00000  Uiso   1.00
