data_job_03714
_audit_creation_date              2018-12-19
_audit_creation_method            'Materials Studio'
_symmetry_space_group_name_H-M    'P1'
_symmetry_Int_Tables_number       1
_symmetry_cell_setting            triclinic
loop_
_symmetry_equiv_pos_as_xyz
  x,y,z
_cell_length_a                    43.6233
_cell_length_b                    8.6109
_cell_length_c                    20.5460
_cell_angle_alpha                 90.0000
_cell_angle_beta                  104.0800
_cell_angle_gamma                 90.0000
loop_
_atom_site_label
_atom_site_type_symbol
_atom_site_fract_x
_atom_site_fract_y
_atom_site_fract_z
_atom_site_U_iso_or_equiv
_atom_site_adp_type
_atom_site_occupancy
C1     C     0.13433   0.19155   0.44550   0.00000  Uiso   1.00
C2     C     0.11519   0.31952   0.46848   0.00000  Uiso   1.00
C3     C     0.08325   0.31246   0.46703   0.00000  Uiso   1.00
C4     C     0.07011   0.44170   0.49026   0.00000  Uiso   1.00
C5     C     0.03764   0.62043   0.52229   0.00000  Uiso   1.00
C6     C     0.14896   0.26504   0.39263   0.00000  Uiso   1.00
C7     C     0.14541   0.21215   0.32741   0.00000  Uiso   1.00
C8     C     0.16070   0.29551   0.28678   0.00000  Uiso   1.00
C9     C     0.18066   0.38958   0.20106   0.00000  Uiso   1.00
C10    C     0.16176   0.15600   0.50543   0.00000  Uiso   1.00
C11    C     0.16899   0.01143   0.53504   0.00000  Uiso   1.00
C12    C     0.19507   0.00298   0.58938   0.00000  Uiso   1.00
C13    C     0.23491   0.92776   0.67880   0.00000  Uiso   1.00
C14    C     0.16780   0.43362   0.48933   0.00000  Uiso   1.00
C15    C     0.13337   0.45100   0.49228   0.00000  Uiso   1.00
C16    C     0.12028   0.58028   0.51552   0.00000  Uiso   1.00
C17    C     0.08833   0.57342   0.51411   0.00000  Uiso   1.00
C18    C     0.16714   0.39651   0.41643   0.00000  Uiso   1.00
C19    C     0.18244   0.47997   0.37589   0.00000  Uiso   1.00
C20    C     0.17891   0.42723   0.31063   0.00000  Uiso   1.00
C21    C     0.17994   0.28748   0.52924   0.00000  Uiso   1.00
C22    C     0.20602   0.27925   0.58353   0.00000  Uiso   1.00
C23    C     0.21328   0.13470   0.61323   0.00000  Uiso   1.00
H24    H     0.12017   0.08919   0.42697   0.00000  Uiso   1.00
H25    H     0.06919   0.21070   0.44860   0.00000  Uiso   1.00
H26    H     0.13134   0.11039   0.30900   0.00000  Uiso   1.00
H27    H     0.15491   0.90971   0.51661   0.00000  Uiso   1.00
H28    H     0.02068   0.40341   0.48306   0.00000  Uiso   1.00
H29    H     0.15173   0.19188   0.18871   0.00000  Uiso   1.00
H30    H     0.20145   0.76869   0.62649   0.00000  Uiso   1.00
H31    H     0.18195   0.53599   0.50786   0.00000  Uiso   1.00
H32    H     0.13436   0.68201   0.53394   0.00000  Uiso   1.00
H33    H     0.19650   0.58170   0.39433   0.00000  Uiso   1.00
H34    H     0.22008   0.38102   0.60194   0.00000  Uiso   1.00
H35    H     0.07357   0.78595   0.55232   0.00000  Uiso   1.00
H36    H     0.20463   0.57441   0.25797   0.00000  Uiso   1.00
H37    H     0.25434   0.15123   0.69575   0.00000  Uiso   1.00
O38    O     0.01470   0.68270   0.53337   0.00000  Uiso   1.00
O39    O     0.18664   0.40515   0.14719   0.00000  Uiso   1.00
O40    O     0.25186   0.84995   0.72155   0.00000  Uiso   1.00
N41    N     0.03966   0.47339   0.49580   0.00000  Uiso   1.00
N42    N     0.16218   0.27563   0.22059   0.00000  Uiso   1.00
N43    N     0.20867   0.87998   0.62987   0.00000  Uiso   1.00
N44    N     0.06812   0.67923   0.53307   0.00000  Uiso   1.00
N45    N     0.19064   0.48147   0.25786   0.00000  Uiso   1.00
N46    N     0.23713   0.08582   0.66714   0.00000  Uiso   1.00
C47    C     0.63433   0.69155   0.44550   0.00000  Uiso   1.00
C48    C     0.61519   0.81952   0.46848   0.00000  Uiso   1.00
C49    C     0.58325   0.81246   0.46703   0.00000  Uiso   1.00
C50    C     0.57011   0.94170   0.49026   0.00000  Uiso   1.00
C51    C     0.53764   0.12043   0.52229   0.00000  Uiso   1.00
C52    C     0.64896   0.76504   0.39263   0.00000  Uiso   1.00
C53    C     0.64541   0.71215   0.32741   0.00000  Uiso   1.00
C54    C     0.66070   0.79551   0.28678   0.00000  Uiso   1.00
C55    C     0.68066   0.88958   0.20106   0.00000  Uiso   1.00
C56    C     0.66176   0.65600   0.50543   0.00000  Uiso   1.00
C57    C     0.66899   0.51143   0.53504   0.00000  Uiso   1.00
C58    C     0.69507   0.50298   0.58938   0.00000  Uiso   1.00
C59    C     0.73491   0.42776   0.67880   0.00000  Uiso   1.00
C60    C     0.66780   0.93362   0.48933   0.00000  Uiso   1.00
C61    C     0.63337   0.95100   0.49228   0.00000  Uiso   1.00
C62    C     0.62028   0.08028   0.51552   0.00000  Uiso   1.00
C63    C     0.58833   0.07342   0.51411   0.00000  Uiso   1.00
C64    C     0.66714   0.89651   0.41643   0.00000  Uiso   1.00
C65    C     0.68244   0.97997   0.37589   0.00000  Uiso   1.00
C66    C     0.67891   0.92723   0.31063   0.00000  Uiso   1.00
C67    C     0.67994   0.78748   0.52924   0.00000  Uiso   1.00
C68    C     0.70602   0.77925   0.58353   0.00000  Uiso   1.00
C69    C     0.71328   0.63470   0.61323   0.00000  Uiso   1.00
H70    H     0.62017   0.58919   0.42697   0.00000  Uiso   1.00
H71    H     0.56919   0.71070   0.44860   0.00000  Uiso   1.00
H72    H     0.63134   0.61039   0.30900   0.00000  Uiso   1.00
H73    H     0.65491   0.40971   0.51661   0.00000  Uiso   1.00
H74    H     0.52068   0.90341   0.48306   0.00000  Uiso   1.00
H75    H     0.65173   0.69188   0.18871   0.00000  Uiso   1.00
H76    H     0.70145   0.26869   0.62649   0.00000  Uiso   1.00
H77    H     0.68195   0.03599   0.50786   0.00000  Uiso   1.00
H78    H     0.63436   0.18201   0.53394   0.00000  Uiso   1.00
H79    H     0.69650   0.08170   0.39433   0.00000  Uiso   1.00
H80    H     0.72008   0.88102   0.60194   0.00000  Uiso   1.00
H81    H     0.57357   0.28595   0.55232   0.00000  Uiso   1.00
H82    H     0.70463   0.07441   0.25797   0.00000  Uiso   1.00
H83    H     0.75434   0.65123   0.69575   0.00000  Uiso   1.00
O84    O     0.51470   0.18270   0.53337   0.00000  Uiso   1.00
O85    O     0.68664   0.90515   0.14719   0.00000  Uiso   1.00
O86    O     0.75186   0.34995   0.72155   0.00000  Uiso   1.00
N87    N     0.53966   0.97339   0.49580   0.00000  Uiso   1.00
N88    N     0.66218   0.77563   0.22059   0.00000  Uiso   1.00
N89    N     0.70867   0.37998   0.62987   0.00000  Uiso   1.00
N90    N     0.56812   0.17923   0.53307   0.00000  Uiso   1.00
N91    N     0.69064   0.98147   0.25786   0.00000  Uiso   1.00
N92    N     0.73713   0.58582   0.66714   0.00000  Uiso   1.00
C93    C     0.86567   0.19155   0.05450   0.00000  Uiso   1.00
C94    C     0.88481   0.31952   0.03152   0.00000  Uiso   1.00
C95    C     0.91675   0.31246   0.03297   0.00000  Uiso   1.00
C96    C     0.92989   0.44170   0.00974   0.00000  Uiso   1.00
C97    C     0.96236   0.62043   0.97771   0.00000  Uiso   1.00
C98    C     0.85104   0.26504   0.10737   0.00000  Uiso   1.00
C99    C     0.85459   0.21215   0.17259   0.00000  Uiso   1.00
C100   C     0.83930   0.29551   0.21322   0.00000  Uiso   1.00
C101   C     0.81934   0.38958   0.29894   0.00000  Uiso   1.00
C102   C     0.83824   0.15600   0.99457   0.00000  Uiso   1.00
C103   C     0.83101   0.01143   0.96496   0.00000  Uiso   1.00
C104   C     0.80493   0.00298   0.91062   0.00000  Uiso   1.00
C105   C     0.76509   0.92776   0.82120   0.00000  Uiso   1.00
C106   C     0.83220   0.43362   0.01067   0.00000  Uiso   1.00
C107   C     0.86663   0.45100   0.00772   0.00000  Uiso   1.00
C108   C     0.87972   0.58028   0.98448   0.00000  Uiso   1.00
C109   C     0.91167   0.57342   0.98589   0.00000  Uiso   1.00
C110   C     0.83286   0.39651   0.08357   0.00000  Uiso   1.00
C111   C     0.81756   0.47997   0.12411   0.00000  Uiso   1.00
C112   C     0.82109   0.42723   0.18937   0.00000  Uiso   1.00
C113   C     0.82006   0.28748   0.97076   0.00000  Uiso   1.00
C114   C     0.79398   0.27925   0.91647   0.00000  Uiso   1.00
C115   C     0.78672   0.13470   0.88677   0.00000  Uiso   1.00
H116   H     0.87983   0.08919   0.07303   0.00000  Uiso   1.00
H117   H     0.93081   0.21070   0.05140   0.00000  Uiso   1.00
H118   H     0.86866   0.11039   0.19100   0.00000  Uiso   1.00
H119   H     0.84509   0.90971   0.98339   0.00000  Uiso   1.00
H120   H     0.97932   0.40341   0.01694   0.00000  Uiso   1.00
H121   H     0.84827   0.19188   0.31129   0.00000  Uiso   1.00
H122   H     0.79855   0.76869   0.87351   0.00000  Uiso   1.00
H123   H     0.81805   0.53599   0.99214   0.00000  Uiso   1.00
H124   H     0.86564   0.68201   0.96606   0.00000  Uiso   1.00
H125   H     0.80350   0.58170   0.10567   0.00000  Uiso   1.00
H126   H     0.77992   0.38102   0.89806   0.00000  Uiso   1.00
H127   H     0.92643   0.78595   0.94768   0.00000  Uiso   1.00
H128   H     0.79537   0.57441   0.24203   0.00000  Uiso   1.00
H129   H     0.74566   0.15123   0.80425   0.00000  Uiso   1.00
O130   O     0.98530   0.68270   0.96663   0.00000  Uiso   1.00
O131   O     0.81336   0.40515   0.35281   0.00000  Uiso   1.00
O132   O     0.74814   0.84995   0.77845   0.00000  Uiso   1.00
N133   N     0.96034   0.47339   0.00420   0.00000  Uiso   1.00
N134   N     0.83782   0.27563   0.27941   0.00000  Uiso   1.00
N135   N     0.79133   0.87998   0.87013   0.00000  Uiso   1.00
N136   N     0.93188   0.67923   0.96693   0.00000  Uiso   1.00
N137   N     0.80936   0.48147   0.24214   0.00000  Uiso   1.00
N138   N     0.76287   0.08582   0.83286   0.00000  Uiso   1.00
C139   C     0.36567   0.69155   0.05450   0.00000  Uiso   1.00
C140   C     0.38481   0.81952   0.03152   0.00000  Uiso   1.00
C141   C     0.41675   0.81246   0.03297   0.00000  Uiso   1.00
C142   C     0.42989   0.94170   0.00974   0.00000  Uiso   1.00
C143   C     0.46236   0.12043   0.97771   0.00000  Uiso   1.00
C144   C     0.35104   0.76504   0.10737   0.00000  Uiso   1.00
C145   C     0.35459   0.71215   0.17259   0.00000  Uiso   1.00
C146   C     0.33930   0.79551   0.21322   0.00000  Uiso   1.00
C147   C     0.31934   0.88958   0.29894   0.00000  Uiso   1.00
C148   C     0.33824   0.65600   0.99457   0.00000  Uiso   1.00
C149   C     0.33101   0.51143   0.96496   0.00000  Uiso   1.00
C150   C     0.30493   0.50298   0.91062   0.00000  Uiso   1.00
C151   C     0.26509   0.42776   0.82120   0.00000  Uiso   1.00
C152   C     0.33220   0.93362   0.01067   0.00000  Uiso   1.00
C153   C     0.36663   0.95100   0.00772   0.00000  Uiso   1.00
C154   C     0.37972   0.08028   0.98448   0.00000  Uiso   1.00
C155   C     0.41167   0.07342   0.98589   0.00000  Uiso   1.00
C156   C     0.33286   0.89651   0.08357   0.00000  Uiso   1.00
C157   C     0.31756   0.97997   0.12411   0.00000  Uiso   1.00
C158   C     0.32109   0.92723   0.18937   0.00000  Uiso   1.00
C159   C     0.32006   0.78748   0.97076   0.00000  Uiso   1.00
C160   C     0.29398   0.77925   0.91647   0.00000  Uiso   1.00
C161   C     0.28672   0.63470   0.88677   0.00000  Uiso   1.00
H162   H     0.37983   0.58919   0.07303   0.00000  Uiso   1.00
H163   H     0.43081   0.71070   0.05140   0.00000  Uiso   1.00
H164   H     0.36866   0.61039   0.19100   0.00000  Uiso   1.00
H165   H     0.34509   0.40971   0.98339   0.00000  Uiso   1.00
H166   H     0.47932   0.90341   0.01694   0.00000  Uiso   1.00
H167   H     0.34827   0.69188   0.31129   0.00000  Uiso   1.00
H168   H     0.29855   0.26869   0.87351   0.00000  Uiso   1.00
H169   H     0.31805   0.03599   0.99214   0.00000  Uiso   1.00
H170   H     0.36564   0.18201   0.96606   0.00000  Uiso   1.00
H171   H     0.30350   0.08170   0.10567   0.00000  Uiso   1.00
H172   H     0.27992   0.88102   0.89806   0.00000  Uiso   1.00
H173   H     0.42643   0.28595   0.94768   0.00000  Uiso   1.00
H174   H     0.29537   0.07441   0.24203   0.00000  Uiso   1.00
H175   H     0.24566   0.65123   0.80425   0.00000  Uiso   1.00
O176   O     0.48530   0.18270   0.96663   0.00000  Uiso   1.00
O177   O     0.31336   0.90515   0.35281   0.00000  Uiso   1.00
O178   O     0.24814   0.34995   0.77845   0.00000  Uiso   1.00
N179   N     0.46034   0.97339   0.00420   0.00000  Uiso   1.00
N180   N     0.33782   0.77563   0.27941   0.00000  Uiso   1.00
N181   N     0.29133   0.37998   0.87013   0.00000  Uiso   1.00
N182   N     0.43188   0.17923   0.96693   0.00000  Uiso   1.00
N183   N     0.30936   0.98147   0.24214   0.00000  Uiso   1.00
N184   N     0.26287   0.58582   0.83286   0.00000  Uiso   1.00
C185   C     0.86567   0.80845   0.55450   0.00000  Uiso   1.00
C186   C     0.88481   0.68048   0.53152   0.00000  Uiso   1.00
C187   C     0.91675   0.68754   0.53297   0.00000  Uiso   1.00
C188   C     0.92989   0.55830   0.50974   0.00000  Uiso   1.00
C189   C     0.96236   0.37957   0.47771   0.00000  Uiso   1.00
C190   C     0.85104   0.73496   0.60737   0.00000  Uiso   1.00
C191   C     0.85459   0.78785   0.67259   0.00000  Uiso   1.00
C192   C     0.83930   0.70449   0.71322   0.00000  Uiso   1.00
C193   C     0.81934   0.61042   0.79894   0.00000  Uiso   1.00
C194   C     0.83824   0.84400   0.49457   0.00000  Uiso   1.00
C195   C     0.83101   0.98857   0.46496   0.00000  Uiso   1.00
C196   C     0.80493   0.99702   0.41062   0.00000  Uiso   1.00
C197   C     0.76509   0.07224   0.32120   0.00000  Uiso   1.00
C198   C     0.83220   0.56638   0.51067   0.00000  Uiso   1.00
C199   C     0.86663   0.54900   0.50772   0.00000  Uiso   1.00
C200   C     0.87972   0.41972   0.48448   0.00000  Uiso   1.00
C201   C     0.91167   0.42658   0.48589   0.00000  Uiso   1.00
C202   C     0.83286   0.60349   0.58357   0.00000  Uiso   1.00
C203   C     0.81756   0.52003   0.62411   0.00000  Uiso   1.00
C204   C     0.82109   0.57277   0.68937   0.00000  Uiso   1.00
C205   C     0.82006   0.71252   0.47076   0.00000  Uiso   1.00
C206   C     0.79398   0.72075   0.41647   0.00000  Uiso   1.00
C207   C     0.78672   0.86530   0.38677   0.00000  Uiso   1.00
H208   H     0.87983   0.91081   0.57303   0.00000  Uiso   1.00
H209   H     0.93081   0.78930   0.55140   0.00000  Uiso   1.00
H210   H     0.86866   0.88961   0.69100   0.00000  Uiso   1.00
H211   H     0.84509   0.09029   0.48339   0.00000  Uiso   1.00
H212   H     0.97932   0.59659   0.51694   0.00000  Uiso   1.00
H213   H     0.84827   0.80812   0.81129   0.00000  Uiso   1.00
H214   H     0.79855   0.23131   0.37351   0.00000  Uiso   1.00
H215   H     0.81805   0.46401   0.49214   0.00000  Uiso   1.00
H216   H     0.86564   0.31799   0.46606   0.00000  Uiso   1.00
H217   H     0.80350   0.41830   0.60567   0.00000  Uiso   1.00
H218   H     0.77992   0.61898   0.39806   0.00000  Uiso   1.00
H219   H     0.92643   0.21405   0.44768   0.00000  Uiso   1.00
H220   H     0.79537   0.42559   0.74203   0.00000  Uiso   1.00
H221   H     0.74566   0.84877   0.30425   0.00000  Uiso   1.00
O222   O     0.98530   0.31730   0.46663   0.00000  Uiso   1.00
O223   O     0.81336   0.59485   0.85281   0.00000  Uiso   1.00
O224   O     0.74814   0.15005   0.27845   0.00000  Uiso   1.00
N225   N     0.96034   0.52661   0.50420   0.00000  Uiso   1.00
N226   N     0.83782   0.72437   0.77941   0.00000  Uiso   1.00
N227   N     0.79133   0.12002   0.37013   0.00000  Uiso   1.00
N228   N     0.93188   0.32077   0.46693   0.00000  Uiso   1.00
N229   N     0.80936   0.51853   0.74214   0.00000  Uiso   1.00
N230   N     0.76287   0.91418   0.33286   0.00000  Uiso   1.00
C231   C     0.36567   0.30845   0.55450   0.00000  Uiso   1.00
C232   C     0.38481   0.18048   0.53152   0.00000  Uiso   1.00
C233   C     0.41675   0.18754   0.53297   0.00000  Uiso   1.00
C234   C     0.42989   0.05830   0.50974   0.00000  Uiso   1.00
C235   C     0.46236   0.87957   0.47771   0.00000  Uiso   1.00
C236   C     0.35104   0.23496   0.60737   0.00000  Uiso   1.00
C237   C     0.35459   0.28785   0.67259   0.00000  Uiso   1.00
C238   C     0.33930   0.20449   0.71322   0.00000  Uiso   1.00
C239   C     0.31934   0.11042   0.79894   0.00000  Uiso   1.00
C240   C     0.33824   0.34400   0.49457   0.00000  Uiso   1.00
C241   C     0.33101   0.48857   0.46496   0.00000  Uiso   1.00
C242   C     0.30493   0.49702   0.41062   0.00000  Uiso   1.00
C243   C     0.26509   0.57224   0.32120   0.00000  Uiso   1.00
C244   C     0.33220   0.06638   0.51067   0.00000  Uiso   1.00
C245   C     0.36663   0.04900   0.50772   0.00000  Uiso   1.00
C246   C     0.37972   0.91972   0.48448   0.00000  Uiso   1.00
C247   C     0.41167   0.92658   0.48589   0.00000  Uiso   1.00
C248   C     0.33286   0.10349   0.58357   0.00000  Uiso   1.00
C249   C     0.31756   0.02003   0.62411   0.00000  Uiso   1.00
C250   C     0.32109   0.07277   0.68937   0.00000  Uiso   1.00
C251   C     0.32006   0.21252   0.47076   0.00000  Uiso   1.00
C252   C     0.29398   0.22075   0.41647   0.00000  Uiso   1.00
C253   C     0.28672   0.36530   0.38677   0.00000  Uiso   1.00
H254   H     0.37983   0.41081   0.57303   0.00000  Uiso   1.00
H255   H     0.43081   0.28930   0.55140   0.00000  Uiso   1.00
H256   H     0.36866   0.38961   0.69100   0.00000  Uiso   1.00
H257   H     0.34509   0.59029   0.48339   0.00000  Uiso   1.00
H258   H     0.47932   0.09659   0.51694   0.00000  Uiso   1.00
H259   H     0.34827   0.30812   0.81129   0.00000  Uiso   1.00
H260   H     0.29855   0.73131   0.37351   0.00000  Uiso   1.00
H261   H     0.31805   0.96401   0.49214   0.00000  Uiso   1.00
H262   H     0.36564   0.81799   0.46606   0.00000  Uiso   1.00
H263   H     0.30350   0.91830   0.60567   0.00000  Uiso   1.00
H264   H     0.27992   0.11898   0.39806   0.00000  Uiso   1.00
H265   H     0.42643   0.71405   0.44768   0.00000  Uiso   1.00
H266   H     0.29537   0.92559   0.74203   0.00000  Uiso   1.00
H267   H     0.24566   0.34877   0.30425   0.00000  Uiso   1.00
O268   O     0.48530   0.81730   0.46663   0.00000  Uiso   1.00
O269   O     0.31336   0.09485   0.85281   0.00000  Uiso   1.00
O270   O     0.24814   0.65005   0.27845   0.00000  Uiso   1.00
N271   N     0.46034   0.02661   0.50420   0.00000  Uiso   1.00
N272   N     0.33782   0.22437   0.77941   0.00000  Uiso   1.00
N273   N     0.29133   0.62002   0.37013   0.00000  Uiso   1.00
N274   N     0.43188   0.82077   0.46693   0.00000  Uiso   1.00
N275   N     0.30936   0.01853   0.74214   0.00000  Uiso   1.00
N276   N     0.26287   0.41418   0.33286   0.00000  Uiso   1.00
C277   C     0.13433   0.80845   0.94550   0.00000  Uiso   1.00
C278   C     0.11519   0.68048   0.96848   0.00000  Uiso   1.00
C279   C     0.08325   0.68754   0.96703   0.00000  Uiso   1.00
C280   C     0.07011   0.55830   0.99026   0.00000  Uiso   1.00
C281   C     0.03764   0.37957   0.02229   0.00000  Uiso   1.00
C282   C     0.14896   0.73496   0.89263   0.00000  Uiso   1.00
C283   C     0.14541   0.78785   0.82741   0.00000  Uiso   1.00
C284   C     0.16070   0.70449   0.78678   0.00000  Uiso   1.00
C285   C     0.18066   0.61042   0.70106   0.00000  Uiso   1.00
C286   C     0.16176   0.84400   0.00543   0.00000  Uiso   1.00
C287   C     0.16899   0.98857   0.03504   0.00000  Uiso   1.00
C288   C     0.19507   0.99702   0.08938   0.00000  Uiso   1.00
C289   C     0.23491   0.07224   0.17880   0.00000  Uiso   1.00
C290   C     0.16780   0.56638   0.98933   0.00000  Uiso   1.00
C291   C     0.13337   0.54900   0.99228   0.00000  Uiso   1.00
C292   C     0.12028   0.41972   0.01552   0.00000  Uiso   1.00
C293   C     0.08833   0.42658   0.01411   0.00000  Uiso   1.00
C294   C     0.16714   0.60349   0.91643   0.00000  Uiso   1.00
C295   C     0.18244   0.52003   0.87589   0.00000  Uiso   1.00
C296   C     0.17891   0.57277   0.81063   0.00000  Uiso   1.00
C297   C     0.17994   0.71252   0.02924   0.00000  Uiso   1.00
C298   C     0.20602   0.72075   0.08353   0.00000  Uiso   1.00
C299   C     0.21328   0.86530   0.11323   0.00000  Uiso   1.00
H300   H     0.12017   0.91081   0.92697   0.00000  Uiso   1.00
H301   H     0.06919   0.78930   0.94860   0.00000  Uiso   1.00
H302   H     0.13134   0.88961   0.80900   0.00000  Uiso   1.00
H303   H     0.15491   0.09029   0.01661   0.00000  Uiso   1.00
H304   H     0.02068   0.59659   0.98306   0.00000  Uiso   1.00
H305   H     0.15173   0.80812   0.68871   0.00000  Uiso   1.00
H306   H     0.20145   0.23131   0.12649   0.00000  Uiso   1.00
H307   H     0.18195   0.46401   0.00786   0.00000  Uiso   1.00
H308   H     0.13436   0.31799   0.03394   0.00000  Uiso   1.00
H309   H     0.19650   0.41830   0.89433   0.00000  Uiso   1.00
H310   H     0.22008   0.61898   0.10194   0.00000  Uiso   1.00
H311   H     0.07357   0.21405   0.05232   0.00000  Uiso   1.00
H312   H     0.20463   0.42559   0.75797   0.00000  Uiso   1.00
H313   H     0.25434   0.84877   0.19575   0.00000  Uiso   1.00
O314   O     0.01470   0.31730   0.03337   0.00000  Uiso   1.00
O315   O     0.18664   0.59485   0.64719   0.00000  Uiso   1.00
O316   O     0.25186   0.15005   0.22155   0.00000  Uiso   1.00
N317   N     0.03966   0.52661   0.99580   0.00000  Uiso   1.00
N318   N     0.16218   0.72437   0.72059   0.00000  Uiso   1.00
N319   N     0.20867   0.12002   0.12987   0.00000  Uiso   1.00
N320   N     0.06812   0.32077   0.03307   0.00000  Uiso   1.00
N321   N     0.19064   0.51853   0.75786   0.00000  Uiso   1.00
N322   N     0.23713   0.91418   0.16714   0.00000  Uiso   1.00
C323   C     0.63433   0.30845   0.94550   0.00000  Uiso   1.00
C324   C     0.61519   0.18048   0.96848   0.00000  Uiso   1.00
C325   C     0.58325   0.18754   0.96703   0.00000  Uiso   1.00
C326   C     0.57011   0.05830   0.99026   0.00000  Uiso   1.00
C327   C     0.53764   0.87957   0.02229   0.00000  Uiso   1.00
C328   C     0.64896   0.23496   0.89263   0.00000  Uiso   1.00
C329   C     0.64541   0.28785   0.82741   0.00000  Uiso   1.00
C330   C     0.66070   0.20449   0.78678   0.00000  Uiso   1.00
C331   C     0.68066   0.11042   0.70106   0.00000  Uiso   1.00
C332   C     0.66176   0.34400   0.00543   0.00000  Uiso   1.00
C333   C     0.66899   0.48857   0.03504   0.00000  Uiso   1.00
C334   C     0.69507   0.49702   0.08938   0.00000  Uiso   1.00
C335   C     0.73491   0.57224   0.17880   0.00000  Uiso   1.00
C336   C     0.66780   0.06638   0.98933   0.00000  Uiso   1.00
C337   C     0.63337   0.04900   0.99228   0.00000  Uiso   1.00
C338   C     0.62028   0.91972   0.01552   0.00000  Uiso   1.00
C339   C     0.58833   0.92658   0.01411   0.00000  Uiso   1.00
C340   C     0.66714   0.10349   0.91643   0.00000  Uiso   1.00
C341   C     0.68244   0.02003   0.87589   0.00000  Uiso   1.00
C342   C     0.67891   0.07277   0.81063   0.00000  Uiso   1.00
C343   C     0.67994   0.21252   0.02924   0.00000  Uiso   1.00
C344   C     0.70602   0.22075   0.08353   0.00000  Uiso   1.00
C345   C     0.71328   0.36530   0.11323   0.00000  Uiso   1.00
H346   H     0.62017   0.41081   0.92697   0.00000  Uiso   1.00
H347   H     0.56919   0.28930   0.94860   0.00000  Uiso   1.00
H348   H     0.63134   0.38961   0.80900   0.00000  Uiso   1.00
H349   H     0.65491   0.59029   0.01661   0.00000  Uiso   1.00
H350   H     0.52068   0.09659   0.98306   0.00000  Uiso   1.00
H351   H     0.65173   0.30812   0.68871   0.00000  Uiso   1.00
H352   H     0.70145   0.73131   0.12649   0.00000  Uiso   1.00
H353   H     0.68195   0.96401   0.00786   0.00000  Uiso   1.00
H354   H     0.63436   0.81799   0.03394   0.00000  Uiso   1.00
H355   H     0.69650   0.91830   0.89433   0.00000  Uiso   1.00
H356   H     0.72008   0.11898   0.10194   0.00000  Uiso   1.00
H357   H     0.57357   0.71405   0.05232   0.00000  Uiso   1.00
H358   H     0.70463   0.92559   0.75797   0.00000  Uiso   1.00
H359   H     0.75434   0.34877   0.19575   0.00000  Uiso   1.00
O360   O     0.51470   0.81730   0.03337   0.00000  Uiso   1.00
O361   O     0.68664   0.09485   0.64719   0.00000  Uiso   1.00
O362   O     0.75186   0.65005   0.22155   0.00000  Uiso   1.00
N363   N     0.53966   0.02661   0.99580   0.00000  Uiso   1.00
N364   N     0.66218   0.22437   0.72059   0.00000  Uiso   1.00
N365   N     0.70867   0.62002   0.12987   0.00000  Uiso   1.00
N366   N     0.56812   0.82077   0.03307   0.00000  Uiso   1.00
N367   N     0.69064   0.01853   0.75786   0.00000  Uiso   1.00
N368   N     0.73713   0.41418   0.16714   0.00000  Uiso   1.00
