data_job_05545
_audit_creation_date              2018-12-19
_audit_creation_method            'Materials Studio'
_symmetry_space_group_name_H-M    'P1'
_symmetry_Int_Tables_number       1
_symmetry_cell_setting            triclinic
loop_
_symmetry_equiv_pos_as_xyz
  x,y,z
_cell_length_a                    19.8738
_cell_length_b                    19.8738
_cell_length_c                    13.7494
_cell_angle_alpha                 90.0000
_cell_angle_beta                  90.0000
_cell_angle_gamma                 90.0000
loop_
_atom_site_label
_atom_site_type_symbol
_atom_site_fract_x
_atom_site_fract_y
_atom_site_fract_z
_atom_site_U_iso_or_equiv
_atom_site_adp_type
_atom_site_occupancy
C1     C     0.82565   0.36694   0.30068   0.00000  Uiso   1.00
C2     C     0.86676   0.42994   0.27886   0.00000  Uiso   1.00
C3     C     0.84104   0.49135   0.24845   0.00000  Uiso   1.00
C4     C     0.88696   0.54281   0.23232   0.00000  Uiso   1.00
C5     C     0.94029   0.64209   0.19628   0.00000  Uiso   1.00
C6     C     0.85431   0.31167   0.23586   0.00000  Uiso   1.00
C7     C     0.81812   0.27364   0.16930   0.00000  Uiso   1.00
C8     C     0.85356   0.22553   0.11698   0.00000  Uiso   1.00
C9     C     0.88755   0.14117   0.01424   0.00000  Uiso   1.00
C10    C     0.84310   0.34698   0.40476   0.00000  Uiso   1.00
C11    C     0.79747   0.33862   0.48021   0.00000  Uiso   1.00
C12    C     0.82347   0.32022   0.57009   0.00000  Uiso   1.00
C13    C     0.84004   0.29069   0.72959   0.00000  Uiso   1.00
C14    C     0.95294   0.34911   0.32613   0.00000  Uiso   1.00
C15    C     0.93590   0.42025   0.29268   0.00000  Uiso   1.00
C16    C     0.98187   0.47163   0.27660   0.00000  Uiso   1.00
C17    C     0.95622   0.53311   0.24617   0.00000  Uiso   1.00
C18    C     0.92345   0.30198   0.24968   0.00000  Uiso   1.00
C19    C     0.95895   0.25391   0.19745   0.00000  Uiso   1.00
C20    C     0.92282   0.21582   0.13083   0.00000  Uiso   1.00
C21    C     0.91224   0.33730   0.41858   0.00000  Uiso   1.00
C22    C     0.93831   0.31890   0.50836   0.00000  Uiso   1.00
C23    C     0.89273   0.31052   0.58394   0.00000  Uiso   1.00
H24    H     0.77182   0.37447   0.28992   0.00000  Uiso   1.00
H25    H     0.78753   0.49883   0.23775   0.00000  Uiso   1.00
H26    H     0.76461   0.28114   0.15863   0.00000  Uiso   1.00
H27    H     0.74397   0.34612   0.46949   0.00000  Uiso   1.00
H28    H     0.83544   0.63241   0.18597   0.00000  Uiso   1.00
H29    H     0.78712   0.17340   0.01916   0.00000  Uiso   1.00
H30    H     0.74359   0.31042   0.67467   0.00000  Uiso   1.00
H31    H     0.00677   0.34156   0.33689   0.00000  Uiso   1.00
H32    H     0.03537   0.46411   0.28730   0.00000  Uiso   1.00
H33    H     0.01245   0.24643   0.20817   0.00000  Uiso   1.00
H34    H     0.99181   0.31141   0.51903   0.00000  Uiso   1.00
H35    H     0.03660   0.60424   0.22618   0.00000  Uiso   1.00
H36    H     0.98827   0.14522   0.05937   0.00000  Uiso   1.00
H37    H     0.94475   0.28224   0.71488   0.00000  Uiso   1.00
O38    O     0.95060   0.69953   0.17258   0.00000  Uiso   1.00
O39    O     0.88719   0.09732   0.95374   0.00000  Uiso   1.00
O40    O     0.83009   0.27708   0.81375   0.00000  Uiso   1.00
N41    N     0.87886   0.60897   0.20226   0.00000  Uiso   1.00
N42    N     0.83368   0.17983   0.04629   0.00000  Uiso   1.00
N43    N     0.79298   0.30791   0.65913   0.00000  Uiso   1.00
N44    N     0.98710   0.59381   0.22390   0.00000  Uiso   1.00
N45    N     0.94192   0.16467   0.06793   0.00000  Uiso   1.00
N46    N     0.90122   0.29275   0.68077   0.00000  Uiso   1.00
C47    C     0.17435   0.63306   0.80068   0.00000  Uiso   1.00
C48    C     0.13324   0.57006   0.77886   0.00000  Uiso   1.00
C49    C     0.15896   0.50865   0.74845   0.00000  Uiso   1.00
C50    C     0.11304   0.45719   0.73232   0.00000  Uiso   1.00
C51    C     0.05971   0.35791   0.69628   0.00000  Uiso   1.00
C52    C     0.14569   0.68833   0.73586   0.00000  Uiso   1.00
C53    C     0.18188   0.72636   0.66930   0.00000  Uiso   1.00
C54    C     0.14644   0.77447   0.61698   0.00000  Uiso   1.00
C55    C     0.11245   0.85883   0.51424   0.00000  Uiso   1.00
C56    C     0.15690   0.65302   0.90476   0.00000  Uiso   1.00
C57    C     0.20253   0.66138   0.98021   0.00000  Uiso   1.00
C58    C     0.17653   0.67978   0.07009   0.00000  Uiso   1.00
C59    C     0.15996   0.70931   0.22959   0.00000  Uiso   1.00
C60    C     0.04706   0.65089   0.82613   0.00000  Uiso   1.00
C61    C     0.06410   0.57975   0.79268   0.00000  Uiso   1.00
C62    C     0.01813   0.52837   0.77660   0.00000  Uiso   1.00
C63    C     0.04378   0.46689   0.74617   0.00000  Uiso   1.00
C64    C     0.07655   0.69802   0.74968   0.00000  Uiso   1.00
C65    C     0.04105   0.74609   0.69745   0.00000  Uiso   1.00
C66    C     0.07718   0.78418   0.63083   0.00000  Uiso   1.00
C67    C     0.08776   0.66270   0.91858   0.00000  Uiso   1.00
C68    C     0.06169   0.68110   0.00836   0.00000  Uiso   1.00
C69    C     0.10727   0.68948   0.08394   0.00000  Uiso   1.00
H70    H     0.22818   0.62553   0.78992   0.00000  Uiso   1.00
H71    H     0.21247   0.50117   0.73775   0.00000  Uiso   1.00
H72    H     0.23539   0.71886   0.65863   0.00000  Uiso   1.00
H73    H     0.25603   0.65388   0.96949   0.00000  Uiso   1.00
H74    H     0.16456   0.36759   0.68597   0.00000  Uiso   1.00
H75    H     0.21288   0.82660   0.51916   0.00000  Uiso   1.00
H76    H     0.25641   0.68958   0.17467   0.00000  Uiso   1.00
H77    H     0.99323   0.65844   0.83689   0.00000  Uiso   1.00
H78    H     0.96463   0.53589   0.78730   0.00000  Uiso   1.00
H79    H     0.98755   0.75357   0.70817   0.00000  Uiso   1.00
H80    H     0.00819   0.68859   0.01903   0.00000  Uiso   1.00
H81    H     0.96340   0.39576   0.72618   0.00000  Uiso   1.00
H82    H     0.01173   0.85478   0.55937   0.00000  Uiso   1.00
H83    H     0.05525   0.71776   0.21488   0.00000  Uiso   1.00
O84    O     0.04940   0.30047   0.67258   0.00000  Uiso   1.00
O85    O     0.11281   0.90268   0.45374   0.00000  Uiso   1.00
O86    O     0.16991   0.72292   0.31375   0.00000  Uiso   1.00
N87    N     0.12114   0.39103   0.70226   0.00000  Uiso   1.00
N88    N     0.16632   0.82017   0.54629   0.00000  Uiso   1.00
N89    N     0.20702   0.69209   0.15913   0.00000  Uiso   1.00
N90    N     0.01290   0.40619   0.72390   0.00000  Uiso   1.00
N91    N     0.05808   0.83533   0.56793   0.00000  Uiso   1.00
N92    N     0.09878   0.70725   0.18077   0.00000  Uiso   1.00
C93    C     0.13306   0.32565   0.05068   0.00000  Uiso   1.00
C94    C     0.07006   0.36676   0.02886   0.00000  Uiso   1.00
C95    C     0.00865   0.34104   0.99845   0.00000  Uiso   1.00
C96    C     0.95719   0.38696   0.98232   0.00000  Uiso   1.00
C97    C     0.85791   0.44029   0.94628   0.00000  Uiso   1.00
C98    C     0.18833   0.35431   0.98586   0.00000  Uiso   1.00
C99    C     0.22636   0.31812   0.91930   0.00000  Uiso   1.00
C100   C     0.27447   0.35356   0.86698   0.00000  Uiso   1.00
C101   C     0.35883   0.38755   0.76424   0.00000  Uiso   1.00
C102   C     0.15302   0.34310   0.15476   0.00000  Uiso   1.00
C103   C     0.16138   0.29747   0.23021   0.00000  Uiso   1.00
C104   C     0.17978   0.32347   0.32009   0.00000  Uiso   1.00
C105   C     0.20931   0.34004   0.47959   0.00000  Uiso   1.00
C106   C     0.15089   0.45294   0.07613   0.00000  Uiso   1.00
C107   C     0.07975   0.43590   0.04268   0.00000  Uiso   1.00
C108   C     0.02837   0.48187   0.02660   0.00000  Uiso   1.00
C109   C     0.96689   0.45622   0.99617   0.00000  Uiso   1.00
C110   C     0.19802   0.42345   0.99968   0.00000  Uiso   1.00
C111   C     0.24609   0.45895   0.94745   0.00000  Uiso   1.00
C112   C     0.28418   0.42282   0.88083   0.00000  Uiso   1.00
C113   C     0.16270   0.41224   0.16858   0.00000  Uiso   1.00
C114   C     0.18110   0.43831   0.25836   0.00000  Uiso   1.00
C115   C     0.18948   0.39273   0.33394   0.00000  Uiso   1.00
H116   H     0.12553   0.27182   0.03992   0.00000  Uiso   1.00
H117   H     0.00117   0.28753   0.98775   0.00000  Uiso   1.00
H118   H     0.21886   0.26461   0.90863   0.00000  Uiso   1.00
H119   H     0.15388   0.24397   0.21949   0.00000  Uiso   1.00
H120   H     0.86759   0.33544   0.93597   0.00000  Uiso   1.00
H121   H     0.32660   0.28712   0.76916   0.00000  Uiso   1.00
H122   H     0.18958   0.24359   0.42467   0.00000  Uiso   1.00
H123   H     0.15844   0.50677   0.08689   0.00000  Uiso   1.00
H124   H     0.03589   0.53537   0.03730   0.00000  Uiso   1.00
H125   H     0.25357   0.51245   0.95817   0.00000  Uiso   1.00
H126   H     0.18859   0.49181   0.26903   0.00000  Uiso   1.00
H127   H     0.89576   0.53660   0.97618   0.00000  Uiso   1.00
H128   H     0.35478   0.48827   0.80937   0.00000  Uiso   1.00
H129   H     0.21776   0.44475   0.46488   0.00000  Uiso   1.00
O130   O     0.80047   0.45060   0.92258   0.00000  Uiso   1.00
O131   O     0.40268   0.38719   0.70374   0.00000  Uiso   1.00
O132   O     0.22292   0.33009   0.56375   0.00000  Uiso   1.00
N133   N     0.89103   0.37886   0.95226   0.00000  Uiso   1.00
N134   N     0.32017   0.33368   0.79629   0.00000  Uiso   1.00
N135   N     0.19209   0.29298   0.40913   0.00000  Uiso   1.00
N136   N     0.90619   0.48710   0.97390   0.00000  Uiso   1.00
N137   N     0.33533   0.44192   0.81793   0.00000  Uiso   1.00
N138   N     0.20725   0.40122   0.43077   0.00000  Uiso   1.00
C139   C     0.86694   0.67435   0.55068   0.00000  Uiso   1.00
C140   C     0.92994   0.63324   0.52886   0.00000  Uiso   1.00
C141   C     0.99135   0.65896   0.49845   0.00000  Uiso   1.00
C142   C     0.04281   0.61304   0.48232   0.00000  Uiso   1.00
C143   C     0.14209   0.55971   0.44628   0.00000  Uiso   1.00
C144   C     0.81167   0.64569   0.48586   0.00000  Uiso   1.00
C145   C     0.77364   0.68188   0.41930   0.00000  Uiso   1.00
C146   C     0.72553   0.64644   0.36698   0.00000  Uiso   1.00
C147   C     0.64117   0.61245   0.26424   0.00000  Uiso   1.00
C148   C     0.84698   0.65690   0.65476   0.00000  Uiso   1.00
C149   C     0.83862   0.70253   0.73021   0.00000  Uiso   1.00
C150   C     0.82022   0.67653   0.82009   0.00000  Uiso   1.00
C151   C     0.79069   0.65996   0.97959   0.00000  Uiso   1.00
C152   C     0.84911   0.54706   0.57613   0.00000  Uiso   1.00
C153   C     0.92025   0.56410   0.54268   0.00000  Uiso   1.00
C154   C     0.97163   0.51813   0.52660   0.00000  Uiso   1.00
C155   C     0.03311   0.54378   0.49617   0.00000  Uiso   1.00
C156   C     0.80198   0.57655   0.49968   0.00000  Uiso   1.00
C157   C     0.75391   0.54105   0.44745   0.00000  Uiso   1.00
C158   C     0.71582   0.57718   0.38083   0.00000  Uiso   1.00
C159   C     0.83730   0.58776   0.66858   0.00000  Uiso   1.00
C160   C     0.81890   0.56169   0.75836   0.00000  Uiso   1.00
C161   C     0.81052   0.60727   0.83394   0.00000  Uiso   1.00
H162   H     0.87447   0.72818   0.53992   0.00000  Uiso   1.00
H163   H     0.99883   0.71247   0.48775   0.00000  Uiso   1.00
H164   H     0.78114   0.73539   0.40863   0.00000  Uiso   1.00
H165   H     0.84612   0.75603   0.71949   0.00000  Uiso   1.00
H166   H     0.13241   0.66456   0.43597   0.00000  Uiso   1.00
H167   H     0.67340   0.71288   0.26916   0.00000  Uiso   1.00
H168   H     0.81042   0.75641   0.92467   0.00000  Uiso   1.00
H169   H     0.84156   0.49323   0.58689   0.00000  Uiso   1.00
H170   H     0.96411   0.46463   0.53730   0.00000  Uiso   1.00
H171   H     0.74643   0.48755   0.45817   0.00000  Uiso   1.00
H172   H     0.81141   0.50819   0.76903   0.00000  Uiso   1.00
H173   H     0.10424   0.46340   0.47618   0.00000  Uiso   1.00
H174   H     0.64522   0.51173   0.30937   0.00000  Uiso   1.00
H175   H     0.78224   0.55525   0.96488   0.00000  Uiso   1.00
O176   O     0.19953   0.54940   0.42258   0.00000  Uiso   1.00
O177   O     0.59732   0.61281   0.20374   0.00000  Uiso   1.00
O178   O     0.77708   0.66991   0.06375   0.00000  Uiso   1.00
N179   N     0.10897   0.62114   0.45226   0.00000  Uiso   1.00
N180   N     0.67983   0.66632   0.29629   0.00000  Uiso   1.00
N181   N     0.80791   0.70702   0.90913   0.00000  Uiso   1.00
N182   N     0.09381   0.51290   0.47390   0.00000  Uiso   1.00
N183   N     0.66467   0.55808   0.31793   0.00000  Uiso   1.00
N184   N     0.79275   0.59878   0.93077   0.00000  Uiso   1.00
C185   C     0.67435   0.86694   0.44932   0.00000  Uiso   1.00
C186   C     0.63324   0.92994   0.47114   0.00000  Uiso   1.00
C187   C     0.65896   0.99135   0.50155   0.00000  Uiso   1.00
C188   C     0.61304   0.04281   0.51768   0.00000  Uiso   1.00
C189   C     0.55971   0.14209   0.55372   0.00000  Uiso   1.00
C190   C     0.64569   0.81167   0.51414   0.00000  Uiso   1.00
C191   C     0.68188   0.77364   0.58070   0.00000  Uiso   1.00
C192   C     0.64644   0.72553   0.63302   0.00000  Uiso   1.00
C193   C     0.61245   0.64117   0.73576   0.00000  Uiso   1.00
C194   C     0.65690   0.84698   0.34524   0.00000  Uiso   1.00
C195   C     0.70253   0.83862   0.26979   0.00000  Uiso   1.00
C196   C     0.67653   0.82022   0.17991   0.00000  Uiso   1.00
C197   C     0.65996   0.79069   0.02041   0.00000  Uiso   1.00
C198   C     0.54706   0.84911   0.42387   0.00000  Uiso   1.00
C199   C     0.56410   0.92025   0.45732   0.00000  Uiso   1.00
C200   C     0.51813   0.97163   0.47340   0.00000  Uiso   1.00
C201   C     0.54378   0.03311   0.50383   0.00000  Uiso   1.00
C202   C     0.57655   0.80198   0.50032   0.00000  Uiso   1.00
C203   C     0.54105   0.75391   0.55255   0.00000  Uiso   1.00
C204   C     0.57718   0.71582   0.61917   0.00000  Uiso   1.00
C205   C     0.58776   0.83730   0.33142   0.00000  Uiso   1.00
C206   C     0.56169   0.81890   0.24164   0.00000  Uiso   1.00
C207   C     0.60727   0.81052   0.16606   0.00000  Uiso   1.00
H208   H     0.72818   0.87447   0.46008   0.00000  Uiso   1.00
H209   H     0.71247   0.99883   0.51225   0.00000  Uiso   1.00
H210   H     0.73539   0.78114   0.59137   0.00000  Uiso   1.00
H211   H     0.75603   0.84612   0.28051   0.00000  Uiso   1.00
H212   H     0.66456   0.13241   0.56403   0.00000  Uiso   1.00
H213   H     0.71288   0.67340   0.73084   0.00000  Uiso   1.00
H214   H     0.75641   0.81042   0.07533   0.00000  Uiso   1.00
H215   H     0.49323   0.84156   0.41311   0.00000  Uiso   1.00
H216   H     0.46463   0.96411   0.46270   0.00000  Uiso   1.00
H217   H     0.48755   0.74643   0.54183   0.00000  Uiso   1.00
H218   H     0.50819   0.81141   0.23097   0.00000  Uiso   1.00
H219   H     0.46340   0.10424   0.52382   0.00000  Uiso   1.00
H220   H     0.51173   0.64522   0.69063   0.00000  Uiso   1.00
H221   H     0.55525   0.78224   0.03512   0.00000  Uiso   1.00
O222   O     0.54940   0.19953   0.57742   0.00000  Uiso   1.00
O223   O     0.61281   0.59732   0.79626   0.00000  Uiso   1.00
O224   O     0.66991   0.77708   0.93625   0.00000  Uiso   1.00
N225   N     0.62114   0.10897   0.54774   0.00000  Uiso   1.00
N226   N     0.66632   0.67983   0.70371   0.00000  Uiso   1.00
N227   N     0.70702   0.80791   0.09087   0.00000  Uiso   1.00
N228   N     0.51290   0.09381   0.52610   0.00000  Uiso   1.00
N229   N     0.55808   0.66467   0.68207   0.00000  Uiso   1.00
N230   N     0.59878   0.79275   0.06923   0.00000  Uiso   1.00
C231   C     0.32565   0.13306   0.94932   0.00000  Uiso   1.00
C232   C     0.36676   0.07006   0.97114   0.00000  Uiso   1.00
C233   C     0.34104   0.00865   0.00155   0.00000  Uiso   1.00
C234   C     0.38696   0.95719   0.01768   0.00000  Uiso   1.00
C235   C     0.44029   0.85791   0.05372   0.00000  Uiso   1.00
C236   C     0.35431   0.18833   0.01414   0.00000  Uiso   1.00
C237   C     0.31812   0.22636   0.08070   0.00000  Uiso   1.00
C238   C     0.35356   0.27447   0.13302   0.00000  Uiso   1.00
C239   C     0.38755   0.35883   0.23576   0.00000  Uiso   1.00
C240   C     0.34310   0.15302   0.84524   0.00000  Uiso   1.00
C241   C     0.29747   0.16138   0.76979   0.00000  Uiso   1.00
C242   C     0.32347   0.17978   0.67991   0.00000  Uiso   1.00
C243   C     0.34004   0.20931   0.52041   0.00000  Uiso   1.00
C244   C     0.45294   0.15089   0.92387   0.00000  Uiso   1.00
C245   C     0.43590   0.07975   0.95732   0.00000  Uiso   1.00
C246   C     0.48187   0.02837   0.97340   0.00000  Uiso   1.00
C247   C     0.45622   0.96689   0.00383   0.00000  Uiso   1.00
C248   C     0.42345   0.19802   0.00032   0.00000  Uiso   1.00
C249   C     0.45895   0.24609   0.05255   0.00000  Uiso   1.00
C250   C     0.42282   0.28418   0.11917   0.00000  Uiso   1.00
C251   C     0.41224   0.16270   0.83142   0.00000  Uiso   1.00
C252   C     0.43831   0.18110   0.74164   0.00000  Uiso   1.00
C253   C     0.39273   0.18948   0.66606   0.00000  Uiso   1.00
H254   H     0.27182   0.12553   0.96008   0.00000  Uiso   1.00
H255   H     0.28753   0.00117   0.01225   0.00000  Uiso   1.00
H256   H     0.26461   0.21886   0.09137   0.00000  Uiso   1.00
H257   H     0.24397   0.15388   0.78051   0.00000  Uiso   1.00
H258   H     0.33544   0.86759   0.06403   0.00000  Uiso   1.00
H259   H     0.28712   0.32660   0.23084   0.00000  Uiso   1.00
H260   H     0.24359   0.18958   0.57533   0.00000  Uiso   1.00
H261   H     0.50677   0.15844   0.91311   0.00000  Uiso   1.00
H262   H     0.53537   0.03589   0.96270   0.00000  Uiso   1.00
H263   H     0.51245   0.25357   0.04183   0.00000  Uiso   1.00
H264   H     0.49181   0.18859   0.73097   0.00000  Uiso   1.00
H265   H     0.53660   0.89576   0.02382   0.00000  Uiso   1.00
H266   H     0.48827   0.35478   0.19063   0.00000  Uiso   1.00
H267   H     0.44475   0.21776   0.53512   0.00000  Uiso   1.00
O268   O     0.45060   0.80047   0.07742   0.00000  Uiso   1.00
O269   O     0.38719   0.40268   0.29626   0.00000  Uiso   1.00
O270   O     0.33009   0.22292   0.43625   0.00000  Uiso   1.00
N271   N     0.37886   0.89103   0.04774   0.00000  Uiso   1.00
N272   N     0.33368   0.32017   0.20371   0.00000  Uiso   1.00
N273   N     0.29298   0.19209   0.59087   0.00000  Uiso   1.00
N274   N     0.48710   0.90619   0.02610   0.00000  Uiso   1.00
N275   N     0.44192   0.33533   0.18207   0.00000  Uiso   1.00
N276   N     0.40122   0.20725   0.56923   0.00000  Uiso   1.00
C277   C     0.36694   0.82565   0.69932   0.00000  Uiso   1.00
C278   C     0.42994   0.86676   0.72114   0.00000  Uiso   1.00
C279   C     0.49135   0.84104   0.75155   0.00000  Uiso   1.00
C280   C     0.54281   0.88696   0.76768   0.00000  Uiso   1.00
C281   C     0.64209   0.94029   0.80372   0.00000  Uiso   1.00
C282   C     0.31167   0.85431   0.76414   0.00000  Uiso   1.00
C283   C     0.27364   0.81812   0.83070   0.00000  Uiso   1.00
C284   C     0.22553   0.85356   0.88302   0.00000  Uiso   1.00
C285   C     0.14117   0.88755   0.98576   0.00000  Uiso   1.00
C286   C     0.34698   0.84310   0.59524   0.00000  Uiso   1.00
C287   C     0.33862   0.79747   0.51979   0.00000  Uiso   1.00
C288   C     0.32022   0.82347   0.42991   0.00000  Uiso   1.00
C289   C     0.29069   0.84004   0.27041   0.00000  Uiso   1.00
C290   C     0.34911   0.95294   0.67387   0.00000  Uiso   1.00
C291   C     0.42025   0.93590   0.70732   0.00000  Uiso   1.00
C292   C     0.47163   0.98187   0.72340   0.00000  Uiso   1.00
C293   C     0.53311   0.95622   0.75383   0.00000  Uiso   1.00
C294   C     0.30198   0.92345   0.75032   0.00000  Uiso   1.00
C295   C     0.25391   0.95895   0.80255   0.00000  Uiso   1.00
C296   C     0.21582   0.92282   0.86917   0.00000  Uiso   1.00
C297   C     0.33730   0.91224   0.58142   0.00000  Uiso   1.00
C298   C     0.31890   0.93831   0.49164   0.00000  Uiso   1.00
C299   C     0.31052   0.89273   0.41606   0.00000  Uiso   1.00
H300   H     0.37447   0.77182   0.71008   0.00000  Uiso   1.00
H301   H     0.49883   0.78753   0.76225   0.00000  Uiso   1.00
H302   H     0.28114   0.76461   0.84137   0.00000  Uiso   1.00
H303   H     0.34612   0.74397   0.53051   0.00000  Uiso   1.00
H304   H     0.63241   0.83544   0.81403   0.00000  Uiso   1.00
H305   H     0.17340   0.78712   0.98084   0.00000  Uiso   1.00
H306   H     0.31042   0.74359   0.32533   0.00000  Uiso   1.00
H307   H     0.34156   0.00677   0.66311   0.00000  Uiso   1.00
H308   H     0.46411   0.03537   0.71270   0.00000  Uiso   1.00
H309   H     0.24643   0.01245   0.79183   0.00000  Uiso   1.00
H310   H     0.31141   0.99181   0.48097   0.00000  Uiso   1.00
H311   H     0.60424   0.03660   0.77382   0.00000  Uiso   1.00
H312   H     0.14522   0.98827   0.94063   0.00000  Uiso   1.00
H313   H     0.28224   0.94475   0.28512   0.00000  Uiso   1.00
O314   O     0.69953   0.95060   0.82742   0.00000  Uiso   1.00
O315   O     0.09732   0.88719   0.04626   0.00000  Uiso   1.00
O316   O     0.27708   0.83009   0.18625   0.00000  Uiso   1.00
N317   N     0.60897   0.87886   0.79774   0.00000  Uiso   1.00
N318   N     0.17983   0.83368   0.95371   0.00000  Uiso   1.00
N319   N     0.30791   0.79298   0.34087   0.00000  Uiso   1.00
N320   N     0.59381   0.98710   0.77610   0.00000  Uiso   1.00
N321   N     0.16467   0.94192   0.93207   0.00000  Uiso   1.00
N322   N     0.29275   0.90122   0.31923   0.00000  Uiso   1.00
C323   C     0.63306   0.17435   0.19932   0.00000  Uiso   1.00
C324   C     0.57006   0.13324   0.22114   0.00000  Uiso   1.00
C325   C     0.50865   0.15896   0.25155   0.00000  Uiso   1.00
C326   C     0.45719   0.11304   0.26768   0.00000  Uiso   1.00
C327   C     0.35791   0.05971   0.30372   0.00000  Uiso   1.00
C328   C     0.68833   0.14569   0.26414   0.00000  Uiso   1.00
C329   C     0.72636   0.18188   0.33070   0.00000  Uiso   1.00
C330   C     0.77447   0.14644   0.38302   0.00000  Uiso   1.00
C331   C     0.85883   0.11245   0.48576   0.00000  Uiso   1.00
C332   C     0.65302   0.15690   0.09524   0.00000  Uiso   1.00
C333   C     0.66138   0.20253   0.01979   0.00000  Uiso   1.00
C334   C     0.67978   0.17653   0.92991   0.00000  Uiso   1.00
C335   C     0.70931   0.15996   0.77041   0.00000  Uiso   1.00
C336   C     0.65089   0.04706   0.17387   0.00000  Uiso   1.00
C337   C     0.57975   0.06410   0.20732   0.00000  Uiso   1.00
C338   C     0.52837   0.01813   0.22340   0.00000  Uiso   1.00
C339   C     0.46689   0.04378   0.25383   0.00000  Uiso   1.00
C340   C     0.69802   0.07655   0.25032   0.00000  Uiso   1.00
C341   C     0.74609   0.04105   0.30255   0.00000  Uiso   1.00
C342   C     0.78418   0.07718   0.36917   0.00000  Uiso   1.00
C343   C     0.66270   0.08776   0.08142   0.00000  Uiso   1.00
C344   C     0.68110   0.06169   0.99164   0.00000  Uiso   1.00
C345   C     0.68948   0.10727   0.91606   0.00000  Uiso   1.00
H346   H     0.62553   0.22818   0.21008   0.00000  Uiso   1.00
H347   H     0.50117   0.21247   0.26225   0.00000  Uiso   1.00
H348   H     0.71886   0.23539   0.34137   0.00000  Uiso   1.00
H349   H     0.65388   0.25603   0.03051   0.00000  Uiso   1.00
H350   H     0.36759   0.16456   0.31403   0.00000  Uiso   1.00
H351   H     0.82660   0.21288   0.48084   0.00000  Uiso   1.00
H352   H     0.68958   0.25641   0.82533   0.00000  Uiso   1.00
H353   H     0.65844   0.99323   0.16311   0.00000  Uiso   1.00
H354   H     0.53589   0.96463   0.21270   0.00000  Uiso   1.00
H355   H     0.75357   0.98755   0.29183   0.00000  Uiso   1.00
H356   H     0.68859   0.00819   0.98097   0.00000  Uiso   1.00
H357   H     0.39576   0.96340   0.27382   0.00000  Uiso   1.00
H358   H     0.85478   0.01173   0.44063   0.00000  Uiso   1.00
H359   H     0.71776   0.05525   0.78512   0.00000  Uiso   1.00
O360   O     0.30047   0.04940   0.32742   0.00000  Uiso   1.00
O361   O     0.90268   0.11281   0.54626   0.00000  Uiso   1.00
O362   O     0.72292   0.16991   0.68625   0.00000  Uiso   1.00
N363   N     0.39103   0.12114   0.29774   0.00000  Uiso   1.00
N364   N     0.82017   0.16632   0.45371   0.00000  Uiso   1.00
N365   N     0.69209   0.20702   0.84087   0.00000  Uiso   1.00
N366   N     0.40619   0.01290   0.27610   0.00000  Uiso   1.00
N367   N     0.83533   0.05808   0.43207   0.00000  Uiso   1.00
N368   N     0.70725   0.09878   0.81923   0.00000  Uiso   1.00
