data_job_06206
_audit_creation_date              2018-12-19
_audit_creation_method            'Materials Studio'
_symmetry_space_group_name_H-M    'P1'
_symmetry_Int_Tables_number       1
_symmetry_cell_setting            triclinic
loop_
_symmetry_equiv_pos_as_xyz
  x,y,z
_cell_length_a                    12.0977
_cell_length_b                    20.4011
_cell_length_c                    20.8510
_cell_angle_alpha                 63.5920
_cell_angle_beta                  78.5611
_cell_angle_gamma                 97.9754
loop_
_atom_site_label
_atom_site_type_symbol
_atom_site_fract_x
_atom_site_fract_y
_atom_site_fract_z
_atom_site_U_iso_or_equiv
_atom_site_adp_type
_atom_site_occupancy
C1     C     0.25495   0.08281   0.62078   0.00000  Uiso   1.00
C2     C     0.24108   0.03228   0.58515   0.00000  Uiso   1.00
C3     C     0.32657   0.03323   0.52922   0.00000  Uiso   1.00
C4     C     0.29668   0.98256   0.50409   0.00000  Uiso   1.00
C5     C     0.29208   0.91170   0.44421   0.00000  Uiso   1.00
C6     C     0.15839   0.12388   0.60999   0.00000  Uiso   1.00
C7     C     0.17435   0.20185   0.57495   0.00000  Uiso   1.00
C8     C     0.07484   0.22828   0.57073   0.00000  Uiso   1.00
C9     C     0.94185   0.29964   0.54946   0.00000  Uiso   1.00
C10    C     0.22481   0.02945   0.70476   0.00000  Uiso   1.00
C11    C     0.29661   0.02803   0.74942   0.00000  Uiso   1.00
C12    C     0.25301   0.97497   0.82499   0.00000  Uiso   1.00
C13    C     0.22315   0.89970   0.95087   0.00000  Uiso   1.00
C14    C     0.04983   0.99113   0.67560   0.00000  Uiso   1.00
C15    C     0.12967   0.98249   0.61492   0.00000  Uiso   1.00
C16    C     0.09964   0.93179   0.58987   0.00000  Uiso   1.00
C17    C     0.18508   0.93267   0.53392   0.00000  Uiso   1.00
C18    C     0.04698   0.07409   0.63976   0.00000  Uiso   1.00
C19    C     0.94742   0.10041   0.63560   0.00000  Uiso   1.00
C20    C     0.96323   0.17840   0.60056   0.00000  Uiso   1.00
C21    C     0.11340   0.97965   0.73453   0.00000  Uiso   1.00
C22    C     0.06967   0.92659   0.81006   0.00000  Uiso   1.00
C23    C     0.14140   0.92508   0.85482   0.00000  Uiso   1.00
H24    H     0.34168   0.12159   0.59760   0.00000  Uiso   1.00
H25    H     0.41278   0.07178   0.50619   0.00000  Uiso   1.00
H26    H     0.26058   0.24037   0.55192   0.00000  Uiso   1.00
H27    H     0.38282   0.06657   0.72636   0.00000  Uiso   1.00
H28    H     0.44246   0.99462   0.41796   0.00000  Uiso   1.00
H29    H     0.12154   0.35010   0.51440   0.00000  Uiso   1.00
H30    H     0.37930   0.98362   0.88224   0.00000  Uiso   1.00
H31    H     0.96309   0.95236   0.69878   0.00000  Uiso   1.00
H32    H     0.01342   0.89326   0.61292   0.00000  Uiso   1.00
H33    H     0.86122   0.06186   0.65865   0.00000  Uiso   1.00
H34    H     0.98346   0.88806   0.83308   0.00000  Uiso   1.00
H35    H     0.11832   0.84974   0.50458   0.00000  Uiso   1.00
H36    H     0.79740   0.20522   0.60103   0.00000  Uiso   1.00
H37    H     0.05516   0.83873   0.96886   0.00000  Uiso   1.00
O38    O     0.32031   0.88638   0.40295   0.00000  Uiso   1.00
O39    O     0.89928   0.35275   0.52949   0.00000  Uiso   1.00
O40    O     0.23746   0.87193   0.01208   0.00000  Uiso   1.00
N41    N     0.35927   0.96862   0.45014   0.00000  Uiso   1.00
N42    N     0.05923   0.30098   0.54030   0.00000  Uiso   1.00
N43    N     0.30020   0.95836   0.88419   0.00000  Uiso   1.00
N44    N     0.18486   0.89066   0.49675   0.00000  Uiso   1.00
N45    N     0.88482   0.22301   0.58691   0.00000  Uiso   1.00
N46    N     0.12579   0.88039   0.93081   0.00000  Uiso   1.00
C47    C     0.16875   0.29120   0.08823   0.00000  Uiso   1.00
C48    C     0.20225   0.37705   0.03882   0.00000  Uiso   1.00
C49    C     0.28302   0.42841   0.04410   0.00000  Uiso   1.00
C50    C     0.30134   0.50458   0.99373   0.00000  Uiso   1.00
C51    C     0.36249   0.63425   0.92519   0.00000  Uiso   1.00
C52    C     0.03676   0.26801   0.12304   0.00000  Uiso   1.00
C53    C     0.97840   0.22767   0.19913   0.00000  Uiso   1.00
C54    C     0.85742   0.21205   0.21966   0.00000  Uiso   1.00
C55    C     0.66164   0.17237   0.28188   0.00000  Uiso   1.00
C56    C     0.19110   0.25868   0.03511   0.00000  Uiso   1.00
C57    C     0.26249   0.21049   0.03727   0.00000  Uiso   1.00
C58    C     0.27142   0.18699   0.98378   0.00000  Uiso   1.00
C59    C     0.31529   0.13284   0.90946   0.00000  Uiso   1.00
C60    C     0.05766   0.33516   0.98938   0.00000  Uiso   1.00
C61    C     0.14191   0.40093   0.98513   0.00000  Uiso   1.00
C62    C     0.16011   0.47705   0.93473   0.00000  Uiso   1.00
C63    C     0.24090   0.52851   0.93994   0.00000  Uiso   1.00
C64    C     0.97642   0.29188   0.06935   0.00000  Uiso   1.00
C65    C     0.85549   0.27631   0.08977   0.00000  Uiso   1.00
C66    C     0.79696   0.23596   0.16587   0.00000  Uiso   1.00
C67    C     0.13077   0.28256   0.98141   0.00000  Uiso   1.00
C68    C     0.13958   0.25913   0.92791   0.00000  Uiso   1.00
C69    C     0.21097   0.21091   0.92999   0.00000  Uiso   1.00
H70    H     0.21572   0.27261   0.13004   0.00000  Uiso   1.00
H71    H     0.32969   0.40991   0.08566   0.00000  Uiso   1.00
H72    H     0.02512   0.20919   0.24067   0.00000  Uiso   1.00
H73    H     0.30917   0.19202   0.07883   0.00000  Uiso   1.00
H74    H     0.42941   0.57266   0.01280   0.00000  Uiso   1.00
H75    H     0.78720   0.14942   0.33965   0.00000  Uiso   1.00
H76    H     0.38617   0.11320   0.99838   0.00000  Uiso   1.00
H77    H     0.01068   0.35375   0.94758   0.00000  Uiso   1.00
H78    H     0.11341   0.49551   0.89319   0.00000  Uiso   1.00
H79    H     0.80883   0.29479   0.04820   0.00000  Uiso   1.00
H80    H     0.09288   0.27762   0.88636   0.00000  Uiso   1.00
H81    H     0.25386   0.64213   0.85659   0.00000  Uiso   1.00
H82    H     0.61165   0.21889   0.18344   0.00000  Uiso   1.00
H83    H     0.21062   0.18268   0.84217   0.00000  Uiso   1.00
O84    O     0.41288   0.69918   0.90222   0.00000  Uiso   1.00
O85    O     0.57033   0.14390   0.33103   0.00000  Uiso   1.00
O86    O     0.35616   0.09638   0.88330   0.00000  Uiso   1.00
N87    N     0.37401   0.56955   0.98349   0.00000  Uiso   1.00
N88    N     0.77359   0.17386   0.28907   0.00000  Uiso   1.00
N89    N     0.33355   0.13998   0.97003   0.00000  Uiso   1.00
N90    N     0.27955   0.60694   0.89943   0.00000  Uiso   1.00
N91    N     0.67912   0.21125   0.20502   0.00000  Uiso   1.00
N92    N     0.23908   0.17737   0.88597   0.00000  Uiso   1.00
C93    C     0.87456   0.61454   0.29575   0.00000  Uiso   1.00
C94    C     0.82549   0.58029   0.38036   0.00000  Uiso   1.00
C95    C     0.85534   0.52087   0.43397   0.00000  Uiso   1.00
C96    C     0.80069   0.49777   0.50847   0.00000  Uiso   1.00
C97    C     0.73687   0.43922   0.63678   0.00000  Uiso   1.00
C98    C     0.76944   0.60878   0.26670   0.00000  Uiso   1.00
C99    C     0.75218   0.57332   0.22474   0.00000  Uiso   1.00
C100   C     0.65035   0.57421   0.20356   0.00000  Uiso   1.00
C101   C     0.49955   0.55994   0.15536   0.00000  Uiso   1.00
C102   C     0.92584   0.69885   0.26556   0.00000  Uiso   1.00
C103   C     0.04007   0.73912   0.22262   0.00000  Uiso   1.00
C104   C     0.06990   0.81585   0.20047   0.00000  Uiso   1.00
C105   C     0.16193   0.94142   0.15051   0.00000  Uiso   1.00
C106   C     0.72442   0.67919   0.33274   0.00000  Uiso   1.00
C107   C     0.74394   0.61541   0.40044   0.00000  Uiso   1.00
C108   C     0.68923   0.59240   0.47489   0.00000  Uiso   1.00
C109   C     0.71900   0.53295   0.52860   0.00000  Uiso   1.00
C110   C     0.68789   0.64390   0.28678   0.00000  Uiso   1.00
C111   C     0.58607   0.64485   0.26566   0.00000  Uiso   1.00
C112   C     0.56865   0.60939   0.22368   0.00000  Uiso   1.00
C113   C     0.84429   0.73396   0.28565   0.00000  Uiso   1.00
C114   C     0.87395   0.81065   0.26355   0.00000  Uiso   1.00
C115   C     0.98820   0.85103   0.22060   0.00000  Uiso   1.00
H116   H     0.93804   0.58720   0.28011   0.00000  Uiso   1.00
H117   H     0.91845   0.49370   0.41839   0.00000  Uiso   1.00
H118   H     0.81531   0.54615   0.20919   0.00000  Uiso   1.00
H119   H     0.10315   0.71192   0.20709   0.00000  Uiso   1.00
H120   H     0.86073   0.40551   0.58057   0.00000  Uiso   1.00
H121   H     0.64327   0.51612   0.13943   0.00000  Uiso   1.00
H122   H     0.25024   0.86569   0.13499   0.00000  Uiso   1.00
H123   H     0.66092   0.70653   0.34838   0.00000  Uiso   1.00
H124   H     0.62613   0.61958   0.49042   0.00000  Uiso   1.00
H125   H     0.52298   0.67203   0.28121   0.00000  Uiso   1.00
H126   H     0.81082   0.83780   0.27911   0.00000  Uiso   1.00
H127   H     0.62347   0.50768   0.63902   0.00000  Uiso   1.00
H128   H     0.40601   0.61830   0.19788   0.00000  Uiso   1.00
H129   H     0.01297   0.96786   0.19345   0.00000  Uiso   1.00
O130   O     0.72418   0.39722   0.70200   0.00000  Uiso   1.00
O131   O     0.43890   0.54236   0.12323   0.00000  Uiso   1.00
O132   O     0.23522   0.00098   0.11741   0.00000  Uiso   1.00
N133   N     0.80968   0.44149   0.57484   0.00000  Uiso   1.00
N134   N     0.60637   0.54491   0.16241   0.00000  Uiso   1.00
N135   N     0.17382   0.87172   0.15824   0.00000  Uiso   1.00
N136   N     0.68201   0.49647   0.60629   0.00000  Uiso   1.00
N137   N     0.47870   0.59988   0.19386   0.00000  Uiso   1.00
N138   N     0.04615   0.92670   0.18969   0.00000  Uiso   1.00
C139   C     0.74505   0.91719   0.37922   0.00000  Uiso   1.00
C140   C     0.75892   0.96772   0.41485   0.00000  Uiso   1.00
C141   C     0.67343   0.96677   0.47078   0.00000  Uiso   1.00
C142   C     0.70332   0.01744   0.49591   0.00000  Uiso   1.00
C143   C     0.70792   0.08830   0.55579   0.00000  Uiso   1.00
C144   C     0.84161   0.87612   0.39001   0.00000  Uiso   1.00
C145   C     0.82565   0.79815   0.42505   0.00000  Uiso   1.00
C146   C     0.92516   0.77172   0.42927   0.00000  Uiso   1.00
C147   C     0.05815   0.70036   0.45054   0.00000  Uiso   1.00
C148   C     0.77519   0.97055   0.29524   0.00000  Uiso   1.00
C149   C     0.70339   0.97197   0.25059   0.00000  Uiso   1.00
C150   C     0.74699   0.02503   0.17501   0.00000  Uiso   1.00
C151   C     0.77686   0.10030   0.04913   0.00000  Uiso   1.00
C152   C     0.95017   0.00887   0.32441   0.00000  Uiso   1.00
C153   C     0.87033   0.01751   0.38508   0.00000  Uiso   1.00
C154   C     0.90036   0.06821   0.41013   0.00000  Uiso   1.00
C155   C     0.81493   0.06733   0.46608   0.00000  Uiso   1.00
C156   C     0.95302   0.92591   0.36024   0.00000  Uiso   1.00
C157   C     0.05258   0.89959   0.36441   0.00000  Uiso   1.00
C158   C     0.03677   0.82160   0.39944   0.00000  Uiso   1.00
C159   C     0.88660   0.02035   0.26547   0.00000  Uiso   1.00
C160   C     0.93033   0.07341   0.18994   0.00000  Uiso   1.00
C161   C     0.85860   0.07492   0.14518   0.00000  Uiso   1.00
H162   H     0.65832   0.87841   0.40240   0.00000  Uiso   1.00
H163   H     0.58722   0.92822   0.49381   0.00000  Uiso   1.00
H164   H     0.73942   0.75963   0.44808   0.00000  Uiso   1.00
H165   H     0.61718   0.93343   0.27365   0.00000  Uiso   1.00
H166   H     0.55754   0.00538   0.58204   0.00000  Uiso   1.00
H167   H     0.87846   0.64990   0.48560   0.00000  Uiso   1.00
H168   H     0.62070   0.01638   0.11776   0.00000  Uiso   1.00
H169   H     0.03691   0.04764   0.30123   0.00000  Uiso   1.00
H170   H     0.98658   0.10674   0.38708   0.00000  Uiso   1.00
H171   H     0.13878   0.93814   0.34135   0.00000  Uiso   1.00
H172   H     0.01654   0.11194   0.16692   0.00000  Uiso   1.00
H173   H     0.88168   0.15027   0.49542   0.00000  Uiso   1.00
H174   H     0.20260   0.79478   0.39897   0.00000  Uiso   1.00
H175   H     0.94484   0.16127   0.03114   0.00000  Uiso   1.00
O176   O     0.67969   0.11362   0.59705   0.00000  Uiso   1.00
O177   O     0.10072   0.64725   0.47051   0.00000  Uiso   1.00
O178   O     0.76254   0.12807   0.98793   0.00000  Uiso   1.00
N179   N     0.64073   0.03138   0.54986   0.00000  Uiso   1.00
N180   N     0.94077   0.69902   0.45970   0.00000  Uiso   1.00
N181   N     0.69980   0.04164   0.11581   0.00000  Uiso   1.00
N182   N     0.81514   0.10934   0.50325   0.00000  Uiso   1.00
N183   N     0.11518   0.77699   0.41309   0.00000  Uiso   1.00
N184   N     0.87421   0.11961   0.06920   0.00000  Uiso   1.00
C185   C     0.83125   0.70880   0.91177   0.00000  Uiso   1.00
C186   C     0.79775   0.62295   0.96118   0.00000  Uiso   1.00
C187   C     0.71698   0.57159   0.95590   0.00000  Uiso   1.00
C188   C     0.69866   0.49542   0.00628   0.00000  Uiso   1.00
C189   C     0.63751   0.36575   0.07481   0.00000  Uiso   1.00
C190   C     0.96324   0.73199   0.87696   0.00000  Uiso   1.00
C191   C     0.02160   0.77233   0.80087   0.00000  Uiso   1.00
C192   C     0.14258   0.78795   0.78034   0.00000  Uiso   1.00
C193   C     0.33836   0.82763   0.71812   0.00000  Uiso   1.00
C194   C     0.80890   0.74132   0.96489   0.00000  Uiso   1.00
C195   C     0.73751   0.78951   0.96273   0.00000  Uiso   1.00
C196   C     0.72858   0.81301   0.01623   0.00000  Uiso   1.00
C197   C     0.68471   0.86716   0.09054   0.00000  Uiso   1.00
C198   C     0.94234   0.66484   0.01062   0.00000  Uiso   1.00
C199   C     0.85810   0.59908   0.01487   0.00000  Uiso   1.00
C200   C     0.83989   0.52296   0.06527   0.00000  Uiso   1.00
C201   C     0.75910   0.47149   0.06007   0.00000  Uiso   1.00
C202   C     0.02358   0.70812   0.93065   0.00000  Uiso   1.00
C203   C     0.14451   0.72369   0.91023   0.00000  Uiso   1.00
C204   C     0.20304   0.76404   0.83413   0.00000  Uiso   1.00
C205   C     0.86923   0.71744   0.01859   0.00000  Uiso   1.00
C206   C     0.86042   0.74087   0.07210   0.00000  Uiso   1.00
C207   C     0.78903   0.78909   0.07001   0.00000  Uiso   1.00
H208   H     0.78428   0.72739   0.86996   0.00000  Uiso   1.00
H209   H     0.67031   0.59009   0.91434   0.00000  Uiso   1.00
H210   H     0.97488   0.79081   0.75933   0.00000  Uiso   1.00
H211   H     0.69083   0.80798   0.92117   0.00000  Uiso   1.00
H212   H     0.57059   0.42734   0.98720   0.00000  Uiso   1.00
H213   H     0.21280   0.85058   0.66035   0.00000  Uiso   1.00
H214   H     0.61383   0.88680   0.00162   0.00000  Uiso   1.00
H215   H     0.98932   0.64625   0.05242   0.00000  Uiso   1.00
H216   H     0.88660   0.50450   0.10681   0.00000  Uiso   1.00
H217   H     0.19117   0.70521   0.95180   0.00000  Uiso   1.00
H218   H     0.90712   0.72238   0.11364   0.00000  Uiso   1.00
H219   H     0.74614   0.35787   0.14341   0.00000  Uiso   1.00
H220   H     0.38835   0.78111   0.81657   0.00000  Uiso   1.00
H221   H     0.78938   0.81732   0.15783   0.00000  Uiso   1.00
O222   O     0.58712   0.30082   0.09778   0.00000  Uiso   1.00
O223   O     0.42967   0.85610   0.66897   0.00000  Uiso   1.00
O224   O     0.64384   0.90362   0.11670   0.00000  Uiso   1.00
N225   N     0.62599   0.43045   0.01651   0.00000  Uiso   1.00
N226   N     0.22641   0.82614   0.71093   0.00000  Uiso   1.00
N227   N     0.66645   0.86002   0.02997   0.00000  Uiso   1.00
N228   N     0.72045   0.39306   0.10057   0.00000  Uiso   1.00
N229   N     0.32088   0.78875   0.79499   0.00000  Uiso   1.00
N230   N     0.76092   0.82263   0.11403   0.00000  Uiso   1.00
C231   C     0.12544   0.38546   0.70425   0.00000  Uiso   1.00
C232   C     0.17451   0.41971   0.61965   0.00000  Uiso   1.00
C233   C     0.14466   0.47913   0.56603   0.00000  Uiso   1.00
C234   C     0.19931   0.50223   0.49153   0.00000  Uiso   1.00
C235   C     0.26313   0.56078   0.36322   0.00000  Uiso   1.00
C236   C     0.23056   0.39122   0.73330   0.00000  Uiso   1.00
C237   C     0.24782   0.42668   0.77526   0.00000  Uiso   1.00
C238   C     0.34965   0.42579   0.79644   0.00000  Uiso   1.00
C239   C     0.50045   0.44006   0.84464   0.00000  Uiso   1.00
C240   C     0.07416   0.30115   0.73444   0.00000  Uiso   1.00
C241   C     0.95994   0.26088   0.77738   0.00000  Uiso   1.00
C242   C     0.93010   0.18416   0.79953   0.00000  Uiso   1.00
C243   C     0.83807   0.05858   0.84949   0.00000  Uiso   1.00
C244   C     0.27558   0.32081   0.66726   0.00000  Uiso   1.00
C245   C     0.25606   0.38459   0.59956   0.00000  Uiso   1.00
C246   C     0.31077   0.40760   0.52511   0.00000  Uiso   1.00
C247   C     0.28100   0.46705   0.47140   0.00000  Uiso   1.00
C248   C     0.31211   0.35610   0.71322   0.00000  Uiso   1.00
C249   C     0.41393   0.35515   0.73434   0.00000  Uiso   1.00
C250   C     0.43135   0.39061   0.77632   0.00000  Uiso   1.00
C251   C     0.15571   0.26604   0.71435   0.00000  Uiso   1.00
C252   C     0.12605   0.18935   0.73645   0.00000  Uiso   1.00
C253   C     0.01180   0.14897   0.77940   0.00000  Uiso   1.00
H254   H     0.06196   0.41280   0.71989   0.00000  Uiso   1.00
H255   H     0.08155   0.50630   0.58161   0.00000  Uiso   1.00
H256   H     0.18469   0.45385   0.79081   0.00000  Uiso   1.00
H257   H     0.89685   0.28808   0.79291   0.00000  Uiso   1.00
H258   H     0.13927   0.59449   0.41943   0.00000  Uiso   1.00
H259   H     0.35673   0.48388   0.86057   0.00000  Uiso   1.00
H260   H     0.74976   0.13431   0.86501   0.00000  Uiso   1.00
H261   H     0.33908   0.29347   0.65162   0.00000  Uiso   1.00
H262   H     0.37388   0.38042   0.50959   0.00000  Uiso   1.00
H263   H     0.47702   0.32797   0.71879   0.00000  Uiso   1.00
H264   H     0.18918   0.16220   0.72089   0.00000  Uiso   1.00
H265   H     0.37653   0.49232   0.36098   0.00000  Uiso   1.00
H266   H     0.59399   0.38170   0.80212   0.00000  Uiso   1.00
H267   H     0.98703   0.03214   0.80655   0.00000  Uiso   1.00
O268   O     0.27582   0.60278   0.29800   0.00000  Uiso   1.00
O269   O     0.56110   0.45764   0.87677   0.00000  Uiso   1.00
O270   O     0.76478   0.99902   0.88259   0.00000  Uiso   1.00
N271   N     0.19032   0.55851   0.42517   0.00000  Uiso   1.00
N272   N     0.39363   0.45509   0.83759   0.00000  Uiso   1.00
N273   N     0.82618   0.12828   0.84176   0.00000  Uiso   1.00
N274   N     0.31799   0.50353   0.39371   0.00000  Uiso   1.00
N275   N     0.52130   0.40012   0.80614   0.00000  Uiso   1.00
N276   N     0.95385   0.07330   0.81031   0.00000  Uiso   1.00
