data_job_05197
_audit_creation_date              2018-12-19
_audit_creation_method            'Materials Studio'
_symmetry_space_group_name_H-M    'P1'
_symmetry_Int_Tables_number       1
_symmetry_cell_setting            triclinic
loop_
_symmetry_equiv_pos_as_xyz
  x,y,z
_cell_length_a                    15.3654
_cell_length_b                    16.2192
_cell_length_c                    24.7585
_cell_angle_alpha                 90.0000
_cell_angle_beta                  90.0000
_cell_angle_gamma                 90.0000
loop_
_atom_site_label
_atom_site_type_symbol
_atom_site_fract_x
_atom_site_fract_y
_atom_site_fract_z
_atom_site_U_iso_or_equiv
_atom_site_adp_type
_atom_site_occupancy
C1     C     0.04928   0.50873   0.49670   0.00000  Uiso   1.00
C2     C     0.13640   0.47377   0.51529   0.00000  Uiso   1.00
C3     C     0.17205   0.48256   0.56647   0.00000  Uiso   1.00
C4     C     0.25245   0.44598   0.57546   0.00000  Uiso   1.00
C5     C     0.38118   0.39839   0.61053   0.00000  Uiso   1.00
C6     C     0.06911   0.56173   0.44733   0.00000  Uiso   1.00
C7     C     0.04817   0.64447   0.44137   0.00000  Uiso   1.00
C8     C     0.07192   0.68192   0.39314   0.00000  Uiso   1.00
C9     C     0.09613   0.77087   0.32269   0.00000  Uiso   1.00
C10    C     0.99673   0.43547   0.47604   0.00000  Uiso   1.00
C11    C     0.91493   0.41207   0.49420   0.00000  Uiso   1.00
C12    C     0.87773   0.34324   0.47014   0.00000  Uiso   1.00
C13    C     0.78956   0.23616   0.44425   0.00000  Uiso   1.00
C14    C     0.12865   0.42814   0.42166   0.00000  Uiso   1.00
C15    C     0.17951   0.43000   0.47454   0.00000  Uiso   1.00
C16    C     0.25987   0.39339   0.48345   0.00000  Uiso   1.00
C17    C     0.29564   0.40212   0.53463   0.00000  Uiso   1.00
C18    C     0.11222   0.51795   0.40658   0.00000  Uiso   1.00
C19    C     0.13600   0.55530   0.35835   0.00000  Uiso   1.00
C20    C     0.11511   0.63807   0.35231   0.00000  Uiso   1.00
C21    C     0.03984   0.39170   0.43528   0.00000  Uiso   1.00
C22    C     0.00276   0.32290   0.41118   0.00000  Uiso   1.00
C23    C     0.92092   0.29939   0.42930   0.00000  Uiso   1.00
H24    H     0.01571   0.54281   0.52843   0.00000  Uiso   1.00
H25    H     0.13867   0.51644   0.59800   0.00000  Uiso   1.00
H26    H     0.01480   0.67832   0.47291   0.00000  Uiso   1.00
H27    H     0.88158   0.44596   0.52574   0.00000  Uiso   1.00
H28    H     0.29402   0.46793   0.65716   0.00000  Uiso   1.00
H29    H     0.03282   0.80925   0.39340   0.00000  Uiso   1.00
H30    H     0.75189   0.31927   0.50479   0.00000  Uiso   1.00
H31    H     0.16222   0.39406   0.38993   0.00000  Uiso   1.00
H32    H     0.29322   0.35952   0.45190   0.00000  Uiso   1.00
H33    H     0.16936   0.52140   0.32682   0.00000  Uiso   1.00
H34    H     0.03614   0.28904   0.37964   0.00000  Uiso   1.00
H35    H     0.41946   0.34057   0.53858   0.00000  Uiso   1.00
H36    H     0.15826   0.68189   0.27482   0.00000  Uiso   1.00
H37    H     0.87734   0.19191   0.38621   0.00000  Uiso   1.00
O38    O     0.44029   0.38424   0.64113   0.00000  Uiso   1.00
O39    O     0.09758   0.83203   0.29509   0.00000  Uiso   1.00
O40    O     0.72902   0.18919   0.44123   0.00000  Uiso   1.00
N41    N     0.30556   0.44268   0.62075   0.00000  Uiso   1.00
N42    N     0.06136   0.76180   0.37415   0.00000  Uiso   1.00
N43    N     0.79871   0.30372   0.47828   0.00000  Uiso   1.00
N44    N     0.37306   0.37415   0.55694   0.00000  Uiso   1.00
N45    N     0.12886   0.69327   0.31035   0.00000  Uiso   1.00
N46    N     0.86621   0.23519   0.41448   0.00000  Uiso   1.00
C47    C     0.86206   0.00881   0.50570   0.00000  Uiso   1.00
C48    C     0.77478   0.97399   0.48729   0.00000  Uiso   1.00
C49    C     0.73887   0.98282   0.43618   0.00000  Uiso   1.00
C50    C     0.65835   0.94639   0.42736   0.00000  Uiso   1.00
C51    C     0.52934   0.89901   0.39256   0.00000  Uiso   1.00
C52    C     0.84260   0.06187   0.55509   0.00000  Uiso   1.00
C53    C     0.86373   0.14457   0.56100   0.00000  Uiso   1.00
C54    C     0.84031   0.18210   0.60926   0.00000  Uiso   1.00
C55    C     0.81665   0.27113   0.67975   0.00000  Uiso   1.00
C56    C     0.91457   0.93547   0.52627   0.00000  Uiso   1.00
C57    C     0.99623   0.91190   0.50795   0.00000  Uiso   1.00
C58    C     0.03342   0.84302   0.53196   0.00000  Uiso   1.00
C59    C     0.12150   0.73580   0.55769   0.00000  Uiso   1.00
C60    C     0.78292   0.92840   0.58092   0.00000  Uiso   1.00
C61    C     0.73179   0.93032   0.52814   0.00000  Uiso   1.00
C62    C     0.65130   0.89386   0.51940   0.00000  Uiso   1.00
C63    C     0.61529   0.90263   0.46829   0.00000  Uiso   1.00
C64    C     0.79961   0.01819   0.59595   0.00000  Uiso   1.00
C65    C     0.77616   0.05561   0.64421   0.00000  Uiso   1.00
C66    C     0.79725   0.13835   0.65019   0.00000  Uiso   1.00
C67    C     0.87158   0.89179   0.56712   0.00000  Uiso   1.00
C68    C     0.90866   0.82294   0.59117   0.00000  Uiso   1.00
C69    C     0.99035   0.79927   0.57288   0.00000  Uiso   1.00
H70    H     0.89553   0.04281   0.47390   0.00000  Uiso   1.00
H71    H     0.77216   0.01663   0.40458   0.00000  Uiso   1.00
H72    H     0.89700   0.17835   0.52938   0.00000  Uiso   1.00
H73    H     0.02948   0.94572   0.47634   0.00000  Uiso   1.00
H74    H     0.61640   0.96837   0.34575   0.00000  Uiso   1.00
H75    H     0.87967   0.30935   0.60890   0.00000  Uiso   1.00
H76    H     0.15902   0.81880   0.49705   0.00000  Uiso   1.00
H77    H     0.74945   0.89440   0.61273   0.00000  Uiso   1.00
H78    H     0.61805   0.86006   0.55102   0.00000  Uiso   1.00
H79    H     0.74290   0.02179   0.67582   0.00000  Uiso   1.00
H80    H     0.87537   0.78915   0.62278   0.00000  Uiso   1.00
H81    H     0.49132   0.84130   0.46461   0.00000  Uiso   1.00
H82    H     0.75460   0.18228   0.72776   0.00000  Uiso   1.00
H83    H     0.03394   0.69173   0.61591   0.00000  Uiso   1.00
O84    O     0.47005   0.88495   0.36209   0.00000  Uiso   1.00
O85    O     0.81547   0.33230   0.70734   0.00000  Uiso   1.00
O86    O     0.18196   0.68871   0.56059   0.00000  Uiso   1.00
N87    N     0.60500   0.94316   0.38219   0.00000  Uiso   1.00
N88    N     0.85114   0.26196   0.62821   0.00000  Uiso   1.00
N89    N     0.11231   0.80335   0.52366   0.00000  Uiso   1.00
N90    N     0.53770   0.87478   0.44614   0.00000  Uiso   1.00
N91    N     0.78383   0.19359   0.69217   0.00000  Uiso   1.00
N92    N     0.04501   0.73498   0.58761   0.00000  Uiso   1.00
C93    C     0.95072   0.49127   0.99670   0.00000  Uiso   1.00
C94    C     0.86360   0.52623   0.01529   0.00000  Uiso   1.00
C95    C     0.82795   0.51744   0.06647   0.00000  Uiso   1.00
C96    C     0.74755   0.55402   0.07546   0.00000  Uiso   1.00
C97    C     0.61882   0.60161   0.11053   0.00000  Uiso   1.00
C98    C     0.93089   0.43827   0.94733   0.00000  Uiso   1.00
C99    C     0.95183   0.35553   0.94137   0.00000  Uiso   1.00
C100   C     0.92808   0.31808   0.89314   0.00000  Uiso   1.00
C101   C     0.90387   0.22913   0.82269   0.00000  Uiso   1.00
C102   C     0.00327   0.56453   0.97604   0.00000  Uiso   1.00
C103   C     0.08507   0.58793   0.99420   0.00000  Uiso   1.00
C104   C     0.12227   0.65676   0.97014   0.00000  Uiso   1.00
C105   C     0.21044   0.76384   0.94425   0.00000  Uiso   1.00
C106   C     0.87135   0.57186   0.92166   0.00000  Uiso   1.00
C107   C     0.82049   0.57000   0.97454   0.00000  Uiso   1.00
C108   C     0.74013   0.60661   0.98345   0.00000  Uiso   1.00
C109   C     0.70436   0.59788   0.03463   0.00000  Uiso   1.00
C110   C     0.88778   0.48205   0.90658   0.00000  Uiso   1.00
C111   C     0.86400   0.44470   0.85835   0.00000  Uiso   1.00
C112   C     0.88489   0.36193   0.85231   0.00000  Uiso   1.00
C113   C     0.96016   0.60830   0.93528   0.00000  Uiso   1.00
C114   C     0.99724   0.67710   0.91118   0.00000  Uiso   1.00
C115   C     0.07908   0.70061   0.92930   0.00000  Uiso   1.00
H116   H     0.98429   0.45719   0.02843   0.00000  Uiso   1.00
H117   H     0.86133   0.48356   0.09800   0.00000  Uiso   1.00
H118   H     0.98520   0.32168   0.97291   0.00000  Uiso   1.00
H119   H     0.11842   0.55404   0.02574   0.00000  Uiso   1.00
H120   H     0.70598   0.53207   0.15716   0.00000  Uiso   1.00
H121   H     0.96718   0.19075   0.89340   0.00000  Uiso   1.00
H122   H     0.24811   0.68073   0.00479   0.00000  Uiso   1.00
H123   H     0.83778   0.60594   0.88993   0.00000  Uiso   1.00
H124   H     0.70678   0.64048   0.95190   0.00000  Uiso   1.00
H125   H     0.83064   0.47860   0.82682   0.00000  Uiso   1.00
H126   H     0.96386   0.71096   0.87964   0.00000  Uiso   1.00
H127   H     0.58054   0.65943   0.03858   0.00000  Uiso   1.00
H128   H     0.84174   0.31811   0.77482   0.00000  Uiso   1.00
H129   H     0.12266   0.80809   0.88621   0.00000  Uiso   1.00
O130   O     0.55971   0.61576   0.14113   0.00000  Uiso   1.00
O131   O     0.90242   0.16797   0.79509   0.00000  Uiso   1.00
O132   O     0.27098   0.81081   0.94123   0.00000  Uiso   1.00
N133   N     0.69444   0.55732   0.12075   0.00000  Uiso   1.00
N134   N     0.93864   0.23820   0.87415   0.00000  Uiso   1.00
N135   N     0.20129   0.69628   0.97828   0.00000  Uiso   1.00
N136   N     0.62694   0.62585   0.05694   0.00000  Uiso   1.00
N137   N     0.87114   0.30673   0.81035   0.00000  Uiso   1.00
N138   N     0.13379   0.76481   0.91448   0.00000  Uiso   1.00
C139   C     0.13794   0.99119   0.00570   0.00000  Uiso   1.00
C140   C     0.22522   0.02601   0.98729   0.00000  Uiso   1.00
C141   C     0.26113   0.01718   0.93618   0.00000  Uiso   1.00
C142   C     0.34165   0.05361   0.92736   0.00000  Uiso   1.00
C143   C     0.47066   0.10099   0.89256   0.00000  Uiso   1.00
C144   C     0.15740   0.93813   0.05509   0.00000  Uiso   1.00
C145   C     0.13627   0.85543   0.06100   0.00000  Uiso   1.00
C146   C     0.15969   0.81790   0.10926   0.00000  Uiso   1.00
C147   C     0.18335   0.72887   0.17975   0.00000  Uiso   1.00
C148   C     0.08543   0.06453   0.02627   0.00000  Uiso   1.00
C149   C     0.00377   0.08810   0.00795   0.00000  Uiso   1.00
C150   C     0.96658   0.15698   0.03196   0.00000  Uiso   1.00
C151   C     0.87850   0.26420   0.05769   0.00000  Uiso   1.00
C152   C     0.21708   0.07160   0.08092   0.00000  Uiso   1.00
C153   C     0.26821   0.06968   0.02814   0.00000  Uiso   1.00
C154   C     0.34870   0.10614   0.01940   0.00000  Uiso   1.00
C155   C     0.38471   0.09737   0.96829   0.00000  Uiso   1.00
C156   C     0.20039   0.98181   0.09595   0.00000  Uiso   1.00
C157   C     0.22384   0.94439   0.14421   0.00000  Uiso   1.00
C158   C     0.20275   0.86165   0.15019   0.00000  Uiso   1.00
C159   C     0.12842   0.10821   0.06712   0.00000  Uiso   1.00
C160   C     0.09134   0.17706   0.09117   0.00000  Uiso   1.00
C161   C     0.00965   0.20073   0.07288   0.00000  Uiso   1.00
H162   H     0.10447   0.95719   0.97390   0.00000  Uiso   1.00
H163   H     0.22784   0.98337   0.90458   0.00000  Uiso   1.00
H164   H     0.10300   0.82165   0.02938   0.00000  Uiso   1.00
H165   H     0.97052   0.05428   0.97634   0.00000  Uiso   1.00
H166   H     0.38360   0.03163   0.84575   0.00000  Uiso   1.00
H167   H     0.12033   0.69065   0.10890   0.00000  Uiso   1.00
H168   H     0.84098   0.18120   0.99705   0.00000  Uiso   1.00
H169   H     0.25055   0.10560   0.11273   0.00000  Uiso   1.00
H170   H     0.38195   0.13994   0.05102   0.00000  Uiso   1.00
H171   H     0.25710   0.97821   0.17582   0.00000  Uiso   1.00
H172   H     0.12463   0.21085   0.12278   0.00000  Uiso   1.00
H173   H     0.50868   0.15870   0.96461   0.00000  Uiso   1.00
H174   H     0.24540   0.81772   0.22776   0.00000  Uiso   1.00
H175   H     0.96606   0.30827   0.11591   0.00000  Uiso   1.00
O176   O     0.52995   0.11505   0.86209   0.00000  Uiso   1.00
O177   O     0.18453   0.66770   0.20734   0.00000  Uiso   1.00
O178   O     0.81804   0.31129   0.06059   0.00000  Uiso   1.00
N179   N     0.39500   0.05684   0.88219   0.00000  Uiso   1.00
N180   N     0.14886   0.73804   0.12821   0.00000  Uiso   1.00
N181   N     0.88769   0.19665   0.02366   0.00000  Uiso   1.00
N182   N     0.46230   0.12522   0.94614   0.00000  Uiso   1.00
N183   N     0.21617   0.80641   0.19217   0.00000  Uiso   1.00
N184   N     0.95499   0.26502   0.08761   0.00000  Uiso   1.00
C185   C     0.54928   0.49127   0.49670   0.00000  Uiso   1.00
C186   C     0.63640   0.52623   0.51529   0.00000  Uiso   1.00
C187   C     0.67205   0.51744   0.56647   0.00000  Uiso   1.00
C188   C     0.75245   0.55402   0.57546   0.00000  Uiso   1.00
C189   C     0.88118   0.60161   0.61053   0.00000  Uiso   1.00
C190   C     0.56911   0.43827   0.44733   0.00000  Uiso   1.00
C191   C     0.54817   0.35553   0.44137   0.00000  Uiso   1.00
C192   C     0.57192   0.31808   0.39314   0.00000  Uiso   1.00
C193   C     0.59613   0.22913   0.32269   0.00000  Uiso   1.00
C194   C     0.49673   0.56453   0.47604   0.00000  Uiso   1.00
C195   C     0.41493   0.58793   0.49420   0.00000  Uiso   1.00
C196   C     0.37773   0.65676   0.47014   0.00000  Uiso   1.00
C197   C     0.28956   0.76384   0.44425   0.00000  Uiso   1.00
C198   C     0.62865   0.57186   0.42166   0.00000  Uiso   1.00
C199   C     0.67951   0.57000   0.47454   0.00000  Uiso   1.00
C200   C     0.75987   0.60661   0.48345   0.00000  Uiso   1.00
C201   C     0.79564   0.59788   0.53463   0.00000  Uiso   1.00
C202   C     0.61222   0.48205   0.40658   0.00000  Uiso   1.00
C203   C     0.63600   0.44470   0.35835   0.00000  Uiso   1.00
C204   C     0.61511   0.36193   0.35231   0.00000  Uiso   1.00
C205   C     0.53984   0.60830   0.43528   0.00000  Uiso   1.00
C206   C     0.50276   0.67710   0.41118   0.00000  Uiso   1.00
C207   C     0.42092   0.70061   0.42930   0.00000  Uiso   1.00
H208   H     0.51571   0.45719   0.52843   0.00000  Uiso   1.00
H209   H     0.63867   0.48356   0.59800   0.00000  Uiso   1.00
H210   H     0.51480   0.32168   0.47291   0.00000  Uiso   1.00
H211   H     0.38158   0.55404   0.52574   0.00000  Uiso   1.00
H212   H     0.79402   0.53207   0.65716   0.00000  Uiso   1.00
H213   H     0.53282   0.19075   0.39340   0.00000  Uiso   1.00
H214   H     0.25189   0.68073   0.50479   0.00000  Uiso   1.00
H215   H     0.66222   0.60594   0.38993   0.00000  Uiso   1.00
H216   H     0.79322   0.64048   0.45190   0.00000  Uiso   1.00
H217   H     0.66936   0.47860   0.32682   0.00000  Uiso   1.00
H218   H     0.53614   0.71096   0.37964   0.00000  Uiso   1.00
H219   H     0.91946   0.65943   0.53858   0.00000  Uiso   1.00
H220   H     0.65826   0.31811   0.27482   0.00000  Uiso   1.00
H221   H     0.37734   0.80809   0.38621   0.00000  Uiso   1.00
O222   O     0.94029   0.61576   0.64113   0.00000  Uiso   1.00
O223   O     0.59758   0.16797   0.29509   0.00000  Uiso   1.00
O224   O     0.22902   0.81081   0.44123   0.00000  Uiso   1.00
N225   N     0.80556   0.55732   0.62075   0.00000  Uiso   1.00
N226   N     0.56136   0.23820   0.37415   0.00000  Uiso   1.00
N227   N     0.29871   0.69628   0.47828   0.00000  Uiso   1.00
N228   N     0.87306   0.62585   0.55694   0.00000  Uiso   1.00
N229   N     0.62886   0.30673   0.31035   0.00000  Uiso   1.00
N230   N     0.36621   0.76481   0.41448   0.00000  Uiso   1.00
C231   C     0.36206   0.99119   0.50570   0.00000  Uiso   1.00
C232   C     0.27478   0.02601   0.48729   0.00000  Uiso   1.00
C233   C     0.23887   0.01718   0.43618   0.00000  Uiso   1.00
C234   C     0.15835   0.05361   0.42736   0.00000  Uiso   1.00
C235   C     0.02934   0.10099   0.39256   0.00000  Uiso   1.00
C236   C     0.34260   0.93813   0.55509   0.00000  Uiso   1.00
C237   C     0.36373   0.85543   0.56100   0.00000  Uiso   1.00
C238   C     0.34031   0.81790   0.60926   0.00000  Uiso   1.00
C239   C     0.31665   0.72887   0.67975   0.00000  Uiso   1.00
C240   C     0.41457   0.06453   0.52627   0.00000  Uiso   1.00
C241   C     0.49623   0.08810   0.50795   0.00000  Uiso   1.00
C242   C     0.53342   0.15698   0.53196   0.00000  Uiso   1.00
C243   C     0.62150   0.26420   0.55769   0.00000  Uiso   1.00
C244   C     0.28292   0.07160   0.58092   0.00000  Uiso   1.00
C245   C     0.23179   0.06968   0.52814   0.00000  Uiso   1.00
C246   C     0.15130   0.10614   0.51940   0.00000  Uiso   1.00
C247   C     0.11529   0.09737   0.46829   0.00000  Uiso   1.00
C248   C     0.29961   0.98181   0.59595   0.00000  Uiso   1.00
C249   C     0.27616   0.94439   0.64421   0.00000  Uiso   1.00
C250   C     0.29725   0.86165   0.65019   0.00000  Uiso   1.00
C251   C     0.37158   0.10821   0.56712   0.00000  Uiso   1.00
C252   C     0.40866   0.17706   0.59117   0.00000  Uiso   1.00
C253   C     0.49035   0.20073   0.57288   0.00000  Uiso   1.00
H254   H     0.39553   0.95719   0.47390   0.00000  Uiso   1.00
H255   H     0.27216   0.98337   0.40458   0.00000  Uiso   1.00
H256   H     0.39700   0.82165   0.52938   0.00000  Uiso   1.00
H257   H     0.52948   0.05428   0.47634   0.00000  Uiso   1.00
H258   H     0.11640   0.03163   0.34575   0.00000  Uiso   1.00
H259   H     0.37967   0.69065   0.60890   0.00000  Uiso   1.00
H260   H     0.65902   0.18120   0.49705   0.00000  Uiso   1.00
H261   H     0.24945   0.10560   0.61273   0.00000  Uiso   1.00
H262   H     0.11805   0.13994   0.55102   0.00000  Uiso   1.00
H263   H     0.24290   0.97821   0.67582   0.00000  Uiso   1.00
H264   H     0.37537   0.21085   0.62278   0.00000  Uiso   1.00
H265   H     0.99132   0.15870   0.46461   0.00000  Uiso   1.00
H266   H     0.25460   0.81772   0.72776   0.00000  Uiso   1.00
H267   H     0.53394   0.30827   0.61591   0.00000  Uiso   1.00
O268   O     0.97005   0.11505   0.36209   0.00000  Uiso   1.00
O269   O     0.31547   0.66770   0.70734   0.00000  Uiso   1.00
O270   O     0.68196   0.31129   0.56059   0.00000  Uiso   1.00
N271   N     0.10500   0.05684   0.38219   0.00000  Uiso   1.00
N272   N     0.35114   0.73804   0.62821   0.00000  Uiso   1.00
N273   N     0.61231   0.19665   0.52366   0.00000  Uiso   1.00
N274   N     0.03770   0.12522   0.44614   0.00000  Uiso   1.00
N275   N     0.28383   0.80641   0.69217   0.00000  Uiso   1.00
N276   N     0.54501   0.26502   0.58761   0.00000  Uiso   1.00
C277   C     0.45072   0.50873   0.99670   0.00000  Uiso   1.00
C278   C     0.36360   0.47377   0.01529   0.00000  Uiso   1.00
C279   C     0.32795   0.48256   0.06647   0.00000  Uiso   1.00
C280   C     0.24755   0.44598   0.07546   0.00000  Uiso   1.00
C281   C     0.11882   0.39839   0.11053   0.00000  Uiso   1.00
C282   C     0.43089   0.56173   0.94733   0.00000  Uiso   1.00
C283   C     0.45183   0.64447   0.94137   0.00000  Uiso   1.00
C284   C     0.42808   0.68192   0.89314   0.00000  Uiso   1.00
C285   C     0.40387   0.77087   0.82269   0.00000  Uiso   1.00
C286   C     0.50327   0.43547   0.97604   0.00000  Uiso   1.00
C287   C     0.58507   0.41207   0.99420   0.00000  Uiso   1.00
C288   C     0.62227   0.34324   0.97014   0.00000  Uiso   1.00
C289   C     0.71044   0.23616   0.94425   0.00000  Uiso   1.00
C290   C     0.37135   0.42814   0.92166   0.00000  Uiso   1.00
C291   C     0.32049   0.43000   0.97454   0.00000  Uiso   1.00
C292   C     0.24013   0.39339   0.98345   0.00000  Uiso   1.00
C293   C     0.20436   0.40212   0.03463   0.00000  Uiso   1.00
C294   C     0.38778   0.51795   0.90658   0.00000  Uiso   1.00
C295   C     0.36400   0.55530   0.85835   0.00000  Uiso   1.00
C296   C     0.38489   0.63807   0.85231   0.00000  Uiso   1.00
C297   C     0.46016   0.39170   0.93528   0.00000  Uiso   1.00
C298   C     0.49724   0.32290   0.91118   0.00000  Uiso   1.00
C299   C     0.57908   0.29939   0.92930   0.00000  Uiso   1.00
H300   H     0.48429   0.54281   0.02843   0.00000  Uiso   1.00
H301   H     0.36133   0.51644   0.09800   0.00000  Uiso   1.00
H302   H     0.48520   0.67832   0.97291   0.00000  Uiso   1.00
H303   H     0.61842   0.44596   0.02574   0.00000  Uiso   1.00
H304   H     0.20598   0.46793   0.15716   0.00000  Uiso   1.00
H305   H     0.46718   0.80925   0.89340   0.00000  Uiso   1.00
H306   H     0.74811   0.31927   0.00479   0.00000  Uiso   1.00
H307   H     0.33778   0.39406   0.88993   0.00000  Uiso   1.00
H308   H     0.20678   0.35952   0.95190   0.00000  Uiso   1.00
H309   H     0.33064   0.52140   0.82682   0.00000  Uiso   1.00
H310   H     0.46386   0.28904   0.87964   0.00000  Uiso   1.00
H311   H     0.08054   0.34057   0.03858   0.00000  Uiso   1.00
H312   H     0.34174   0.68189   0.77482   0.00000  Uiso   1.00
H313   H     0.62266   0.19191   0.88621   0.00000  Uiso   1.00
O314   O     0.05971   0.38424   0.14113   0.00000  Uiso   1.00
O315   O     0.40242   0.83203   0.79509   0.00000  Uiso   1.00
O316   O     0.77098   0.18919   0.94123   0.00000  Uiso   1.00
N317   N     0.19444   0.44268   0.12075   0.00000  Uiso   1.00
N318   N     0.43864   0.76180   0.87415   0.00000  Uiso   1.00
N319   N     0.70129   0.30372   0.97828   0.00000  Uiso   1.00
N320   N     0.12694   0.37415   0.05694   0.00000  Uiso   1.00
N321   N     0.37114   0.69327   0.81035   0.00000  Uiso   1.00
N322   N     0.63379   0.23519   0.91448   0.00000  Uiso   1.00
C323   C     0.63794   0.00881   0.00570   0.00000  Uiso   1.00
C324   C     0.72522   0.97399   0.98729   0.00000  Uiso   1.00
C325   C     0.76113   0.98282   0.93618   0.00000  Uiso   1.00
C326   C     0.84165   0.94639   0.92736   0.00000  Uiso   1.00
C327   C     0.97066   0.89901   0.89256   0.00000  Uiso   1.00
C328   C     0.65740   0.06187   0.05509   0.00000  Uiso   1.00
C329   C     0.63627   0.14457   0.06100   0.00000  Uiso   1.00
C330   C     0.65969   0.18210   0.10926   0.00000  Uiso   1.00
C331   C     0.68335   0.27113   0.17975   0.00000  Uiso   1.00
C332   C     0.58543   0.93547   0.02627   0.00000  Uiso   1.00
C333   C     0.50377   0.91190   0.00795   0.00000  Uiso   1.00
C334   C     0.46658   0.84302   0.03196   0.00000  Uiso   1.00
C335   C     0.37850   0.73580   0.05769   0.00000  Uiso   1.00
C336   C     0.71708   0.92840   0.08092   0.00000  Uiso   1.00
C337   C     0.76821   0.93032   0.02814   0.00000  Uiso   1.00
C338   C     0.84870   0.89386   0.01940   0.00000  Uiso   1.00
C339   C     0.88471   0.90263   0.96829   0.00000  Uiso   1.00
C340   C     0.70039   0.01819   0.09595   0.00000  Uiso   1.00
C341   C     0.72384   0.05561   0.14421   0.00000  Uiso   1.00
C342   C     0.70275   0.13835   0.15019   0.00000  Uiso   1.00
C343   C     0.62842   0.89179   0.06712   0.00000  Uiso   1.00
C344   C     0.59134   0.82294   0.09117   0.00000  Uiso   1.00
C345   C     0.50965   0.79927   0.07288   0.00000  Uiso   1.00
H346   H     0.60447   0.04281   0.97390   0.00000  Uiso   1.00
H347   H     0.72784   0.01663   0.90458   0.00000  Uiso   1.00
H348   H     0.60300   0.17835   0.02938   0.00000  Uiso   1.00
H349   H     0.47052   0.94572   0.97634   0.00000  Uiso   1.00
H350   H     0.88360   0.96837   0.84575   0.00000  Uiso   1.00
H351   H     0.62033   0.30935   0.10890   0.00000  Uiso   1.00
H352   H     0.34098   0.81880   0.99705   0.00000  Uiso   1.00
H353   H     0.75055   0.89440   0.11273   0.00000  Uiso   1.00
H354   H     0.88195   0.86006   0.05102   0.00000  Uiso   1.00
H355   H     0.75710   0.02179   0.17582   0.00000  Uiso   1.00
H356   H     0.62463   0.78915   0.12278   0.00000  Uiso   1.00
H357   H     0.00868   0.84130   0.96461   0.00000  Uiso   1.00
H358   H     0.74540   0.18228   0.22776   0.00000  Uiso   1.00
H359   H     0.46606   0.69173   0.11591   0.00000  Uiso   1.00
O360   O     0.02995   0.88495   0.86209   0.00000  Uiso   1.00
O361   O     0.68453   0.33230   0.20734   0.00000  Uiso   1.00
O362   O     0.31804   0.68871   0.06059   0.00000  Uiso   1.00
N363   N     0.89500   0.94316   0.88219   0.00000  Uiso   1.00
N364   N     0.64886   0.26196   0.12821   0.00000  Uiso   1.00
N365   N     0.38769   0.80335   0.02366   0.00000  Uiso   1.00
N366   N     0.96230   0.87478   0.94614   0.00000  Uiso   1.00
N367   N     0.71617   0.19359   0.19217   0.00000  Uiso   1.00
N368   N     0.45499   0.73498   0.08761   0.00000  Uiso   1.00
