data_job_05577
_audit_creation_date              2018-12-19
_audit_creation_method            'Materials Studio'
_symmetry_space_group_name_H-M    'P1'
_symmetry_Int_Tables_number       1
_symmetry_cell_setting            triclinic
loop_
_symmetry_equiv_pos_as_xyz
  x,y,z
_cell_length_a                    22.3332
_cell_length_b                    22.3332
_cell_length_c                    11.4146
_cell_angle_alpha                 90.0000
_cell_angle_beta                  90.0000
_cell_angle_gamma                 90.0000
loop_
_atom_site_label
_atom_site_type_symbol
_atom_site_fract_x
_atom_site_fract_y
_atom_site_fract_z
_atom_site_U_iso_or_equiv
_atom_site_adp_type
_atom_site_occupancy
C1     C     0.85097   0.76262   0.35004   0.00000  Uiso   1.00
C2     C     0.90357   0.78891   0.41793   0.00000  Uiso   1.00
C3     C     0.90370   0.80305   0.53631   0.00000  Uiso   1.00
C4     C     0.95625   0.82669   0.58196   0.00000  Uiso   1.00
C5     C     0.03023   0.86615   0.69805   0.00000  Uiso   1.00
C6     C     0.83914   0.80558   0.24881   0.00000  Uiso   1.00
C7     C     0.78510   0.83373   0.22500   0.00000  Uiso   1.00
C8     C     0.78341   0.87139   0.12828   0.00000  Uiso   1.00
C9     C     0.75735   0.93670   0.98177   0.00000  Uiso   1.00
C10    C     0.87398   0.70490   0.29468   0.00000  Uiso   1.00
C11    C     0.84922   0.64840   0.30941   0.00000  Uiso   1.00
C12    C     0.87687   0.60130   0.25128   0.00000  Uiso   1.00
C13    C     0.90490   0.51029   0.17599   0.00000  Uiso   1.00
C14    C     0.94407   0.77943   0.22060   0.00000  Uiso   1.00
C15    C     0.95414   0.79804   0.34761   0.00000  Uiso   1.00
C16    C     0.00671   0.82166   0.39310   0.00000  Uiso   1.00
C17    C     0.00691   0.83584   0.51153   0.00000  Uiso   1.00
C18    C     0.88971   0.81471   0.17850   0.00000  Uiso   1.00
C19    C     0.88810   0.85234   0.08179   0.00000  Uiso   1.00
C20    C     0.83407   0.88054   0.05784   0.00000  Uiso   1.00
C21    C     0.92456   0.71403   0.22437   0.00000  Uiso   1.00
C22    C     0.95224   0.66701   0.16620   0.00000  Uiso   1.00
C23    C     0.92753   0.61045   0.18084   0.00000  Uiso   1.00
H24    H     0.81159   0.75551   0.40478   0.00000  Uiso   1.00
H25    H     0.86455   0.79598   0.59069   0.00000  Uiso   1.00
H26    H     0.74597   0.82665   0.27942   0.00000  Uiso   1.00
H27    H     0.81009   0.64135   0.36382   0.00000  Uiso   1.00
H28    H     0.94556   0.84491   0.76580   0.00000  Uiso   1.00
H29    H     0.69551   0.90955   0.10945   0.00000  Uiso   1.00
H30    H     0.83073   0.51881   0.28742   0.00000  Uiso   1.00
H31    H     0.98344   0.78655   0.16585   0.00000  Uiso   1.00
H32    H     0.04583   0.82872   0.33866   0.00000  Uiso   1.00
H33    H     0.92724   0.85939   0.02739   0.00000  Uiso   1.00
H34    H     0.99137   0.67409   0.11180   0.00000  Uiso   1.00
H35    H     0.09270   0.87148   0.56124   0.00000  Uiso   1.00
H36    H     0.84264   0.93613   0.90489   0.00000  Uiso   1.00
H37    H     0.97786   0.54539   0.08286   0.00000  Uiso   1.00
O38    O     0.05707   0.88540   0.78150   0.00000  Uiso   1.00
O39    O     0.72901   0.97020   0.92038   0.00000  Uiso   1.00
O40    O     0.90640   0.45756   0.15389   0.00000  Uiso   1.00
N41    N     0.97163   0.84536   0.69394   0.00000  Uiso   1.00
N42    N     0.73785   0.90581   0.08031   0.00000  Uiso   1.00
N43    N     0.86426   0.54050   0.24667   0.00000  Uiso   1.00
N44    N     0.05080   0.85966   0.58388   0.00000  Uiso   1.00
N45    N     0.81702   0.92011   0.97024   0.00000  Uiso   1.00
N46    N     0.94343   0.55480   0.13660   0.00000  Uiso   1.00
C47    C     0.35097   0.26262   0.85004   0.00000  Uiso   1.00
C48    C     0.40357   0.28891   0.91793   0.00000  Uiso   1.00
C49    C     0.40370   0.30305   0.03631   0.00000  Uiso   1.00
C50    C     0.45625   0.32669   0.08196   0.00000  Uiso   1.00
C51    C     0.53023   0.36615   0.19805   0.00000  Uiso   1.00
C52    C     0.33914   0.30558   0.74881   0.00000  Uiso   1.00
C53    C     0.28510   0.33373   0.72500   0.00000  Uiso   1.00
C54    C     0.28341   0.37139   0.62828   0.00000  Uiso   1.00
C55    C     0.25735   0.43670   0.48177   0.00000  Uiso   1.00
C56    C     0.37398   0.20490   0.79468   0.00000  Uiso   1.00
C57    C     0.34922   0.14840   0.80941   0.00000  Uiso   1.00
C58    C     0.37687   0.10130   0.75128   0.00000  Uiso   1.00
C59    C     0.40490   0.01029   0.67599   0.00000  Uiso   1.00
C60    C     0.44407   0.27943   0.72060   0.00000  Uiso   1.00
C61    C     0.45414   0.29804   0.84761   0.00000  Uiso   1.00
C62    C     0.50671   0.32166   0.89310   0.00000  Uiso   1.00
C63    C     0.50691   0.33584   0.01153   0.00000  Uiso   1.00
C64    C     0.38971   0.31471   0.67850   0.00000  Uiso   1.00
C65    C     0.38810   0.35234   0.58179   0.00000  Uiso   1.00
C66    C     0.33407   0.38054   0.55784   0.00000  Uiso   1.00
C67    C     0.42456   0.21403   0.72437   0.00000  Uiso   1.00
C68    C     0.45224   0.16701   0.66620   0.00000  Uiso   1.00
C69    C     0.42753   0.11045   0.68084   0.00000  Uiso   1.00
H70    H     0.31159   0.25551   0.90478   0.00000  Uiso   1.00
H71    H     0.36455   0.29598   0.09069   0.00000  Uiso   1.00
H72    H     0.24597   0.32665   0.77942   0.00000  Uiso   1.00
H73    H     0.31009   0.14135   0.86382   0.00000  Uiso   1.00
H74    H     0.44556   0.34491   0.26580   0.00000  Uiso   1.00
H75    H     0.19551   0.40955   0.60945   0.00000  Uiso   1.00
H76    H     0.33073   0.01881   0.78742   0.00000  Uiso   1.00
H77    H     0.48344   0.28655   0.66585   0.00000  Uiso   1.00
H78    H     0.54583   0.32872   0.83866   0.00000  Uiso   1.00
H79    H     0.42724   0.35939   0.52739   0.00000  Uiso   1.00
H80    H     0.49137   0.17409   0.61180   0.00000  Uiso   1.00
H81    H     0.59270   0.37148   0.06124   0.00000  Uiso   1.00
H82    H     0.34264   0.43613   0.40489   0.00000  Uiso   1.00
H83    H     0.47786   0.04539   0.58286   0.00000  Uiso   1.00
O84    O     0.55707   0.38540   0.28150   0.00000  Uiso   1.00
O85    O     0.22901   0.47020   0.42038   0.00000  Uiso   1.00
O86    O     0.40640   0.95756   0.65389   0.00000  Uiso   1.00
N87    N     0.47163   0.34536   0.19394   0.00000  Uiso   1.00
N88    N     0.23785   0.40581   0.58031   0.00000  Uiso   1.00
N89    N     0.36426   0.04050   0.74667   0.00000  Uiso   1.00
N90    N     0.55080   0.35966   0.08388   0.00000  Uiso   1.00
N91    N     0.31702   0.42011   0.47024   0.00000  Uiso   1.00
N92    N     0.44343   0.05480   0.63660   0.00000  Uiso   1.00
C93    C     0.14903   0.23738   0.35004   0.00000  Uiso   1.00
C94    C     0.09643   0.21109   0.41793   0.00000  Uiso   1.00
C95    C     0.09630   0.19695   0.53631   0.00000  Uiso   1.00
C96    C     0.04375   0.17331   0.58196   0.00000  Uiso   1.00
C97    C     0.96977   0.13385   0.69805   0.00000  Uiso   1.00
C98    C     0.16086   0.19442   0.24881   0.00000  Uiso   1.00
C99    C     0.21490   0.16627   0.22500   0.00000  Uiso   1.00
C100   C     0.21659   0.12861   0.12828   0.00000  Uiso   1.00
C101   C     0.24265   0.06330   0.98177   0.00000  Uiso   1.00
C102   C     0.12602   0.29510   0.29468   0.00000  Uiso   1.00
C103   C     0.15078   0.35160   0.30941   0.00000  Uiso   1.00
C104   C     0.12313   0.39870   0.25128   0.00000  Uiso   1.00
C105   C     0.09510   0.48971   0.17599   0.00000  Uiso   1.00
C106   C     0.05593   0.22057   0.22060   0.00000  Uiso   1.00
C107   C     0.04586   0.20196   0.34761   0.00000  Uiso   1.00
C108   C     0.99329   0.17834   0.39310   0.00000  Uiso   1.00
C109   C     0.99309   0.16416   0.51153   0.00000  Uiso   1.00
C110   C     0.11029   0.18529   0.17850   0.00000  Uiso   1.00
C111   C     0.11190   0.14766   0.08179   0.00000  Uiso   1.00
C112   C     0.16593   0.11946   0.05784   0.00000  Uiso   1.00
C113   C     0.07544   0.28597   0.22437   0.00000  Uiso   1.00
C114   C     0.04776   0.33299   0.16620   0.00000  Uiso   1.00
C115   C     0.07247   0.38955   0.18084   0.00000  Uiso   1.00
H116   H     0.18841   0.24449   0.40478   0.00000  Uiso   1.00
H117   H     0.13545   0.20402   0.59069   0.00000  Uiso   1.00
H118   H     0.25403   0.17335   0.27942   0.00000  Uiso   1.00
H119   H     0.18991   0.35865   0.36382   0.00000  Uiso   1.00
H120   H     0.05444   0.15509   0.76580   0.00000  Uiso   1.00
H121   H     0.30449   0.09045   0.10945   0.00000  Uiso   1.00
H122   H     0.16927   0.48119   0.28742   0.00000  Uiso   1.00
H123   H     0.01656   0.21345   0.16585   0.00000  Uiso   1.00
H124   H     0.95417   0.17128   0.33866   0.00000  Uiso   1.00
H125   H     0.07276   0.14061   0.02739   0.00000  Uiso   1.00
H126   H     0.00863   0.32591   0.11180   0.00000  Uiso   1.00
H127   H     0.90730   0.12852   0.56124   0.00000  Uiso   1.00
H128   H     0.15736   0.06387   0.90489   0.00000  Uiso   1.00
H129   H     0.02214   0.45461   0.08286   0.00000  Uiso   1.00
O130   O     0.94293   0.11460   0.78150   0.00000  Uiso   1.00
O131   O     0.27099   0.02980   0.92038   0.00000  Uiso   1.00
O132   O     0.09360   0.54244   0.15389   0.00000  Uiso   1.00
N133   N     0.02837   0.15464   0.69394   0.00000  Uiso   1.00
N134   N     0.26215   0.09419   0.08031   0.00000  Uiso   1.00
N135   N     0.13574   0.45950   0.24667   0.00000  Uiso   1.00
N136   N     0.94920   0.14034   0.58388   0.00000  Uiso   1.00
N137   N     0.18298   0.07989   0.97024   0.00000  Uiso   1.00
N138   N     0.05657   0.44520   0.13660   0.00000  Uiso   1.00
C139   C     0.64903   0.73738   0.85004   0.00000  Uiso   1.00
C140   C     0.59643   0.71109   0.91793   0.00000  Uiso   1.00
C141   C     0.59630   0.69695   0.03631   0.00000  Uiso   1.00
C142   C     0.54375   0.67331   0.08196   0.00000  Uiso   1.00
C143   C     0.46977   0.63385   0.19805   0.00000  Uiso   1.00
C144   C     0.66086   0.69442   0.74881   0.00000  Uiso   1.00
C145   C     0.71490   0.66627   0.72500   0.00000  Uiso   1.00
C146   C     0.71659   0.62861   0.62828   0.00000  Uiso   1.00
C147   C     0.74265   0.56330   0.48177   0.00000  Uiso   1.00
C148   C     0.62602   0.79510   0.79468   0.00000  Uiso   1.00
C149   C     0.65078   0.85160   0.80941   0.00000  Uiso   1.00
C150   C     0.62313   0.89870   0.75128   0.00000  Uiso   1.00
C151   C     0.59510   0.98971   0.67599   0.00000  Uiso   1.00
C152   C     0.55593   0.72057   0.72060   0.00000  Uiso   1.00
C153   C     0.54586   0.70196   0.84761   0.00000  Uiso   1.00
C154   C     0.49329   0.67834   0.89310   0.00000  Uiso   1.00
C155   C     0.49309   0.66416   0.01153   0.00000  Uiso   1.00
C156   C     0.61029   0.68529   0.67850   0.00000  Uiso   1.00
C157   C     0.61190   0.64766   0.58179   0.00000  Uiso   1.00
C158   C     0.66593   0.61946   0.55784   0.00000  Uiso   1.00
C159   C     0.57544   0.78597   0.72437   0.00000  Uiso   1.00
C160   C     0.54776   0.83299   0.66620   0.00000  Uiso   1.00
C161   C     0.57247   0.88955   0.68084   0.00000  Uiso   1.00
H162   H     0.68841   0.74449   0.90478   0.00000  Uiso   1.00
H163   H     0.63545   0.70402   0.09069   0.00000  Uiso   1.00
H164   H     0.75403   0.67335   0.77942   0.00000  Uiso   1.00
H165   H     0.68991   0.85865   0.86382   0.00000  Uiso   1.00
H166   H     0.55444   0.65509   0.26580   0.00000  Uiso   1.00
H167   H     0.80449   0.59045   0.60945   0.00000  Uiso   1.00
H168   H     0.66927   0.98119   0.78742   0.00000  Uiso   1.00
H169   H     0.51656   0.71345   0.66585   0.00000  Uiso   1.00
H170   H     0.45417   0.67128   0.83866   0.00000  Uiso   1.00
H171   H     0.57276   0.64061   0.52739   0.00000  Uiso   1.00
H172   H     0.50863   0.82591   0.61180   0.00000  Uiso   1.00
H173   H     0.40730   0.62852   0.06124   0.00000  Uiso   1.00
H174   H     0.65736   0.56387   0.40489   0.00000  Uiso   1.00
H175   H     0.52214   0.95461   0.58286   0.00000  Uiso   1.00
O176   O     0.44293   0.61460   0.28150   0.00000  Uiso   1.00
O177   O     0.77099   0.52980   0.42038   0.00000  Uiso   1.00
O178   O     0.59360   0.04244   0.65389   0.00000  Uiso   1.00
N179   N     0.52837   0.65464   0.19394   0.00000  Uiso   1.00
N180   N     0.76215   0.59419   0.58031   0.00000  Uiso   1.00
N181   N     0.63574   0.95950   0.74667   0.00000  Uiso   1.00
N182   N     0.44920   0.64034   0.08388   0.00000  Uiso   1.00
N183   N     0.68298   0.57989   0.47024   0.00000  Uiso   1.00
N184   N     0.55657   0.94520   0.63660   0.00000  Uiso   1.00
C185   C     0.23738   0.85097   0.35004   0.00000  Uiso   1.00
C186   C     0.21109   0.90357   0.41793   0.00000  Uiso   1.00
C187   C     0.19695   0.90370   0.53631   0.00000  Uiso   1.00
C188   C     0.17331   0.95625   0.58196   0.00000  Uiso   1.00
C189   C     0.13385   0.03023   0.69805   0.00000  Uiso   1.00
C190   C     0.19442   0.83914   0.24881   0.00000  Uiso   1.00
C191   C     0.16627   0.78510   0.22500   0.00000  Uiso   1.00
C192   C     0.12861   0.78341   0.12828   0.00000  Uiso   1.00
C193   C     0.06330   0.75735   0.98177   0.00000  Uiso   1.00
C194   C     0.29510   0.87398   0.29468   0.00000  Uiso   1.00
C195   C     0.35160   0.84922   0.30941   0.00000  Uiso   1.00
C196   C     0.39870   0.87687   0.25128   0.00000  Uiso   1.00
C197   C     0.48971   0.90490   0.17599   0.00000  Uiso   1.00
C198   C     0.22057   0.94407   0.22060   0.00000  Uiso   1.00
C199   C     0.20196   0.95414   0.34761   0.00000  Uiso   1.00
C200   C     0.17834   0.00671   0.39310   0.00000  Uiso   1.00
C201   C     0.16416   0.00691   0.51153   0.00000  Uiso   1.00
C202   C     0.18529   0.88971   0.17850   0.00000  Uiso   1.00
C203   C     0.14766   0.88810   0.08179   0.00000  Uiso   1.00
C204   C     0.11946   0.83407   0.05784   0.00000  Uiso   1.00
C205   C     0.28597   0.92456   0.22437   0.00000  Uiso   1.00
C206   C     0.33299   0.95224   0.16620   0.00000  Uiso   1.00
C207   C     0.38955   0.92753   0.18084   0.00000  Uiso   1.00
H208   H     0.24449   0.81159   0.40478   0.00000  Uiso   1.00
H209   H     0.20402   0.86455   0.59069   0.00000  Uiso   1.00
H210   H     0.17335   0.74597   0.27942   0.00000  Uiso   1.00
H211   H     0.35865   0.81009   0.36382   0.00000  Uiso   1.00
H212   H     0.15509   0.94556   0.76580   0.00000  Uiso   1.00
H213   H     0.09045   0.69551   0.10945   0.00000  Uiso   1.00
H214   H     0.48119   0.83073   0.28742   0.00000  Uiso   1.00
H215   H     0.21345   0.98344   0.16585   0.00000  Uiso   1.00
H216   H     0.17128   0.04583   0.33866   0.00000  Uiso   1.00
H217   H     0.14061   0.92724   0.02739   0.00000  Uiso   1.00
H218   H     0.32591   0.99137   0.11180   0.00000  Uiso   1.00
H219   H     0.12852   0.09270   0.56124   0.00000  Uiso   1.00
H220   H     0.06387   0.84264   0.90489   0.00000  Uiso   1.00
H221   H     0.45461   0.97786   0.08286   0.00000  Uiso   1.00
O222   O     0.11460   0.05707   0.78150   0.00000  Uiso   1.00
O223   O     0.02980   0.72901   0.92038   0.00000  Uiso   1.00
O224   O     0.54244   0.90640   0.15389   0.00000  Uiso   1.00
N225   N     0.15464   0.97163   0.69394   0.00000  Uiso   1.00
N226   N     0.09419   0.73785   0.08031   0.00000  Uiso   1.00
N227   N     0.45950   0.86426   0.24667   0.00000  Uiso   1.00
N228   N     0.14034   0.05080   0.58388   0.00000  Uiso   1.00
N229   N     0.07989   0.81702   0.97024   0.00000  Uiso   1.00
N230   N     0.44520   0.94343   0.13660   0.00000  Uiso   1.00
C231   C     0.73738   0.35097   0.85004   0.00000  Uiso   1.00
C232   C     0.71109   0.40357   0.91793   0.00000  Uiso   1.00
C233   C     0.69695   0.40370   0.03631   0.00000  Uiso   1.00
C234   C     0.67331   0.45625   0.08196   0.00000  Uiso   1.00
C235   C     0.63385   0.53023   0.19805   0.00000  Uiso   1.00
C236   C     0.69442   0.33914   0.74881   0.00000  Uiso   1.00
C237   C     0.66627   0.28510   0.72500   0.00000  Uiso   1.00
C238   C     0.62861   0.28341   0.62828   0.00000  Uiso   1.00
C239   C     0.56330   0.25735   0.48177   0.00000  Uiso   1.00
C240   C     0.79510   0.37398   0.79468   0.00000  Uiso   1.00
C241   C     0.85160   0.34922   0.80941   0.00000  Uiso   1.00
C242   C     0.89870   0.37687   0.75128   0.00000  Uiso   1.00
C243   C     0.98971   0.40490   0.67599   0.00000  Uiso   1.00
C244   C     0.72057   0.44407   0.72060   0.00000  Uiso   1.00
C245   C     0.70196   0.45414   0.84761   0.00000  Uiso   1.00
C246   C     0.67834   0.50671   0.89310   0.00000  Uiso   1.00
C247   C     0.66416   0.50691   0.01153   0.00000  Uiso   1.00
C248   C     0.68529   0.38971   0.67850   0.00000  Uiso   1.00
C249   C     0.64766   0.38810   0.58179   0.00000  Uiso   1.00
C250   C     0.61946   0.33407   0.55784   0.00000  Uiso   1.00
C251   C     0.78597   0.42456   0.72437   0.00000  Uiso   1.00
C252   C     0.83299   0.45224   0.66620   0.00000  Uiso   1.00
C253   C     0.88955   0.42753   0.68084   0.00000  Uiso   1.00
H254   H     0.74449   0.31159   0.90478   0.00000  Uiso   1.00
H255   H     0.70402   0.36455   0.09069   0.00000  Uiso   1.00
H256   H     0.67335   0.24597   0.77942   0.00000  Uiso   1.00
H257   H     0.85865   0.31009   0.86382   0.00000  Uiso   1.00
H258   H     0.65509   0.44556   0.26580   0.00000  Uiso   1.00
H259   H     0.59045   0.19551   0.60945   0.00000  Uiso   1.00
H260   H     0.98119   0.33073   0.78742   0.00000  Uiso   1.00
H261   H     0.71345   0.48344   0.66585   0.00000  Uiso   1.00
H262   H     0.67128   0.54583   0.83866   0.00000  Uiso   1.00
H263   H     0.64061   0.42724   0.52739   0.00000  Uiso   1.00
H264   H     0.82591   0.49137   0.61180   0.00000  Uiso   1.00
H265   H     0.62852   0.59270   0.06124   0.00000  Uiso   1.00
H266   H     0.56387   0.34264   0.40489   0.00000  Uiso   1.00
H267   H     0.95461   0.47786   0.58286   0.00000  Uiso   1.00
O268   O     0.61460   0.55707   0.28150   0.00000  Uiso   1.00
O269   O     0.52980   0.22901   0.42038   0.00000  Uiso   1.00
O270   O     0.04244   0.40640   0.65389   0.00000  Uiso   1.00
N271   N     0.65464   0.47163   0.19394   0.00000  Uiso   1.00
N272   N     0.59419   0.23785   0.58031   0.00000  Uiso   1.00
N273   N     0.95950   0.36426   0.74667   0.00000  Uiso   1.00
N274   N     0.64034   0.55080   0.08388   0.00000  Uiso   1.00
N275   N     0.57989   0.31702   0.47024   0.00000  Uiso   1.00
N276   N     0.94520   0.44343   0.63660   0.00000  Uiso   1.00
C277   C     0.76262   0.14903   0.35004   0.00000  Uiso   1.00
C278   C     0.78891   0.09643   0.41793   0.00000  Uiso   1.00
C279   C     0.80305   0.09630   0.53631   0.00000  Uiso   1.00
C280   C     0.82669   0.04375   0.58196   0.00000  Uiso   1.00
C281   C     0.86615   0.96977   0.69805   0.00000  Uiso   1.00
C282   C     0.80558   0.16086   0.24881   0.00000  Uiso   1.00
C283   C     0.83373   0.21490   0.22500   0.00000  Uiso   1.00
C284   C     0.87139   0.21659   0.12828   0.00000  Uiso   1.00
C285   C     0.93670   0.24265   0.98177   0.00000  Uiso   1.00
C286   C     0.70490   0.12602   0.29468   0.00000  Uiso   1.00
C287   C     0.64840   0.15078   0.30941   0.00000  Uiso   1.00
C288   C     0.60130   0.12313   0.25128   0.00000  Uiso   1.00
C289   C     0.51029   0.09510   0.17599   0.00000  Uiso   1.00
C290   C     0.77943   0.05593   0.22060   0.00000  Uiso   1.00
C291   C     0.79804   0.04586   0.34761   0.00000  Uiso   1.00
C292   C     0.82166   0.99329   0.39310   0.00000  Uiso   1.00
C293   C     0.83584   0.99309   0.51153   0.00000  Uiso   1.00
C294   C     0.81471   0.11029   0.17850   0.00000  Uiso   1.00
C295   C     0.85234   0.11190   0.08179   0.00000  Uiso   1.00
C296   C     0.88054   0.16593   0.05784   0.00000  Uiso   1.00
C297   C     0.71403   0.07544   0.22437   0.00000  Uiso   1.00
C298   C     0.66701   0.04776   0.16620   0.00000  Uiso   1.00
C299   C     0.61045   0.07247   0.18084   0.00000  Uiso   1.00
H300   H     0.75551   0.18841   0.40478   0.00000  Uiso   1.00
H301   H     0.79598   0.13545   0.59069   0.00000  Uiso   1.00
H302   H     0.82665   0.25403   0.27942   0.00000  Uiso   1.00
H303   H     0.64135   0.18991   0.36382   0.00000  Uiso   1.00
H304   H     0.84491   0.05444   0.76580   0.00000  Uiso   1.00
H305   H     0.90955   0.30449   0.10945   0.00000  Uiso   1.00
H306   H     0.51881   0.16927   0.28742   0.00000  Uiso   1.00
H307   H     0.78655   0.01656   0.16585   0.00000  Uiso   1.00
H308   H     0.82872   0.95417   0.33866   0.00000  Uiso   1.00
H309   H     0.85939   0.07276   0.02739   0.00000  Uiso   1.00
H310   H     0.67409   0.00863   0.11180   0.00000  Uiso   1.00
H311   H     0.87148   0.90730   0.56124   0.00000  Uiso   1.00
H312   H     0.93613   0.15736   0.90489   0.00000  Uiso   1.00
H313   H     0.54539   0.02214   0.08286   0.00000  Uiso   1.00
O314   O     0.88540   0.94293   0.78150   0.00000  Uiso   1.00
O315   O     0.97020   0.27099   0.92038   0.00000  Uiso   1.00
O316   O     0.45756   0.09360   0.15389   0.00000  Uiso   1.00
N317   N     0.84536   0.02837   0.69394   0.00000  Uiso   1.00
N318   N     0.90581   0.26215   0.08031   0.00000  Uiso   1.00
N319   N     0.54050   0.13574   0.24667   0.00000  Uiso   1.00
N320   N     0.85966   0.94920   0.58388   0.00000  Uiso   1.00
N321   N     0.92011   0.18298   0.97024   0.00000  Uiso   1.00
N322   N     0.55480   0.05657   0.13660   0.00000  Uiso   1.00
C323   C     0.26262   0.64903   0.85004   0.00000  Uiso   1.00
C324   C     0.28891   0.59643   0.91793   0.00000  Uiso   1.00
C325   C     0.30305   0.59630   0.03631   0.00000  Uiso   1.00
C326   C     0.32669   0.54375   0.08196   0.00000  Uiso   1.00
C327   C     0.36615   0.46977   0.19805   0.00000  Uiso   1.00
C328   C     0.30558   0.66086   0.74881   0.00000  Uiso   1.00
C329   C     0.33373   0.71490   0.72500   0.00000  Uiso   1.00
C330   C     0.37139   0.71659   0.62828   0.00000  Uiso   1.00
C331   C     0.43670   0.74265   0.48177   0.00000  Uiso   1.00
C332   C     0.20490   0.62602   0.79468   0.00000  Uiso   1.00
C333   C     0.14840   0.65078   0.80941   0.00000  Uiso   1.00
C334   C     0.10130   0.62313   0.75128   0.00000  Uiso   1.00
C335   C     0.01029   0.59510   0.67599   0.00000  Uiso   1.00
C336   C     0.27943   0.55593   0.72060   0.00000  Uiso   1.00
C337   C     0.29804   0.54586   0.84761   0.00000  Uiso   1.00
C338   C     0.32166   0.49329   0.89310   0.00000  Uiso   1.00
C339   C     0.33584   0.49309   0.01153   0.00000  Uiso   1.00
C340   C     0.31471   0.61029   0.67850   0.00000  Uiso   1.00
C341   C     0.35234   0.61190   0.58179   0.00000  Uiso   1.00
C342   C     0.38054   0.66593   0.55784   0.00000  Uiso   1.00
C343   C     0.21403   0.57544   0.72437   0.00000  Uiso   1.00
C344   C     0.16701   0.54776   0.66620   0.00000  Uiso   1.00
C345   C     0.11045   0.57247   0.68084   0.00000  Uiso   1.00
H346   H     0.25551   0.68841   0.90478   0.00000  Uiso   1.00
H347   H     0.29598   0.63545   0.09069   0.00000  Uiso   1.00
H348   H     0.32665   0.75403   0.77942   0.00000  Uiso   1.00
H349   H     0.14135   0.68991   0.86382   0.00000  Uiso   1.00
H350   H     0.34491   0.55444   0.26580   0.00000  Uiso   1.00
H351   H     0.40955   0.80449   0.60945   0.00000  Uiso   1.00
H352   H     0.01881   0.66927   0.78742   0.00000  Uiso   1.00
H353   H     0.28655   0.51656   0.66585   0.00000  Uiso   1.00
H354   H     0.32872   0.45417   0.83866   0.00000  Uiso   1.00
H355   H     0.35939   0.57276   0.52739   0.00000  Uiso   1.00
H356   H     0.17409   0.50863   0.61180   0.00000  Uiso   1.00
H357   H     0.37148   0.40730   0.06124   0.00000  Uiso   1.00
H358   H     0.43613   0.65736   0.40489   0.00000  Uiso   1.00
H359   H     0.04539   0.52214   0.58286   0.00000  Uiso   1.00
O360   O     0.38540   0.44293   0.28150   0.00000  Uiso   1.00
O361   O     0.47020   0.77099   0.42038   0.00000  Uiso   1.00
O362   O     0.95756   0.59360   0.65389   0.00000  Uiso   1.00
N363   N     0.34536   0.52837   0.19394   0.00000  Uiso   1.00
N364   N     0.40581   0.76215   0.58031   0.00000  Uiso   1.00
N365   N     0.04050   0.63574   0.74667   0.00000  Uiso   1.00
N366   N     0.35966   0.44920   0.08388   0.00000  Uiso   1.00
N367   N     0.42011   0.68298   0.47024   0.00000  Uiso   1.00
N368   N     0.05480   0.55657   0.63660   0.00000  Uiso   1.00
