data_job_02204
_audit_creation_date              2018-12-19
_audit_creation_method            'Materials Studio'
_symmetry_space_group_name_H-M    'P1'
_symmetry_Int_Tables_number       1
_symmetry_cell_setting            triclinic
loop_
_symmetry_equiv_pos_as_xyz
  x,y,z
_cell_length_a                    29.0428
_cell_length_b                    10.0823
_cell_length_c                    22.9813
_cell_angle_alpha                 90.0000
_cell_angle_beta                  154.9940
_cell_angle_gamma                 90.0000
loop_
_atom_site_label
_atom_site_type_symbol
_atom_site_fract_x
_atom_site_fract_y
_atom_site_fract_z
_atom_site_U_iso_or_equiv
_atom_site_adp_type
_atom_site_occupancy
C1     C     0.81948   0.17760   0.47530   0.00000  Uiso   1.00
C2     C     0.82367   0.02648   0.47846   0.00000  Uiso   1.00
C3     C     0.91247   0.95064   0.56314   0.00000  Uiso   1.00
C4     C     0.90001   0.81382   0.55041   0.00000  Uiso   1.00
C5     C     0.92138   0.58811   0.56958   0.00000  Uiso   1.00
C6     C     0.72297   0.21758   0.32685   0.00000  Uiso   1.00
C7     C     0.72710   0.30243   0.28408   0.00000  Uiso   1.00
C8     C     0.62986   0.32648   0.14372   0.00000  Uiso   1.00
C9     C     0.49488   0.39754   0.92754   0.00000  Uiso   1.00
C10    C     0.78841   0.21463   0.50187   0.00000  Uiso   1.00
C11    C     0.84754   0.29704   0.60623   0.00000  Uiso   1.00
C12    C     0.80539   0.31864   0.61320   0.00000  Uiso   1.00
C13    C     0.77201   0.38511   0.66876   0.00000  Uiso   1.00
C14    C     0.63945   0.06947   0.30209   0.00000  Uiso   1.00
C15    C     0.72588   0.96776   0.38437   0.00000  Uiso   1.00
C16    C     0.71329   0.83101   0.37151   0.00000  Uiso   1.00
C17    C     0.80205   0.75498   0.45617   0.00000  Uiso   1.00
C18    C     0.62519   0.15885   0.23277   0.00000  Uiso   1.00
C19    C     0.52792   0.18280   0.09245   0.00000  Uiso   1.00
C20    C     0.53190   0.26765   0.04947   0.00000  Uiso   1.00
C21    C     0.69063   0.15590   0.40779   0.00000  Uiso   1.00
C22    C     0.64836   0.17740   0.41460   0.00000  Uiso   1.00
C23    C     0.70742   0.25980   0.51895   0.00000  Uiso   1.00
H24    H     0.89560   0.22332   0.54853   0.00000  Uiso   1.00
H25    H     0.98812   0.99613   0.63593   0.00000  Uiso   1.00
H26    H     0.80278   0.34787   0.35691   0.00000  Uiso   1.00
H27    H     0.92321   0.34246   0.67901   0.00000  Uiso   1.00
H28    H     0.04757   0.71834   0.69129   0.00000  Uiso   1.00
H29    H     0.65676   0.46004   0.10298   0.00000  Uiso   1.00
H30    H     0.91070   0.44865   0.78219   0.00000  Uiso   1.00
H31    H     0.56331   0.02375   0.22884   0.00000  Uiso   1.00
H32    H     0.63761   0.78559   0.29870   0.00000  Uiso   1.00
H33    H     0.45227   0.13734   0.01968   0.00000  Uiso   1.00
H34    H     0.57269   0.13193   0.34178   0.00000  Uiso   1.00
H35    H     0.76307   0.54746   0.41758   0.00000  Uiso   1.00
H36    H     0.37226   0.28917   0.82926   0.00000  Uiso   1.00
H37    H     0.62621   0.27777   0.50848   0.00000  Uiso   1.00
O38    O     0.96018   0.47984   0.60613   0.00000  Uiso   1.00
O39    O     0.44745   0.45294   0.83428   0.00000  Uiso   1.00
O40    O     0.78062   0.43799   0.72540   0.00000  Uiso   1.00
N41    N     0.97042   0.71081   0.61731   0.00000  Uiso   1.00
N42    N     0.60504   0.40424   0.06726   0.00000  Uiso   1.00
N43    N     0.84244   0.39362   0.70225   0.00000  Uiso   1.00
N44    N     0.81734   0.61886   0.47003   0.00000  Uiso   1.00
N45    N     0.45196   0.31229   0.91998   0.00000  Uiso   1.00
N46    N     0.68936   0.30167   0.55497   0.00000  Uiso   1.00
C47    C     0.18052   0.17760   0.02470   0.00000  Uiso   1.00
C48    C     0.17633   0.02648   0.02154   0.00000  Uiso   1.00
C49    C     0.08753   0.95064   0.93686   0.00000  Uiso   1.00
C50    C     0.09999   0.81382   0.94959   0.00000  Uiso   1.00
C51    C     0.07862   0.58811   0.93042   0.00000  Uiso   1.00
C52    C     0.27703   0.21758   0.17315   0.00000  Uiso   1.00
C53    C     0.27290   0.30243   0.21592   0.00000  Uiso   1.00
C54    C     0.37014   0.32648   0.35628   0.00000  Uiso   1.00
C55    C     0.50512   0.39754   0.57246   0.00000  Uiso   1.00
C56    C     0.21159   0.21463   0.99813   0.00000  Uiso   1.00
C57    C     0.15246   0.29704   0.89377   0.00000  Uiso   1.00
C58    C     0.19461   0.31864   0.88680   0.00000  Uiso   1.00
C59    C     0.22799   0.38511   0.83124   0.00000  Uiso   1.00
C60    C     0.36055   0.06947   0.19791   0.00000  Uiso   1.00
C61    C     0.27412   0.96776   0.11563   0.00000  Uiso   1.00
C62    C     0.28671   0.83101   0.12849   0.00000  Uiso   1.00
C63    C     0.19795   0.75498   0.04383   0.00000  Uiso   1.00
C64    C     0.37481   0.15885   0.26723   0.00000  Uiso   1.00
C65    C     0.47208   0.18280   0.40755   0.00000  Uiso   1.00
C66    C     0.46810   0.26765   0.45053   0.00000  Uiso   1.00
C67    C     0.30937   0.15590   0.09221   0.00000  Uiso   1.00
C68    C     0.35164   0.17740   0.08540   0.00000  Uiso   1.00
C69    C     0.29258   0.25980   0.98105   0.00000  Uiso   1.00
H70    H     0.10440   0.22332   0.95147   0.00000  Uiso   1.00
H71    H     0.01188   0.99613   0.86407   0.00000  Uiso   1.00
H72    H     0.19722   0.34787   0.14309   0.00000  Uiso   1.00
H73    H     0.07679   0.34246   0.82099   0.00000  Uiso   1.00
H74    H     0.95243   0.71834   0.80871   0.00000  Uiso   1.00
H75    H     0.34324   0.46004   0.39702   0.00000  Uiso   1.00
H76    H     0.08930   0.44865   0.71781   0.00000  Uiso   1.00
H77    H     0.43669   0.02375   0.27116   0.00000  Uiso   1.00
H78    H     0.36239   0.78559   0.20130   0.00000  Uiso   1.00
H79    H     0.54773   0.13734   0.48032   0.00000  Uiso   1.00
H80    H     0.42731   0.13193   0.15822   0.00000  Uiso   1.00
H81    H     0.23693   0.54746   0.08242   0.00000  Uiso   1.00
H82    H     0.62774   0.28917   0.67074   0.00000  Uiso   1.00
H83    H     0.37379   0.27777   0.99152   0.00000  Uiso   1.00
O84    O     0.03982   0.47984   0.89387   0.00000  Uiso   1.00
O85    O     0.55255   0.45294   0.66572   0.00000  Uiso   1.00
O86    O     0.21938   0.43799   0.77460   0.00000  Uiso   1.00
N87    N     0.02958   0.71081   0.88269   0.00000  Uiso   1.00
N88    N     0.39496   0.40424   0.43274   0.00000  Uiso   1.00
N89    N     0.15756   0.39362   0.79775   0.00000  Uiso   1.00
N90    N     0.18266   0.61886   0.02997   0.00000  Uiso   1.00
N91    N     0.54804   0.31229   0.58002   0.00000  Uiso   1.00
N92    N     0.31064   0.30167   0.94503   0.00000  Uiso   1.00
C93    C     0.18052   0.82240   0.52470   0.00000  Uiso   1.00
C94    C     0.17633   0.97352   0.52154   0.00000  Uiso   1.00
C95    C     0.08753   0.04936   0.43686   0.00000  Uiso   1.00
C96    C     0.09999   0.18618   0.44959   0.00000  Uiso   1.00
C97    C     0.07862   0.41189   0.43042   0.00000  Uiso   1.00
C98    C     0.27703   0.78242   0.67315   0.00000  Uiso   1.00
C99    C     0.27290   0.69757   0.71592   0.00000  Uiso   1.00
C100   C     0.37014   0.67352   0.85628   0.00000  Uiso   1.00
C101   C     0.50512   0.60246   0.07246   0.00000  Uiso   1.00
C102   C     0.21159   0.78537   0.49813   0.00000  Uiso   1.00
C103   C     0.15246   0.70296   0.39377   0.00000  Uiso   1.00
C104   C     0.19461   0.68136   0.38680   0.00000  Uiso   1.00
C105   C     0.22799   0.61489   0.33124   0.00000  Uiso   1.00
C106   C     0.36055   0.93053   0.69791   0.00000  Uiso   1.00
C107   C     0.27412   0.03224   0.61563   0.00000  Uiso   1.00
C108   C     0.28671   0.16899   0.62849   0.00000  Uiso   1.00
C109   C     0.19795   0.24502   0.54383   0.00000  Uiso   1.00
C110   C     0.37481   0.84115   0.76723   0.00000  Uiso   1.00
C111   C     0.47208   0.81720   0.90755   0.00000  Uiso   1.00
C112   C     0.46810   0.73235   0.95053   0.00000  Uiso   1.00
C113   C     0.30937   0.84410   0.59221   0.00000  Uiso   1.00
C114   C     0.35164   0.82260   0.58540   0.00000  Uiso   1.00
C115   C     0.29258   0.74020   0.48105   0.00000  Uiso   1.00
H116   H     0.10440   0.77668   0.45147   0.00000  Uiso   1.00
H117   H     0.01188   0.00387   0.36407   0.00000  Uiso   1.00
H118   H     0.19722   0.65213   0.64309   0.00000  Uiso   1.00
H119   H     0.07679   0.65754   0.32099   0.00000  Uiso   1.00
H120   H     0.95243   0.28166   0.30871   0.00000  Uiso   1.00
H121   H     0.34324   0.53996   0.89702   0.00000  Uiso   1.00
H122   H     0.08930   0.55135   0.21781   0.00000  Uiso   1.00
H123   H     0.43669   0.97625   0.77116   0.00000  Uiso   1.00
H124   H     0.36239   0.21441   0.70130   0.00000  Uiso   1.00
H125   H     0.54773   0.86266   0.98032   0.00000  Uiso   1.00
H126   H     0.42731   0.86807   0.65822   0.00000  Uiso   1.00
H127   H     0.23693   0.45254   0.58242   0.00000  Uiso   1.00
H128   H     0.62774   0.71083   0.17074   0.00000  Uiso   1.00
H129   H     0.37379   0.72223   0.49152   0.00000  Uiso   1.00
O130   O     0.03982   0.52016   0.39387   0.00000  Uiso   1.00
O131   O     0.55255   0.54706   0.16572   0.00000  Uiso   1.00
O132   O     0.21938   0.56201   0.27460   0.00000  Uiso   1.00
N133   N     0.02958   0.28919   0.38269   0.00000  Uiso   1.00
N134   N     0.39496   0.59576   0.93274   0.00000  Uiso   1.00
N135   N     0.15756   0.60638   0.29775   0.00000  Uiso   1.00
N136   N     0.18266   0.38114   0.52997   0.00000  Uiso   1.00
N137   N     0.54804   0.68771   0.08002   0.00000  Uiso   1.00
N138   N     0.31064   0.69833   0.44503   0.00000  Uiso   1.00
C139   C     0.81948   0.82240   0.97530   0.00000  Uiso   1.00
C140   C     0.82367   0.97352   0.97846   0.00000  Uiso   1.00
C141   C     0.91247   0.04936   0.06314   0.00000  Uiso   1.00
C142   C     0.90001   0.18618   0.05041   0.00000  Uiso   1.00
C143   C     0.92138   0.41189   0.06958   0.00000  Uiso   1.00
C144   C     0.72297   0.78242   0.82685   0.00000  Uiso   1.00
C145   C     0.72710   0.69757   0.78408   0.00000  Uiso   1.00
C146   C     0.62986   0.67352   0.64372   0.00000  Uiso   1.00
C147   C     0.49488   0.60246   0.42754   0.00000  Uiso   1.00
C148   C     0.78841   0.78537   0.00187   0.00000  Uiso   1.00
C149   C     0.84754   0.70296   0.10623   0.00000  Uiso   1.00
C150   C     0.80539   0.68136   0.11320   0.00000  Uiso   1.00
C151   C     0.77201   0.61489   0.16876   0.00000  Uiso   1.00
C152   C     0.63945   0.93053   0.80209   0.00000  Uiso   1.00
C153   C     0.72588   0.03224   0.88437   0.00000  Uiso   1.00
C154   C     0.71329   0.16899   0.87151   0.00000  Uiso   1.00
C155   C     0.80205   0.24502   0.95617   0.00000  Uiso   1.00
C156   C     0.62519   0.84115   0.73277   0.00000  Uiso   1.00
C157   C     0.52792   0.81720   0.59245   0.00000  Uiso   1.00
C158   C     0.53190   0.73235   0.54947   0.00000  Uiso   1.00
C159   C     0.69063   0.84410   0.90779   0.00000  Uiso   1.00
C160   C     0.64836   0.82260   0.91460   0.00000  Uiso   1.00
C161   C     0.70742   0.74020   0.01895   0.00000  Uiso   1.00
H162   H     0.89560   0.77668   0.04853   0.00000  Uiso   1.00
H163   H     0.98812   0.00387   0.13593   0.00000  Uiso   1.00
H164   H     0.80278   0.65213   0.85691   0.00000  Uiso   1.00
H165   H     0.92321   0.65754   0.17901   0.00000  Uiso   1.00
H166   H     0.04757   0.28166   0.19129   0.00000  Uiso   1.00
H167   H     0.65676   0.53996   0.60298   0.00000  Uiso   1.00
H168   H     0.91070   0.55135   0.28219   0.00000  Uiso   1.00
H169   H     0.56331   0.97625   0.72884   0.00000  Uiso   1.00
H170   H     0.63761   0.21441   0.79870   0.00000  Uiso   1.00
H171   H     0.45227   0.86266   0.51968   0.00000  Uiso   1.00
H172   H     0.57269   0.86807   0.84178   0.00000  Uiso   1.00
H173   H     0.76307   0.45254   0.91758   0.00000  Uiso   1.00
H174   H     0.37226   0.71083   0.32926   0.00000  Uiso   1.00
H175   H     0.62621   0.72223   0.00848   0.00000  Uiso   1.00
O176   O     0.96018   0.52016   0.10613   0.00000  Uiso   1.00
O177   O     0.44745   0.54706   0.33428   0.00000  Uiso   1.00
O178   O     0.78062   0.56201   0.22540   0.00000  Uiso   1.00
N179   N     0.97042   0.28919   0.11731   0.00000  Uiso   1.00
N180   N     0.60504   0.59576   0.56726   0.00000  Uiso   1.00
N181   N     0.84244   0.60638   0.20225   0.00000  Uiso   1.00
N182   N     0.81734   0.38114   0.97003   0.00000  Uiso   1.00
N183   N     0.45196   0.68771   0.41998   0.00000  Uiso   1.00
N184   N     0.68936   0.69833   0.05497   0.00000  Uiso   1.00
