data_job_00854
_audit_creation_date              2018-12-19
_audit_creation_method            'Materials Studio'
_symmetry_space_group_name_H-M    'P1'
_symmetry_Int_Tables_number       1
_symmetry_cell_setting            triclinic
loop_
_symmetry_equiv_pos_as_xyz
  x,y,z
_cell_length_a                    9.5912
_cell_length_b                    32.4613
_cell_length_c                    15.9683
_cell_angle_alpha                 90.0000
_cell_angle_beta                  90.0000
_cell_angle_gamma                 90.0000
loop_
_atom_site_label
_atom_site_type_symbol
_atom_site_fract_x
_atom_site_fract_y
_atom_site_fract_z
_atom_site_U_iso_or_equiv
_atom_site_adp_type
_atom_site_occupancy
C1     C     0.14427   0.60284   0.04635   0.00000  Uiso   1.00
C2     C     0.15627   0.64477   0.08880   0.00000  Uiso   1.00
C3     C     0.27139   0.65913   0.13261   0.00000  Uiso   1.00
C4     C     0.26179   0.69835   0.16684   0.00000  Uiso   1.00
C5     C     0.29872   0.75980   0.23422   0.00000  Uiso   1.00
C6     C     0.01529   0.58239   0.08363   0.00000  Uiso   1.00
C7     C     0.01188   0.54430   0.12307   0.00000  Uiso   1.00
C8     C     0.88360   0.53100   0.15294   0.00000  Uiso   1.00
C9     C     0.70164   0.49560   0.21222   0.00000  Uiso   1.00
C10    C     0.10927   0.61158   0.95491   0.00000  Uiso   1.00
C11    C     0.18485   0.59802   0.88611   0.00000  Uiso   1.00
C12    C     0.13568   0.60929   0.80760   0.00000  Uiso   1.00
C13    C     0.09963   0.61920   0.66702   0.00000  Uiso   1.00
C14    C     0.92250   0.64694   0.02925   0.00000  Uiso   1.00
C15    C     0.03580   0.66872   0.07952   0.00000  Uiso   1.00
C16    C     0.02603   0.70792   0.11370   0.00000  Uiso   1.00
C17    C     0.14112   0.72234   0.15754   0.00000  Uiso   1.00
C18    C     0.89483   0.60634   0.07435   0.00000  Uiso   1.00
C19    C     0.76652   0.59309   0.10416   0.00000  Uiso   1.00
C20    C     0.76292   0.55500   0.14364   0.00000  Uiso   1.00
C21    C     0.98881   0.63553   0.94562   0.00000  Uiso   1.00
C22    C     0.93950   0.64681   0.86720   0.00000  Uiso   1.00
C23    C     0.01500   0.63328   0.79830   0.00000  Uiso   1.00
H24    H     0.23804   0.58419   0.05358   0.00000  Uiso   1.00
H25    H     0.36458   0.64059   0.13978   0.00000  Uiso   1.00
H26    H     0.10511   0.52578   0.13023   0.00000  Uiso   1.00
H27    H     0.27806   0.57949   0.89332   0.00000  Uiso   1.00
H28    H     0.45174   0.71367   0.23129   0.00000  Uiso   1.00
H29    H     0.90462   0.47158   0.21113   0.00000  Uiso   1.00
H30    H     0.26932   0.58484   0.71154   0.00000  Uiso   1.00
H31    H     0.82871   0.66558   0.02203   0.00000  Uiso   1.00
H32    H     0.93280   0.72645   0.10650   0.00000  Uiso   1.00
H33    H     0.67333   0.61163   0.09696   0.00000  Uiso   1.00
H34    H     0.84628   0.66535   0.86004   0.00000  Uiso   1.00
H35    H     0.10129   0.78336   0.20429   0.00000  Uiso   1.00
H36    H     0.55417   0.54126   0.18413   0.00000  Uiso   1.00
H37    H     0.91887   0.65452   0.68454   0.00000  Uiso   1.00
O38    O     0.35236   0.78708   0.27395   0.00000  Uiso   1.00
O39    O     0.63455   0.46946   0.24749   0.00000  Uiso   1.00
O40    O     0.11304   0.61806   0.59204   0.00000  Uiso   1.00
N41    N     0.35499   0.72172   0.21333   0.00000  Uiso   1.00
N42    N     0.84347   0.49538   0.19449   0.00000  Uiso   1.00
N43    N     0.18441   0.60126   0.72742   0.00000  Uiso   1.00
N44    N     0.16641   0.75922   0.19879   0.00000  Uiso   1.00
N45    N     0.65489   0.53288   0.17996   0.00000  Uiso   1.00
N46    N     0.99584   0.63876   0.71288   0.00000  Uiso   1.00
C47    C     0.35573   0.39716   0.54635   0.00000  Uiso   1.00
C48    C     0.34373   0.35523   0.58880   0.00000  Uiso   1.00
C49    C     0.22861   0.34087   0.63261   0.00000  Uiso   1.00
C50    C     0.23821   0.30165   0.66684   0.00000  Uiso   1.00
C51    C     0.20128   0.24020   0.73422   0.00000  Uiso   1.00
C52    C     0.48471   0.41761   0.58363   0.00000  Uiso   1.00
C53    C     0.48812   0.45570   0.62307   0.00000  Uiso   1.00
C54    C     0.61640   0.46900   0.65294   0.00000  Uiso   1.00
C55    C     0.79836   0.50440   0.71222   0.00000  Uiso   1.00
C56    C     0.39073   0.38842   0.45491   0.00000  Uiso   1.00
C57    C     0.31515   0.40198   0.38611   0.00000  Uiso   1.00
C58    C     0.36432   0.39071   0.30760   0.00000  Uiso   1.00
C59    C     0.40037   0.38080   0.16702   0.00000  Uiso   1.00
C60    C     0.57750   0.35306   0.52925   0.00000  Uiso   1.00
C61    C     0.46420   0.33128   0.57952   0.00000  Uiso   1.00
C62    C     0.47397   0.29208   0.61370   0.00000  Uiso   1.00
C63    C     0.35888   0.27766   0.65754   0.00000  Uiso   1.00
C64    C     0.60517   0.39366   0.57435   0.00000  Uiso   1.00
C65    C     0.73348   0.40691   0.60416   0.00000  Uiso   1.00
C66    C     0.73708   0.44500   0.64364   0.00000  Uiso   1.00
C67    C     0.51119   0.36447   0.44562   0.00000  Uiso   1.00
C68    C     0.56050   0.35319   0.36720   0.00000  Uiso   1.00
C69    C     0.48500   0.36672   0.29830   0.00000  Uiso   1.00
H70    H     0.26196   0.41581   0.55358   0.00000  Uiso   1.00
H71    H     0.13542   0.35941   0.63978   0.00000  Uiso   1.00
H72    H     0.39489   0.47422   0.63023   0.00000  Uiso   1.00
H73    H     0.22194   0.42051   0.39332   0.00000  Uiso   1.00
H74    H     0.04826   0.28633   0.73129   0.00000  Uiso   1.00
H75    H     0.59538   0.52842   0.71113   0.00000  Uiso   1.00
H76    H     0.23068   0.41516   0.21154   0.00000  Uiso   1.00
H77    H     0.67129   0.33442   0.52203   0.00000  Uiso   1.00
H78    H     0.56720   0.27355   0.60650   0.00000  Uiso   1.00
H79    H     0.82667   0.38837   0.59696   0.00000  Uiso   1.00
H80    H     0.65372   0.33465   0.36004   0.00000  Uiso   1.00
H81    H     0.39871   0.21664   0.70429   0.00000  Uiso   1.00
H82    H     0.94583   0.45874   0.68413   0.00000  Uiso   1.00
H83    H     0.58113   0.34548   0.18454   0.00000  Uiso   1.00
O84    O     0.14764   0.21292   0.77395   0.00000  Uiso   1.00
O85    O     0.86545   0.53054   0.74749   0.00000  Uiso   1.00
O86    O     0.38696   0.38194   0.09204   0.00000  Uiso   1.00
N87    N     0.14501   0.27828   0.71333   0.00000  Uiso   1.00
N88    N     0.65653   0.50462   0.69449   0.00000  Uiso   1.00
N89    N     0.31559   0.39874   0.22742   0.00000  Uiso   1.00
N90    N     0.33359   0.24078   0.69879   0.00000  Uiso   1.00
N91    N     0.84511   0.46712   0.67996   0.00000  Uiso   1.00
N92    N     0.50416   0.36124   0.21288   0.00000  Uiso   1.00
C93    C     0.85573   0.10284   0.45365   0.00000  Uiso   1.00
C94    C     0.84373   0.14477   0.41120   0.00000  Uiso   1.00
C95    C     0.72861   0.15913   0.36739   0.00000  Uiso   1.00
C96    C     0.73821   0.19835   0.33316   0.00000  Uiso   1.00
C97    C     0.70128   0.25980   0.26578   0.00000  Uiso   1.00
C98    C     0.98471   0.08239   0.41637   0.00000  Uiso   1.00
C99    C     0.98812   0.04430   0.37693   0.00000  Uiso   1.00
C100   C     0.11640   0.03100   0.34706   0.00000  Uiso   1.00
C101   C     0.29836   0.99560   0.28778   0.00000  Uiso   1.00
C102   C     0.89073   0.11158   0.54509   0.00000  Uiso   1.00
C103   C     0.81515   0.09802   0.61389   0.00000  Uiso   1.00
C104   C     0.86432   0.10929   0.69240   0.00000  Uiso   1.00
C105   C     0.90037   0.11920   0.83298   0.00000  Uiso   1.00
C106   C     0.07750   0.14694   0.47075   0.00000  Uiso   1.00
C107   C     0.96420   0.16872   0.42048   0.00000  Uiso   1.00
C108   C     0.97397   0.20792   0.38630   0.00000  Uiso   1.00
C109   C     0.85888   0.22234   0.34246   0.00000  Uiso   1.00
C110   C     0.10517   0.10634   0.42565   0.00000  Uiso   1.00
C111   C     0.23348   0.09309   0.39584   0.00000  Uiso   1.00
C112   C     0.23708   0.05500   0.35636   0.00000  Uiso   1.00
C113   C     0.01119   0.13553   0.55438   0.00000  Uiso   1.00
C114   C     0.06050   0.14681   0.63280   0.00000  Uiso   1.00
C115   C     0.98500   0.13328   0.70170   0.00000  Uiso   1.00
H116   H     0.76196   0.08419   0.44642   0.00000  Uiso   1.00
H117   H     0.63542   0.14059   0.36022   0.00000  Uiso   1.00
H118   H     0.89489   0.02578   0.36977   0.00000  Uiso   1.00
H119   H     0.72194   0.07949   0.60668   0.00000  Uiso   1.00
H120   H     0.54826   0.21367   0.26871   0.00000  Uiso   1.00
H121   H     0.09538   0.97158   0.28887   0.00000  Uiso   1.00
H122   H     0.73068   0.08484   0.78846   0.00000  Uiso   1.00
H123   H     0.17129   0.16558   0.47797   0.00000  Uiso   1.00
H124   H     0.06720   0.22645   0.39350   0.00000  Uiso   1.00
H125   H     0.32667   0.11163   0.40304   0.00000  Uiso   1.00
H126   H     0.15372   0.16535   0.63996   0.00000  Uiso   1.00
H127   H     0.89871   0.28336   0.29571   0.00000  Uiso   1.00
H128   H     0.44583   0.04126   0.31587   0.00000  Uiso   1.00
H129   H     0.08113   0.15452   0.81546   0.00000  Uiso   1.00
O130   O     0.64764   0.28708   0.22605   0.00000  Uiso   1.00
O131   O     0.36545   0.96946   0.25251   0.00000  Uiso   1.00
O132   O     0.88696   0.11806   0.90796   0.00000  Uiso   1.00
N133   N     0.64501   0.22172   0.28667   0.00000  Uiso   1.00
N134   N     0.15653   0.99538   0.30551   0.00000  Uiso   1.00
N135   N     0.81559   0.10126   0.77258   0.00000  Uiso   1.00
N136   N     0.83359   0.25922   0.30121   0.00000  Uiso   1.00
N137   N     0.34511   0.03288   0.32004   0.00000  Uiso   1.00
N138   N     0.00416   0.13876   0.78712   0.00000  Uiso   1.00
C139   C     0.64427   0.89716   0.95365   0.00000  Uiso   1.00
C140   C     0.65627   0.85523   0.91120   0.00000  Uiso   1.00
C141   C     0.77139   0.84087   0.86739   0.00000  Uiso   1.00
C142   C     0.76179   0.80165   0.83316   0.00000  Uiso   1.00
C143   C     0.79872   0.74020   0.76578   0.00000  Uiso   1.00
C144   C     0.51529   0.91761   0.91637   0.00000  Uiso   1.00
C145   C     0.51188   0.95570   0.87693   0.00000  Uiso   1.00
C146   C     0.38360   0.96900   0.84706   0.00000  Uiso   1.00
C147   C     0.20164   0.00440   0.78778   0.00000  Uiso   1.00
C148   C     0.60927   0.88842   0.04509   0.00000  Uiso   1.00
C149   C     0.68485   0.90198   0.11389   0.00000  Uiso   1.00
C150   C     0.63568   0.89071   0.19240   0.00000  Uiso   1.00
C151   C     0.59963   0.88080   0.33298   0.00000  Uiso   1.00
C152   C     0.42250   0.85306   0.97075   0.00000  Uiso   1.00
C153   C     0.53580   0.83128   0.92048   0.00000  Uiso   1.00
C154   C     0.52603   0.79208   0.88630   0.00000  Uiso   1.00
C155   C     0.64112   0.77766   0.84246   0.00000  Uiso   1.00
C156   C     0.39483   0.89366   0.92565   0.00000  Uiso   1.00
C157   C     0.26652   0.90691   0.89584   0.00000  Uiso   1.00
C158   C     0.26292   0.94500   0.85636   0.00000  Uiso   1.00
C159   C     0.48881   0.86447   0.05438   0.00000  Uiso   1.00
C160   C     0.43950   0.85319   0.13280   0.00000  Uiso   1.00
C161   C     0.51500   0.86672   0.20170   0.00000  Uiso   1.00
H162   H     0.73804   0.91581   0.94642   0.00000  Uiso   1.00
H163   H     0.86458   0.85941   0.86022   0.00000  Uiso   1.00
H164   H     0.60511   0.97422   0.86977   0.00000  Uiso   1.00
H165   H     0.77806   0.92051   0.10668   0.00000  Uiso   1.00
H166   H     0.95174   0.78633   0.76871   0.00000  Uiso   1.00
H167   H     0.40462   0.02842   0.78887   0.00000  Uiso   1.00
H168   H     0.76932   0.91516   0.28846   0.00000  Uiso   1.00
H169   H     0.32871   0.83442   0.97797   0.00000  Uiso   1.00
H170   H     0.43280   0.77355   0.89350   0.00000  Uiso   1.00
H171   H     0.17333   0.88837   0.90304   0.00000  Uiso   1.00
H172   H     0.34628   0.83465   0.13996   0.00000  Uiso   1.00
H173   H     0.60129   0.71664   0.79571   0.00000  Uiso   1.00
H174   H     0.05417   0.95874   0.81587   0.00000  Uiso   1.00
H175   H     0.41887   0.84548   0.31546   0.00000  Uiso   1.00
O176   O     0.85236   0.71292   0.72605   0.00000  Uiso   1.00
O177   O     0.13455   0.03054   0.75251   0.00000  Uiso   1.00
O178   O     0.61304   0.88194   0.40796   0.00000  Uiso   1.00
N179   N     0.85499   0.77828   0.78667   0.00000  Uiso   1.00
N180   N     0.34347   0.00462   0.80551   0.00000  Uiso   1.00
N181   N     0.68441   0.89874   0.27258   0.00000  Uiso   1.00
N182   N     0.66641   0.74078   0.80121   0.00000  Uiso   1.00
N183   N     0.15489   0.96712   0.82004   0.00000  Uiso   1.00
N184   N     0.49584   0.86124   0.28712   0.00000  Uiso   1.00
C185   C     0.85573   0.39716   0.95365   0.00000  Uiso   1.00
C186   C     0.84373   0.35523   0.91120   0.00000  Uiso   1.00
C187   C     0.72861   0.34087   0.86739   0.00000  Uiso   1.00
C188   C     0.73821   0.30165   0.83316   0.00000  Uiso   1.00
C189   C     0.70128   0.24020   0.76578   0.00000  Uiso   1.00
C190   C     0.98471   0.41761   0.91637   0.00000  Uiso   1.00
C191   C     0.98812   0.45570   0.87693   0.00000  Uiso   1.00
C192   C     0.11640   0.46900   0.84706   0.00000  Uiso   1.00
C193   C     0.29836   0.50440   0.78778   0.00000  Uiso   1.00
C194   C     0.89073   0.38842   0.04509   0.00000  Uiso   1.00
C195   C     0.81515   0.40198   0.11389   0.00000  Uiso   1.00
C196   C     0.86432   0.39071   0.19240   0.00000  Uiso   1.00
C197   C     0.90037   0.38080   0.33298   0.00000  Uiso   1.00
C198   C     0.07750   0.35306   0.97075   0.00000  Uiso   1.00
C199   C     0.96420   0.33128   0.92048   0.00000  Uiso   1.00
C200   C     0.97397   0.29208   0.88630   0.00000  Uiso   1.00
C201   C     0.85888   0.27766   0.84246   0.00000  Uiso   1.00
C202   C     0.10517   0.39366   0.92565   0.00000  Uiso   1.00
C203   C     0.23348   0.40691   0.89584   0.00000  Uiso   1.00
C204   C     0.23708   0.44500   0.85636   0.00000  Uiso   1.00
C205   C     0.01119   0.36447   0.05438   0.00000  Uiso   1.00
C206   C     0.06050   0.35319   0.13280   0.00000  Uiso   1.00
C207   C     0.98500   0.36672   0.20170   0.00000  Uiso   1.00
H208   H     0.76196   0.41581   0.94642   0.00000  Uiso   1.00
H209   H     0.63542   0.35941   0.86022   0.00000  Uiso   1.00
H210   H     0.89489   0.47422   0.86977   0.00000  Uiso   1.00
H211   H     0.72194   0.42051   0.10668   0.00000  Uiso   1.00
H212   H     0.54826   0.28633   0.76871   0.00000  Uiso   1.00
H213   H     0.09538   0.52842   0.78887   0.00000  Uiso   1.00
H214   H     0.73068   0.41516   0.28846   0.00000  Uiso   1.00
H215   H     0.17129   0.33442   0.97797   0.00000  Uiso   1.00
H216   H     0.06720   0.27355   0.89350   0.00000  Uiso   1.00
H217   H     0.32667   0.38837   0.90304   0.00000  Uiso   1.00
H218   H     0.15372   0.33465   0.13996   0.00000  Uiso   1.00
H219   H     0.89871   0.21664   0.79571   0.00000  Uiso   1.00
H220   H     0.44583   0.45874   0.81587   0.00000  Uiso   1.00
H221   H     0.08113   0.34548   0.31546   0.00000  Uiso   1.00
O222   O     0.64764   0.21292   0.72605   0.00000  Uiso   1.00
O223   O     0.36545   0.53054   0.75251   0.00000  Uiso   1.00
O224   O     0.88696   0.38194   0.40796   0.00000  Uiso   1.00
N225   N     0.64501   0.27828   0.78667   0.00000  Uiso   1.00
N226   N     0.15653   0.50462   0.80551   0.00000  Uiso   1.00
N227   N     0.81559   0.39874   0.27258   0.00000  Uiso   1.00
N228   N     0.83359   0.24078   0.80121   0.00000  Uiso   1.00
N229   N     0.34511   0.46712   0.82004   0.00000  Uiso   1.00
N230   N     0.00416   0.36124   0.28712   0.00000  Uiso   1.00
C231   C     0.64427   0.60284   0.45365   0.00000  Uiso   1.00
C232   C     0.65627   0.64477   0.41120   0.00000  Uiso   1.00
C233   C     0.77139   0.65913   0.36739   0.00000  Uiso   1.00
C234   C     0.76179   0.69835   0.33316   0.00000  Uiso   1.00
C235   C     0.79872   0.75980   0.26578   0.00000  Uiso   1.00
C236   C     0.51529   0.58239   0.41637   0.00000  Uiso   1.00
C237   C     0.51188   0.54430   0.37693   0.00000  Uiso   1.00
C238   C     0.38360   0.53100   0.34706   0.00000  Uiso   1.00
C239   C     0.20164   0.49560   0.28778   0.00000  Uiso   1.00
C240   C     0.60927   0.61158   0.54509   0.00000  Uiso   1.00
C241   C     0.68485   0.59802   0.61389   0.00000  Uiso   1.00
C242   C     0.63568   0.60929   0.69240   0.00000  Uiso   1.00
C243   C     0.59963   0.61920   0.83298   0.00000  Uiso   1.00
C244   C     0.42250   0.64694   0.47075   0.00000  Uiso   1.00
C245   C     0.53580   0.66872   0.42048   0.00000  Uiso   1.00
C246   C     0.52603   0.70792   0.38630   0.00000  Uiso   1.00
C247   C     0.64112   0.72234   0.34246   0.00000  Uiso   1.00
C248   C     0.39483   0.60634   0.42565   0.00000  Uiso   1.00
C249   C     0.26652   0.59309   0.39584   0.00000  Uiso   1.00
C250   C     0.26292   0.55500   0.35636   0.00000  Uiso   1.00
C251   C     0.48881   0.63553   0.55438   0.00000  Uiso   1.00
C252   C     0.43950   0.64681   0.63280   0.00000  Uiso   1.00
C253   C     0.51500   0.63328   0.70170   0.00000  Uiso   1.00
H254   H     0.73804   0.58419   0.44642   0.00000  Uiso   1.00
H255   H     0.86458   0.64059   0.36022   0.00000  Uiso   1.00
H256   H     0.60511   0.52578   0.36977   0.00000  Uiso   1.00
H257   H     0.77806   0.57949   0.60668   0.00000  Uiso   1.00
H258   H     0.95174   0.71367   0.26871   0.00000  Uiso   1.00
H259   H     0.40462   0.47158   0.28887   0.00000  Uiso   1.00
H260   H     0.76932   0.58484   0.78846   0.00000  Uiso   1.00
H261   H     0.32871   0.66558   0.47797   0.00000  Uiso   1.00
H262   H     0.43280   0.72645   0.39350   0.00000  Uiso   1.00
H263   H     0.17333   0.61163   0.40304   0.00000  Uiso   1.00
H264   H     0.34628   0.66535   0.63996   0.00000  Uiso   1.00
H265   H     0.60129   0.78336   0.29571   0.00000  Uiso   1.00
H266   H     0.05417   0.54126   0.31587   0.00000  Uiso   1.00
H267   H     0.41887   0.65452   0.81546   0.00000  Uiso   1.00
O268   O     0.85236   0.78708   0.22605   0.00000  Uiso   1.00
O269   O     0.13455   0.46946   0.25251   0.00000  Uiso   1.00
O270   O     0.61304   0.61806   0.90796   0.00000  Uiso   1.00
N271   N     0.85499   0.72172   0.28667   0.00000  Uiso   1.00
N272   N     0.34347   0.49538   0.30551   0.00000  Uiso   1.00
N273   N     0.68441   0.60126   0.77258   0.00000  Uiso   1.00
N274   N     0.66641   0.75922   0.30121   0.00000  Uiso   1.00
N275   N     0.15489   0.53288   0.32004   0.00000  Uiso   1.00
N276   N     0.49584   0.63876   0.78712   0.00000  Uiso   1.00
C277   C     0.14427   0.89716   0.54635   0.00000  Uiso   1.00
C278   C     0.15627   0.85523   0.58880   0.00000  Uiso   1.00
C279   C     0.27139   0.84087   0.63261   0.00000  Uiso   1.00
C280   C     0.26179   0.80165   0.66684   0.00000  Uiso   1.00
C281   C     0.29872   0.74020   0.73422   0.00000  Uiso   1.00
C282   C     0.01529   0.91761   0.58363   0.00000  Uiso   1.00
C283   C     0.01188   0.95570   0.62307   0.00000  Uiso   1.00
C284   C     0.88360   0.96900   0.65294   0.00000  Uiso   1.00
C285   C     0.70164   0.00440   0.71222   0.00000  Uiso   1.00
C286   C     0.10927   0.88842   0.45491   0.00000  Uiso   1.00
C287   C     0.18485   0.90198   0.38611   0.00000  Uiso   1.00
C288   C     0.13568   0.89071   0.30760   0.00000  Uiso   1.00
C289   C     0.09963   0.88080   0.16702   0.00000  Uiso   1.00
C290   C     0.92250   0.85306   0.52925   0.00000  Uiso   1.00
C291   C     0.03580   0.83128   0.57952   0.00000  Uiso   1.00
C292   C     0.02603   0.79208   0.61370   0.00000  Uiso   1.00
C293   C     0.14112   0.77766   0.65754   0.00000  Uiso   1.00
C294   C     0.89483   0.89366   0.57435   0.00000  Uiso   1.00
C295   C     0.76652   0.90691   0.60416   0.00000  Uiso   1.00
C296   C     0.76292   0.94500   0.64364   0.00000  Uiso   1.00
C297   C     0.98881   0.86447   0.44562   0.00000  Uiso   1.00
C298   C     0.93950   0.85319   0.36720   0.00000  Uiso   1.00
C299   C     0.01500   0.86672   0.29830   0.00000  Uiso   1.00
H300   H     0.23804   0.91581   0.55358   0.00000  Uiso   1.00
H301   H     0.36458   0.85941   0.63978   0.00000  Uiso   1.00
H302   H     0.10511   0.97422   0.63023   0.00000  Uiso   1.00
H303   H     0.27806   0.92051   0.39332   0.00000  Uiso   1.00
H304   H     0.45174   0.78633   0.73129   0.00000  Uiso   1.00
H305   H     0.90462   0.02842   0.71113   0.00000  Uiso   1.00
H306   H     0.26932   0.91516   0.21154   0.00000  Uiso   1.00
H307   H     0.82871   0.83442   0.52203   0.00000  Uiso   1.00
H308   H     0.93280   0.77355   0.60650   0.00000  Uiso   1.00
H309   H     0.67333   0.88837   0.59696   0.00000  Uiso   1.00
H310   H     0.84628   0.83465   0.36004   0.00000  Uiso   1.00
H311   H     0.10129   0.71664   0.70429   0.00000  Uiso   1.00
H312   H     0.55417   0.95874   0.68413   0.00000  Uiso   1.00
H313   H     0.91887   0.84548   0.18454   0.00000  Uiso   1.00
O314   O     0.35236   0.71292   0.77395   0.00000  Uiso   1.00
O315   O     0.63455   0.03054   0.74749   0.00000  Uiso   1.00
O316   O     0.11304   0.88194   0.09204   0.00000  Uiso   1.00
N317   N     0.35499   0.77828   0.71333   0.00000  Uiso   1.00
N318   N     0.84347   0.00462   0.69449   0.00000  Uiso   1.00
N319   N     0.18441   0.89874   0.22742   0.00000  Uiso   1.00
N320   N     0.16641   0.74078   0.69879   0.00000  Uiso   1.00
N321   N     0.65489   0.96712   0.67996   0.00000  Uiso   1.00
N322   N     0.99584   0.86124   0.21288   0.00000  Uiso   1.00
C323   C     0.35573   0.10284   0.04635   0.00000  Uiso   1.00
C324   C     0.34373   0.14477   0.08880   0.00000  Uiso   1.00
C325   C     0.22861   0.15913   0.13261   0.00000  Uiso   1.00
C326   C     0.23821   0.19835   0.16684   0.00000  Uiso   1.00
C327   C     0.20128   0.25980   0.23422   0.00000  Uiso   1.00
C328   C     0.48471   0.08239   0.08363   0.00000  Uiso   1.00
C329   C     0.48812   0.04430   0.12307   0.00000  Uiso   1.00
C330   C     0.61640   0.03100   0.15294   0.00000  Uiso   1.00
C331   C     0.79836   0.99560   0.21222   0.00000  Uiso   1.00
C332   C     0.39073   0.11158   0.95491   0.00000  Uiso   1.00
C333   C     0.31515   0.09802   0.88611   0.00000  Uiso   1.00
C334   C     0.36432   0.10929   0.80760   0.00000  Uiso   1.00
C335   C     0.40037   0.11920   0.66702   0.00000  Uiso   1.00
C336   C     0.57750   0.14694   0.02925   0.00000  Uiso   1.00
C337   C     0.46420   0.16872   0.07952   0.00000  Uiso   1.00
C338   C     0.47397   0.20792   0.11370   0.00000  Uiso   1.00
C339   C     0.35888   0.22234   0.15754   0.00000  Uiso   1.00
C340   C     0.60517   0.10634   0.07435   0.00000  Uiso   1.00
C341   C     0.73348   0.09309   0.10416   0.00000  Uiso   1.00
C342   C     0.73708   0.05500   0.14364   0.00000  Uiso   1.00
C343   C     0.51119   0.13553   0.94562   0.00000  Uiso   1.00
C344   C     0.56050   0.14681   0.86720   0.00000  Uiso   1.00
C345   C     0.48500   0.13328   0.79830   0.00000  Uiso   1.00
H346   H     0.26196   0.08419   0.05358   0.00000  Uiso   1.00
H347   H     0.13542   0.14059   0.13978   0.00000  Uiso   1.00
H348   H     0.39489   0.02578   0.13023   0.00000  Uiso   1.00
H349   H     0.22194   0.07949   0.89332   0.00000  Uiso   1.00
H350   H     0.04826   0.21367   0.23129   0.00000  Uiso   1.00
H351   H     0.59538   0.97158   0.21113   0.00000  Uiso   1.00
H352   H     0.23068   0.08484   0.71154   0.00000  Uiso   1.00
H353   H     0.67129   0.16558   0.02203   0.00000  Uiso   1.00
H354   H     0.56720   0.22645   0.10650   0.00000  Uiso   1.00
H355   H     0.82667   0.11163   0.09696   0.00000  Uiso   1.00
H356   H     0.65372   0.16535   0.86004   0.00000  Uiso   1.00
H357   H     0.39871   0.28336   0.20429   0.00000  Uiso   1.00
H358   H     0.94583   0.04126   0.18413   0.00000  Uiso   1.00
H359   H     0.58113   0.15452   0.68454   0.00000  Uiso   1.00
O360   O     0.14764   0.28708   0.27395   0.00000  Uiso   1.00
O361   O     0.86545   0.96946   0.24749   0.00000  Uiso   1.00
O362   O     0.38696   0.11806   0.59204   0.00000  Uiso   1.00
N363   N     0.14501   0.22172   0.21333   0.00000  Uiso   1.00
N364   N     0.65653   0.99538   0.19449   0.00000  Uiso   1.00
N365   N     0.31559   0.10126   0.72742   0.00000  Uiso   1.00
N366   N     0.33359   0.25922   0.19879   0.00000  Uiso   1.00
N367   N     0.84511   0.03288   0.17996   0.00000  Uiso   1.00
N368   N     0.50416   0.13876   0.71288   0.00000  Uiso   1.00
