data_job_01979
_audit_creation_date              2018-12-19
_audit_creation_method            'Materials Studio'
_symmetry_space_group_name_H-M    'P1'
_symmetry_Int_Tables_number       1
_symmetry_cell_setting            triclinic
loop_
_symmetry_equiv_pos_as_xyz
  x,y,z
_cell_length_a                    36.2004
_cell_length_b                    6.9954
_cell_length_c                    24.1388
_cell_angle_alpha                 90.0000
_cell_angle_beta                  37.9410
_cell_angle_gamma                 90.0000
loop_
_atom_site_label
_atom_site_type_symbol
_atom_site_fract_x
_atom_site_fract_y
_atom_site_fract_z
_atom_site_U_iso_or_equiv
_atom_site_adp_type
_atom_site_occupancy
C1     C     0.69510   0.29364   0.07301   0.00000  Uiso   1.00
C2     C     0.66750   0.43044   0.06355   0.00000  Uiso   1.00
C3     C     0.64389   0.37955   0.04035   0.00000  Uiso   1.00
C4     C     0.62075   0.52582   0.03524   0.00000  Uiso   1.00
C5     C     0.57785   0.70931   0.01786   0.00000  Uiso   1.00
C6     C     0.75835   0.36797   0.00942   0.00000  Uiso   1.00
C7     C     0.81112   0.26452   0.94072   0.00000  Uiso   1.00
C8     C     0.86444   0.35821   0.89004   0.00000  Uiso   1.00
C9     C     0.96258   0.44465   0.78866   0.00000  Uiso   1.00
C10    C     0.66006   0.32257   0.16808   0.00000  Uiso   1.00
C11    C     0.63019   0.18095   0.23278   0.00000  Uiso   1.00
C12    C     0.60078   0.23641   0.31568   0.00000  Uiso   1.00
C13    C     0.54630   0.25238   0.46065   0.00000  Uiso   1.00
C14    C     0.69598   0.64393   0.10518   0.00000  Uiso   1.00
C15    C     0.66798   0.62071   0.08103   0.00000  Uiso   1.00
C16    C     0.64487   0.76710   0.07595   0.00000  Uiso   1.00
C17    C     0.62122   0.71643   0.05275   0.00000  Uiso   1.00
C18    C     0.75883   0.55822   0.02689   0.00000  Uiso   1.00
C19    C     0.81209   0.65208   0.97631   0.00000  Uiso   1.00
C20    C     0.86492   0.54881   0.90755   0.00000  Uiso   1.00
C21    C     0.66053   0.51284   0.18556   0.00000  Uiso   1.00
C22    C     0.63116   0.56852   0.26837   0.00000  Uiso   1.00
C23    C     0.60126   0.42702   0.33319   0.00000  Uiso   1.00
H24    H     0.69473   0.14552   0.05940   0.00000  Uiso   1.00
H25    H     0.64354   0.23229   0.02683   0.00000  Uiso   1.00
H26    H     0.81073   0.11728   0.92722   0.00000  Uiso   1.00
H27    H     0.62984   0.03374   0.21923   0.00000  Uiso   1.00
H28    H     0.58701   0.41241   0.99839   0.00000  Uiso   1.00
H29    H     0.93955   0.16989   0.78837   0.00000  Uiso   1.00
H30    H     0.55809   0.99371   0.40414   0.00000  Uiso   1.00
H31    H     0.69635   0.79207   0.11878   0.00000  Uiso   1.00
H32    H     0.64524   0.91432   0.08947   0.00000  Uiso   1.00
H33    H     0.81244   0.79931   0.98986   0.00000  Uiso   1.00
H34    H     0.63154   0.71577   0.28187   0.00000  Uiso   1.00
H35    H     0.58839   0.96598   0.04923   0.00000  Uiso   1.00
H36    H     0.94093   0.72345   0.83922   0.00000  Uiso   1.00
H37    H     0.55947   0.54728   0.45499   0.00000  Uiso   1.00
O38    O     0.55407   0.75796   0.00343   0.00000  Uiso   1.00
O39    O     0.01658   0.43977   0.72791   0.00000  Uiso   1.00
O40    O     0.51612   0.20863   0.53578   0.00000  Uiso   1.00
N41    N     0.59434   0.52591   0.01440   0.00000  Uiso   1.00
N42    N     0.92394   0.29918   0.81803   0.00000  Uiso   1.00
N43    N     0.56732   0.13445   0.39372   0.00000  Uiso   1.00
N44    N     0.59508   0.82378   0.04175   0.00000  Uiso   1.00
N45    N     0.92468   0.59704   0.84539   0.00000  Uiso   1.00
N46    N     0.56807   0.43232   0.42108   0.00000  Uiso   1.00
C47    C     0.30490   0.79364   0.42699   0.00000  Uiso   1.00
C48    C     0.33250   0.93044   0.43645   0.00000  Uiso   1.00
C49    C     0.35611   0.87955   0.45965   0.00000  Uiso   1.00
C50    C     0.37925   0.02582   0.46476   0.00000  Uiso   1.00
C51    C     0.42215   0.20931   0.48214   0.00000  Uiso   1.00
C52    C     0.24165   0.86797   0.49058   0.00000  Uiso   1.00
C53    C     0.18888   0.76452   0.55928   0.00000  Uiso   1.00
C54    C     0.13556   0.85821   0.60996   0.00000  Uiso   1.00
C55    C     0.03742   0.94465   0.71134   0.00000  Uiso   1.00
C56    C     0.33994   0.82257   0.33192   0.00000  Uiso   1.00
C57    C     0.36981   0.68095   0.26722   0.00000  Uiso   1.00
C58    C     0.39922   0.73641   0.18432   0.00000  Uiso   1.00
C59    C     0.45370   0.75238   0.03935   0.00000  Uiso   1.00
C60    C     0.30402   0.14393   0.39482   0.00000  Uiso   1.00
C61    C     0.33202   0.12071   0.41897   0.00000  Uiso   1.00
C62    C     0.35513   0.26710   0.42405   0.00000  Uiso   1.00
C63    C     0.37878   0.21643   0.44725   0.00000  Uiso   1.00
C64    C     0.24117   0.05822   0.47311   0.00000  Uiso   1.00
C65    C     0.18791   0.15208   0.52369   0.00000  Uiso   1.00
C66    C     0.13508   0.04881   0.59245   0.00000  Uiso   1.00
C67    C     0.33947   0.01284   0.31444   0.00000  Uiso   1.00
C68    C     0.36884   0.06852   0.23163   0.00000  Uiso   1.00
C69    C     0.39874   0.92702   0.16681   0.00000  Uiso   1.00
H70    H     0.30527   0.64552   0.44060   0.00000  Uiso   1.00
H71    H     0.35646   0.73229   0.47317   0.00000  Uiso   1.00
H72    H     0.18927   0.61728   0.57278   0.00000  Uiso   1.00
H73    H     0.37016   0.53374   0.28077   0.00000  Uiso   1.00
H74    H     0.41299   0.91241   0.50161   0.00000  Uiso   1.00
H75    H     0.06045   0.66989   0.71163   0.00000  Uiso   1.00
H76    H     0.44191   0.49371   0.09586   0.00000  Uiso   1.00
H77    H     0.30365   0.29207   0.38122   0.00000  Uiso   1.00
H78    H     0.35476   0.41432   0.41053   0.00000  Uiso   1.00
H79    H     0.18756   0.29931   0.51014   0.00000  Uiso   1.00
H80    H     0.36846   0.21577   0.21813   0.00000  Uiso   1.00
H81    H     0.41161   0.46598   0.45077   0.00000  Uiso   1.00
H82    H     0.05907   0.22345   0.66078   0.00000  Uiso   1.00
H83    H     0.44053   0.04728   0.04501   0.00000  Uiso   1.00
O84    O     0.44593   0.25796   0.49657   0.00000  Uiso   1.00
O85    O     0.98342   0.93977   0.77209   0.00000  Uiso   1.00
O86    O     0.48388   0.70863   0.96422   0.00000  Uiso   1.00
N87    N     0.40566   0.02591   0.48560   0.00000  Uiso   1.00
N88    N     0.07606   0.79918   0.68197   0.00000  Uiso   1.00
N89    N     0.43268   0.63445   0.10628   0.00000  Uiso   1.00
N90    N     0.40492   0.32378   0.45825   0.00000  Uiso   1.00
N91    N     0.07532   0.09704   0.65461   0.00000  Uiso   1.00
N92    N     0.43193   0.93232   0.07892   0.00000  Uiso   1.00
C93    C     0.30490   0.70636   0.92699   0.00000  Uiso   1.00
C94    C     0.33250   0.56956   0.93645   0.00000  Uiso   1.00
C95    C     0.35611   0.62045   0.95965   0.00000  Uiso   1.00
C96    C     0.37925   0.47418   0.96476   0.00000  Uiso   1.00
C97    C     0.42215   0.29069   0.98214   0.00000  Uiso   1.00
C98    C     0.24165   0.63203   0.99058   0.00000  Uiso   1.00
C99    C     0.18888   0.73548   0.05928   0.00000  Uiso   1.00
C100   C     0.13556   0.64179   0.10996   0.00000  Uiso   1.00
C101   C     0.03742   0.55535   0.21134   0.00000  Uiso   1.00
C102   C     0.33994   0.67743   0.83192   0.00000  Uiso   1.00
C103   C     0.36981   0.81905   0.76722   0.00000  Uiso   1.00
C104   C     0.39922   0.76359   0.68432   0.00000  Uiso   1.00
C105   C     0.45370   0.74762   0.53935   0.00000  Uiso   1.00
C106   C     0.30402   0.35607   0.89482   0.00000  Uiso   1.00
C107   C     0.33202   0.37929   0.91897   0.00000  Uiso   1.00
C108   C     0.35513   0.23290   0.92405   0.00000  Uiso   1.00
C109   C     0.37878   0.28357   0.94725   0.00000  Uiso   1.00
C110   C     0.24117   0.44178   0.97311   0.00000  Uiso   1.00
C111   C     0.18791   0.34792   0.02369   0.00000  Uiso   1.00
C112   C     0.13508   0.45119   0.09245   0.00000  Uiso   1.00
C113   C     0.33947   0.48716   0.81444   0.00000  Uiso   1.00
C114   C     0.36884   0.43148   0.73163   0.00000  Uiso   1.00
C115   C     0.39874   0.57298   0.66681   0.00000  Uiso   1.00
H116   H     0.30527   0.85448   0.94060   0.00000  Uiso   1.00
H117   H     0.35646   0.76771   0.97317   0.00000  Uiso   1.00
H118   H     0.18927   0.88272   0.07278   0.00000  Uiso   1.00
H119   H     0.37016   0.96626   0.78077   0.00000  Uiso   1.00
H120   H     0.41299   0.58759   0.00161   0.00000  Uiso   1.00
H121   H     0.06045   0.83011   0.21163   0.00000  Uiso   1.00
H122   H     0.44191   0.00629   0.59586   0.00000  Uiso   1.00
H123   H     0.30365   0.20793   0.88122   0.00000  Uiso   1.00
H124   H     0.35476   0.08568   0.91053   0.00000  Uiso   1.00
H125   H     0.18756   0.20069   0.01014   0.00000  Uiso   1.00
H126   H     0.36846   0.28423   0.71813   0.00000  Uiso   1.00
H127   H     0.41161   0.03402   0.95077   0.00000  Uiso   1.00
H128   H     0.05907   0.27655   0.16078   0.00000  Uiso   1.00
H129   H     0.44053   0.45272   0.54501   0.00000  Uiso   1.00
O130   O     0.44593   0.24204   0.99657   0.00000  Uiso   1.00
O131   O     0.98342   0.56023   0.27209   0.00000  Uiso   1.00
O132   O     0.48388   0.79137   0.46422   0.00000  Uiso   1.00
N133   N     0.40566   0.47409   0.98560   0.00000  Uiso   1.00
N134   N     0.07606   0.70082   0.18197   0.00000  Uiso   1.00
N135   N     0.43268   0.86555   0.60628   0.00000  Uiso   1.00
N136   N     0.40492   0.17622   0.95825   0.00000  Uiso   1.00
N137   N     0.07532   0.40296   0.15461   0.00000  Uiso   1.00
N138   N     0.43193   0.56768   0.57892   0.00000  Uiso   1.00
C139   C     0.69510   0.20636   0.57301   0.00000  Uiso   1.00
C140   C     0.66750   0.06956   0.56355   0.00000  Uiso   1.00
C141   C     0.64389   0.12045   0.54035   0.00000  Uiso   1.00
C142   C     0.62075   0.97418   0.53524   0.00000  Uiso   1.00
C143   C     0.57785   0.79069   0.51786   0.00000  Uiso   1.00
C144   C     0.75835   0.13203   0.50942   0.00000  Uiso   1.00
C145   C     0.81112   0.23548   0.44072   0.00000  Uiso   1.00
C146   C     0.86444   0.14179   0.39004   0.00000  Uiso   1.00
C147   C     0.96258   0.05535   0.28866   0.00000  Uiso   1.00
C148   C     0.66006   0.17743   0.66808   0.00000  Uiso   1.00
C149   C     0.63019   0.31905   0.73278   0.00000  Uiso   1.00
C150   C     0.60078   0.26359   0.81568   0.00000  Uiso   1.00
C151   C     0.54630   0.24762   0.96065   0.00000  Uiso   1.00
C152   C     0.69598   0.85607   0.60518   0.00000  Uiso   1.00
C153   C     0.66798   0.87929   0.58103   0.00000  Uiso   1.00
C154   C     0.64487   0.73290   0.57595   0.00000  Uiso   1.00
C155   C     0.62122   0.78357   0.55275   0.00000  Uiso   1.00
C156   C     0.75883   0.94178   0.52689   0.00000  Uiso   1.00
C157   C     0.81209   0.84792   0.47631   0.00000  Uiso   1.00
C158   C     0.86492   0.95119   0.40755   0.00000  Uiso   1.00
C159   C     0.66053   0.98716   0.68556   0.00000  Uiso   1.00
C160   C     0.63116   0.93148   0.76837   0.00000  Uiso   1.00
C161   C     0.60126   0.07298   0.83319   0.00000  Uiso   1.00
H162   H     0.69473   0.35448   0.55940   0.00000  Uiso   1.00
H163   H     0.64354   0.26771   0.52683   0.00000  Uiso   1.00
H164   H     0.81073   0.38272   0.42722   0.00000  Uiso   1.00
H165   H     0.62984   0.46626   0.71923   0.00000  Uiso   1.00
H166   H     0.58701   0.08759   0.49839   0.00000  Uiso   1.00
H167   H     0.93955   0.33011   0.28837   0.00000  Uiso   1.00
H168   H     0.55809   0.50629   0.90414   0.00000  Uiso   1.00
H169   H     0.69635   0.70793   0.61878   0.00000  Uiso   1.00
H170   H     0.64524   0.58568   0.58947   0.00000  Uiso   1.00
H171   H     0.81244   0.70069   0.48986   0.00000  Uiso   1.00
H172   H     0.63154   0.78423   0.78187   0.00000  Uiso   1.00
H173   H     0.58839   0.53402   0.54923   0.00000  Uiso   1.00
H174   H     0.94093   0.77655   0.33922   0.00000  Uiso   1.00
H175   H     0.55947   0.95272   0.95499   0.00000  Uiso   1.00
O176   O     0.55407   0.74204   0.50343   0.00000  Uiso   1.00
O177   O     0.01658   0.06023   0.22791   0.00000  Uiso   1.00
O178   O     0.51612   0.29137   0.03578   0.00000  Uiso   1.00
N179   N     0.59434   0.97409   0.51440   0.00000  Uiso   1.00
N180   N     0.92394   0.20082   0.31803   0.00000  Uiso   1.00
N181   N     0.56732   0.36555   0.89372   0.00000  Uiso   1.00
N182   N     0.59508   0.67622   0.54175   0.00000  Uiso   1.00
N183   N     0.92468   0.90296   0.34539   0.00000  Uiso   1.00
N184   N     0.56807   0.06768   0.92108   0.00000  Uiso   1.00
