data_job_01857
_audit_creation_date              2018-12-19
_audit_creation_method            'Materials Studio'
_symmetry_space_group_name_H-M    'P1'
_symmetry_Int_Tables_number       1
_symmetry_cell_setting            triclinic
loop_
_symmetry_equiv_pos_as_xyz
  x,y,z
_cell_length_a                    11.4467
_cell_length_b                    12.4161
_cell_length_c                    14.4459
_cell_angle_alpha                 80.2357
_cell_angle_beta                  97.2794
_cell_angle_gamma                 62.6834
loop_
_atom_site_label
_atom_site_type_symbol
_atom_site_fract_x
_atom_site_fract_y
_atom_site_fract_z
_atom_site_U_iso_or_equiv
_atom_site_adp_type
_atom_site_occupancy
C1     C     0.20533   0.70422   0.28558   0.00000  Uiso   1.00
C2     C     0.20559   0.63456   0.38336   0.00000  Uiso   1.00
C3     C     0.24732   0.64972   0.47237   0.00000  Uiso   1.00
C4     C     0.23979   0.57724   0.55341   0.00000  Uiso   1.00
C5     C     0.24750   0.48189   0.70643   0.00000  Uiso   1.00
C6     C     0.28987   0.60333   0.23802   0.00000  Uiso   1.00
C7     C     0.40245   0.59226   0.20481   0.00000  Uiso   1.00
C8     C     0.46585   0.49350   0.16350   0.00000  Uiso   1.00
C9     C     0.60435   0.34973   0.09080   0.00000  Uiso   1.00
C10    C     0.06051   0.76805   0.22553   0.00000  Uiso   1.00
C11    C     0.98024   0.89548   0.18181   0.00000  Uiso   1.00
C12    C     0.85053   0.93540   0.12996   0.00000  Uiso   1.00
C13    C     0.63291   0.04738   0.03788   0.00000  Uiso   1.00
C14    C     0.11773   0.54852   0.27123   0.00000  Uiso   1.00
C15    C     0.15802   0.54999   0.37556   0.00000  Uiso   1.00
C16    C     0.15041   0.47746   0.45650   0.00000  Uiso   1.00
C17    C     0.19212   0.49252   0.54561   0.00000  Uiso   1.00
C18    C     0.24230   0.51876   0.23022   0.00000  Uiso   1.00
C19    C     0.30553   0.42000   0.18894   0.00000  Uiso   1.00
C20    C     0.41819   0.40877   0.15569   0.00000  Uiso   1.00
C21    C     0.01292   0.68349   0.21774   0.00000  Uiso   1.00
C22    C     0.88332   0.72321   0.16594   0.00000  Uiso   1.00
C23    C     0.80287   0.85067   0.12215   0.00000  Uiso   1.00
H24    H     0.24238   0.77005   0.29164   0.00000  Uiso   1.00
H25    H     0.28415   0.71517   0.47837   0.00000  Uiso   1.00
H26    H     0.43924   0.65773   0.21084   0.00000  Uiso   1.00
H27    H     0.01709   0.96089   0.18785   0.00000  Uiso   1.00
H28    H     0.30953   0.61700   0.68195   0.00000  Uiso   1.00
H29    H     0.63652   0.49589   0.11784   0.00000  Uiso   1.00
H30    H     0.74634   0.13518   0.06934   0.00000  Uiso   1.00
H31    H     0.08069   0.48268   0.26517   0.00000  Uiso   1.00
H32    H     0.11358   0.41203   0.45044   0.00000  Uiso   1.00
H33    H     0.26868   0.35458   0.18292   0.00000  Uiso   1.00
H34    H     0.84653   0.65774   0.15993   0.00000  Uiso   1.00
H35    H     0.17110   0.37095   0.65929   0.00000  Uiso   1.00
H36    H     0.49809   0.24985   0.09517   0.00000  Uiso   1.00
H37    H     0.60791   0.88913   0.04668   0.00000  Uiso   1.00
O38    O     0.26492   0.45265   0.79298   0.00000  Uiso   1.00
O39    O     0.69390   0.29379   0.05287   0.00000  Uiso   1.00
O40    O     0.52600   0.13252   0.98925   0.00000  Uiso   1.00
N41    N     0.27241   0.56881   0.65119   0.00000  Uiso   1.00
N42    N     0.57814   0.45557   0.12379   0.00000  Uiso   1.00
N43    N     0.74591   0.05325   0.07843   0.00000  Uiso   1.00
N44    N     0.19792   0.43641   0.63900   0.00000  Uiso   1.00
N45    N     0.50365   0.32317   0.11159   0.00000  Uiso   1.00
N46    N     0.67142   0.92085   0.06624   0.00000  Uiso   1.00
C47    C     0.79467   0.29578   0.71442   0.00000  Uiso   1.00
C48    C     0.79441   0.36544   0.61664   0.00000  Uiso   1.00
C49    C     0.75268   0.35028   0.52763   0.00000  Uiso   1.00
C50    C     0.76021   0.42276   0.44659   0.00000  Uiso   1.00
C51    C     0.75250   0.51811   0.29357   0.00000  Uiso   1.00
C52    C     0.71013   0.39667   0.76198   0.00000  Uiso   1.00
C53    C     0.59755   0.40774   0.79519   0.00000  Uiso   1.00
C54    C     0.53415   0.50650   0.83650   0.00000  Uiso   1.00
C55    C     0.39565   0.65027   0.90920   0.00000  Uiso   1.00
C56    C     0.93949   0.23195   0.77447   0.00000  Uiso   1.00
C57    C     0.01976   0.10452   0.81819   0.00000  Uiso   1.00
C58    C     0.14947   0.06460   0.87004   0.00000  Uiso   1.00
C59    C     0.36709   0.95262   0.96212   0.00000  Uiso   1.00
C60    C     0.88227   0.45148   0.72877   0.00000  Uiso   1.00
C61    C     0.84198   0.45001   0.62444   0.00000  Uiso   1.00
C62    C     0.84959   0.52254   0.54350   0.00000  Uiso   1.00
C63    C     0.80788   0.50748   0.45439   0.00000  Uiso   1.00
C64    C     0.75770   0.48124   0.76978   0.00000  Uiso   1.00
C65    C     0.69447   0.58000   0.81106   0.00000  Uiso   1.00
C66    C     0.58181   0.59123   0.84431   0.00000  Uiso   1.00
C67    C     0.98708   0.31651   0.78226   0.00000  Uiso   1.00
C68    C     0.11668   0.27679   0.83406   0.00000  Uiso   1.00
C69    C     0.19713   0.14933   0.87785   0.00000  Uiso   1.00
H70    H     0.75762   0.22995   0.70836   0.00000  Uiso   1.00
H71    H     0.71585   0.28483   0.52163   0.00000  Uiso   1.00
H72    H     0.56076   0.34227   0.78916   0.00000  Uiso   1.00
H73    H     0.98291   0.03911   0.81215   0.00000  Uiso   1.00
H74    H     0.69047   0.38300   0.31805   0.00000  Uiso   1.00
H75    H     0.36348   0.50411   0.88216   0.00000  Uiso   1.00
H76    H     0.25366   0.86482   0.93066   0.00000  Uiso   1.00
H77    H     0.91931   0.51732   0.73483   0.00000  Uiso   1.00
H78    H     0.88642   0.58797   0.54956   0.00000  Uiso   1.00
H79    H     0.73132   0.64542   0.81708   0.00000  Uiso   1.00
H80    H     0.15347   0.34226   0.84007   0.00000  Uiso   1.00
H81    H     0.82890   0.62905   0.34071   0.00000  Uiso   1.00
H82    H     0.50191   0.75015   0.90483   0.00000  Uiso   1.00
H83    H     0.39209   0.11087   0.95332   0.00000  Uiso   1.00
O84    O     0.73508   0.54735   0.20702   0.00000  Uiso   1.00
O85    O     0.30610   0.70621   0.94713   0.00000  Uiso   1.00
O86    O     0.47400   0.86748   0.01075   0.00000  Uiso   1.00
N87    N     0.72759   0.43119   0.34881   0.00000  Uiso   1.00
N88    N     0.42186   0.54443   0.87621   0.00000  Uiso   1.00
N89    N     0.25409   0.94675   0.92157   0.00000  Uiso   1.00
N90    N     0.80208   0.56359   0.36100   0.00000  Uiso   1.00
N91    N     0.49635   0.67683   0.88841   0.00000  Uiso   1.00
N92    N     0.32858   0.07915   0.93376   0.00000  Uiso   1.00
