data_job_05814
_audit_creation_date              2018-12-19
_audit_creation_method            'Materials Studio'
_symmetry_space_group_name_H-M    'P1'
_symmetry_Int_Tables_number       1
_symmetry_cell_setting            triclinic
loop_
_symmetry_equiv_pos_as_xyz
  x,y,z
_cell_length_a                    12.8442
_cell_length_b                    7.4216
_cell_length_c                    13.3758
_cell_angle_alpha                 90.0000
_cell_angle_beta                  73.3999
_cell_angle_gamma                 90.0000
loop_
_atom_site_label
_atom_site_type_symbol
_atom_site_fract_x
_atom_site_fract_y
_atom_site_fract_z
_atom_site_U_iso_or_equiv
_atom_site_adp_type
_atom_site_occupancy
C1     C     0.68306   0.55988   0.12216   0.00000  Uiso   1.00
C2     C     0.68479   0.40815   0.04483   0.00000  Uiso   1.00
C3     C     0.67986   0.42954   0.94321   0.00000  Uiso   1.00
C4     C     0.68249   0.27388   0.88497   0.00000  Uiso   1.00
C5     C     0.68402   0.06427   0.75852   0.00000  Uiso   1.00
C6     C     0.58805   0.51923   0.21783   0.00000  Uiso   1.00
C7     C     0.50178   0.63402   0.26168   0.00000  Uiso   1.00
C8     C     0.42299   0.57186   0.34908   0.00000  Uiso   1.00
C9     C     0.27435   0.53474   0.49126   0.00000  Uiso   1.00
C10    C     0.78555   0.53675   0.15679   0.00000  Uiso   1.00
C11    C     0.86533   0.66629   0.14935   0.00000  Uiso   1.00
C12    C     0.95281   0.61889   0.18538   0.00000  Uiso   1.00
C13    C     0.11082   0.60898   0.23279   0.00000  Uiso   1.00
C14    C     0.69651   0.24539   0.19943   0.00000  Uiso   1.00
C15    C     0.69210   0.23734   0.08680   0.00000  Uiso   1.00
C16    C     0.69475   0.08160   0.02870   0.00000  Uiso   1.00
C17    C     0.68982   0.10276   0.92701   0.00000  Uiso   1.00
C18    C     0.59535   0.34842   0.25980   0.00000  Uiso   1.00
C19    C     0.51667   0.28608   0.34716   0.00000  Uiso   1.00
C20    C     0.43031   0.40074   0.39112   0.00000  Uiso   1.00
C21    C     0.79286   0.36593   0.19876   0.00000  Uiso   1.00
C22    C     0.88022   0.31833   0.23482   0.00000  Uiso   1.00
C23    C     0.96013   0.44777   0.22743   0.00000  Uiso   1.00
H24    H     0.67736   0.69287   0.08950   0.00000  Uiso   1.00
H25    H     0.67419   0.56176   0.91076   0.00000  Uiso   1.00
H26    H     0.49615   0.76621   0.22919   0.00000  Uiso   1.00
H27    H     0.85965   0.79846   0.11686   0.00000  Uiso   1.00
H28    H     0.67386   0.34107   0.73112   0.00000  Uiso   1.00
H29    H     0.29847   0.77218   0.40256   0.00000  Uiso   1.00
H30    H     0.06497   0.84019   0.16571   0.00000  Uiso   1.00
H31    H     0.70220   0.11240   0.23211   0.00000  Uiso   1.00
H32    H     0.70040   0.94943   0.06119   0.00000  Uiso   1.00
H33    H     0.52236   0.15389   0.37962   0.00000  Uiso   1.00
H34    H     0.88585   0.18614   0.26730   0.00000  Uiso   1.00
H35    H     0.69513   0.84408   0.85322   0.00000  Uiso   1.00
H36    H     0.31974   0.27520   0.52466   0.00000  Uiso   1.00
H37    H     0.08624   0.34320   0.28781   0.00000  Uiso   1.00
O38    O     0.68282   0.99584   0.67718   0.00000  Uiso   1.00
O39    O     0.19034   0.56146   0.55808   0.00000  Uiso   1.00
O40    O     0.19597   0.65068   0.24733   0.00000  Uiso   1.00
N41    N     0.67914   0.24647   0.78331   0.00000  Uiso   1.00
N42    N     0.32816   0.64952   0.41105   0.00000  Uiso   1.00
N43    N     0.04476   0.71313   0.18964   0.00000  Uiso   1.00
N44    N     0.69058   0.97904   0.84901   0.00000  Uiso   1.00
N45    N     0.33961   0.38210   0.47675   0.00000  Uiso   1.00
N46    N     0.05621   0.44570   0.25534   0.00000  Uiso   1.00
C47    C     0.31694   0.55988   0.87784   0.00000  Uiso   1.00
C48    C     0.31521   0.40815   0.95517   0.00000  Uiso   1.00
C49    C     0.32014   0.42954   0.05679   0.00000  Uiso   1.00
C50    C     0.31751   0.27388   0.11503   0.00000  Uiso   1.00
C51    C     0.31598   0.06427   0.24148   0.00000  Uiso   1.00
C52    C     0.41195   0.51923   0.78217   0.00000  Uiso   1.00
C53    C     0.49822   0.63402   0.73832   0.00000  Uiso   1.00
C54    C     0.57701   0.57186   0.65092   0.00000  Uiso   1.00
C55    C     0.72565   0.53474   0.50874   0.00000  Uiso   1.00
C56    C     0.21445   0.53675   0.84321   0.00000  Uiso   1.00
C57    C     0.13467   0.66629   0.85065   0.00000  Uiso   1.00
C58    C     0.04719   0.61889   0.81462   0.00000  Uiso   1.00
C59    C     0.88918   0.60898   0.76721   0.00000  Uiso   1.00
C60    C     0.30349   0.24539   0.80057   0.00000  Uiso   1.00
C61    C     0.30790   0.23734   0.91320   0.00000  Uiso   1.00
C62    C     0.30525   0.08160   0.97130   0.00000  Uiso   1.00
C63    C     0.31018   0.10276   0.07299   0.00000  Uiso   1.00
C64    C     0.40465   0.34842   0.74020   0.00000  Uiso   1.00
C65    C     0.48333   0.28608   0.65284   0.00000  Uiso   1.00
C66    C     0.56969   0.40074   0.60888   0.00000  Uiso   1.00
C67    C     0.20714   0.36593   0.80124   0.00000  Uiso   1.00
C68    C     0.11978   0.31833   0.76518   0.00000  Uiso   1.00
C69    C     0.03987   0.44777   0.77257   0.00000  Uiso   1.00
H70    H     0.32264   0.69287   0.91050   0.00000  Uiso   1.00
H71    H     0.32581   0.56176   0.08924   0.00000  Uiso   1.00
H72    H     0.50385   0.76621   0.77081   0.00000  Uiso   1.00
H73    H     0.14035   0.79846   0.88314   0.00000  Uiso   1.00
H74    H     0.32614   0.34107   0.26888   0.00000  Uiso   1.00
H75    H     0.70153   0.77218   0.59744   0.00000  Uiso   1.00
H76    H     0.93503   0.84019   0.83429   0.00000  Uiso   1.00
H77    H     0.29780   0.11240   0.76789   0.00000  Uiso   1.00
H78    H     0.29960   0.94943   0.93881   0.00000  Uiso   1.00
H79    H     0.47764   0.15389   0.62038   0.00000  Uiso   1.00
H80    H     0.11415   0.18614   0.73270   0.00000  Uiso   1.00
H81    H     0.30487   0.84408   0.14678   0.00000  Uiso   1.00
H82    H     0.68026   0.27520   0.47534   0.00000  Uiso   1.00
H83    H     0.91376   0.34320   0.71219   0.00000  Uiso   1.00
O84    O     0.31718   0.99584   0.32282   0.00000  Uiso   1.00
O85    O     0.80966   0.56146   0.44192   0.00000  Uiso   1.00
O86    O     0.80403   0.65068   0.75267   0.00000  Uiso   1.00
N87    N     0.32086   0.24647   0.21669   0.00000  Uiso   1.00
N88    N     0.67184   0.64952   0.58895   0.00000  Uiso   1.00
N89    N     0.95524   0.71313   0.81036   0.00000  Uiso   1.00
N90    N     0.30942   0.97904   0.15099   0.00000  Uiso   1.00
N91    N     0.66039   0.38210   0.52325   0.00000  Uiso   1.00
N92    N     0.94379   0.44570   0.74466   0.00000  Uiso   1.00
