data_job_03445
_audit_creation_date              2018-12-19
_audit_creation_method            'Materials Studio'
_symmetry_space_group_name_H-M    'P1'
_symmetry_Int_Tables_number       1
_symmetry_cell_setting            triclinic
loop_
_symmetry_equiv_pos_as_xyz
  x,y,z
_cell_length_a                    26.0056
_cell_length_b                    14.0715
_cell_length_c                    24.0998
_cell_angle_alpha                 90.0000
_cell_angle_beta                  156.8439
_cell_angle_gamma                 90.0000
loop_
_atom_site_label
_atom_site_type_symbol
_atom_site_fract_x
_atom_site_fract_y
_atom_site_fract_z
_atom_site_U_iso_or_equiv
_atom_site_adp_type
_atom_site_occupancy
C1     C     0.80449   0.20575   0.94701   0.00000  Uiso   1.00
C2     C     0.65549   0.21001   0.79925   0.00000  Uiso   1.00
C3     C     0.57197   0.13234   0.71820   0.00000  Uiso   1.00
C4     C     0.43870   0.15115   0.58569   0.00000  Uiso   1.00
C5     C     0.21462   0.14359   0.36376   0.00000  Uiso   1.00
C6     C     0.84847   0.25910   0.93882   0.00000  Uiso   1.00
C7     C     0.92722   0.22271   0.97515   0.00000  Uiso   1.00
C8     C     0.95641   0.28286   0.96016   0.00000  Uiso   1.00
C9     C     0.03202   0.35154   0.95502   0.00000  Uiso   1.00
C10    C     0.84909   0.26570   0.04046   0.00000  Uiso   1.00
C11    C     0.92841   0.23486   0.16227   0.00000  Uiso   1.00
C12    C     0.95815   0.30057   0.23287   0.00000  Uiso   1.00
C13    C     0.03473   0.37948   0.38553   0.00000  Uiso   1.00
C14    C     0.71632   0.37729   0.85581   0.00000  Uiso   1.00
C15    C     0.60760   0.30318   0.74971   0.00000  Uiso   1.00
C16    C     0.47442   0.32212   0.61729   0.00000  Uiso   1.00
C17    C     0.39072   0.24449   0.53607   0.00000  Uiso   1.00
C18    C     0.80058   0.35227   0.88929   0.00000  Uiso   1.00
C19    C     0.82967   0.41250   0.87425   0.00000  Uiso   1.00
C20    C     0.90843   0.37620   0.91053   0.00000  Uiso   1.00
C21    C     0.80120   0.35887   0.99092   0.00000  Uiso   1.00
C22    C     0.83084   0.42464   0.06136   0.00000  Uiso   1.00
C23    C     0.91018   0.39391   0.18324   0.00000  Uiso   1.00
H24    H     0.84178   0.13321   0.98558   0.00000  Uiso   1.00
H25    H     0.60908   0.06024   0.75657   0.00000  Uiso   1.00
H26    H     0.96428   0.15061   0.01350   0.00000  Uiso   1.00
H27    H     0.96545   0.16275   0.20057   0.00000  Uiso   1.00
H28    H     0.32996   0.02042   0.48080   0.00000  Uiso   1.00
H29    H     0.07896   0.21097   0.02259   0.00000  Uiso   1.00
H30    H     0.08144   0.23658   0.41709   0.00000  Uiso   1.00
H31    H     0.67903   0.44983   0.81724   0.00000  Uiso   1.00
H32    H     0.43738   0.39423   0.57899   0.00000  Uiso   1.00
H33    H     0.79259   0.48460   0.83591   0.00000  Uiso   1.00
H34    H     0.79376   0.49674   0.02299   0.00000  Uiso   1.00
H35    H     0.19060   0.29150   0.33666   0.00000  Uiso   1.00
H36    H     0.93961   0.48205   0.87846   0.00000  Uiso   1.00
H37    H     0.94209   0.50766   0.27295   0.00000  Uiso   1.00
O38    O     0.10425   0.11367   0.25502   0.00000  Uiso   1.00
O39    O     0.08694   0.36367   0.96585   0.00000  Uiso   1.00
O40    O     0.09019   0.39727   0.48341   0.00000  Uiso   1.00
N41    N     0.33032   0.09185   0.47959   0.00000  Uiso   1.00
N42    N     0.03058   0.27000   0.98610   0.00000  Uiso   1.00
N43    N     0.03293   0.29395   0.35495   0.00000  Uiso   1.00
N44    N     0.25534   0.23772   0.40203   0.00000  Uiso   1.00
N45    N     0.95559   0.41587   0.90855   0.00000  Uiso   1.00
N46    N     0.95794   0.43982   0.27739   0.00000  Uiso   1.00
C47    C     0.19551   0.70575   0.55299   0.00000  Uiso   1.00
C48    C     0.34451   0.71001   0.70075   0.00000  Uiso   1.00
C49    C     0.42803   0.63234   0.78180   0.00000  Uiso   1.00
C50    C     0.56130   0.65115   0.91431   0.00000  Uiso   1.00
C51    C     0.78538   0.64359   0.13624   0.00000  Uiso   1.00
C52    C     0.15153   0.75910   0.56118   0.00000  Uiso   1.00
C53    C     0.07278   0.72271   0.52485   0.00000  Uiso   1.00
C54    C     0.04359   0.78286   0.53984   0.00000  Uiso   1.00
C55    C     0.96798   0.85154   0.54498   0.00000  Uiso   1.00
C56    C     0.15091   0.76570   0.45954   0.00000  Uiso   1.00
C57    C     0.07159   0.73486   0.33773   0.00000  Uiso   1.00
C58    C     0.04185   0.80057   0.26713   0.00000  Uiso   1.00
C59    C     0.96527   0.87948   0.11447   0.00000  Uiso   1.00
C60    C     0.28368   0.87729   0.64419   0.00000  Uiso   1.00
C61    C     0.39240   0.80318   0.75029   0.00000  Uiso   1.00
C62    C     0.52558   0.82212   0.88271   0.00000  Uiso   1.00
C63    C     0.60928   0.74449   0.96393   0.00000  Uiso   1.00
C64    C     0.19942   0.85227   0.61071   0.00000  Uiso   1.00
C65    C     0.17033   0.91250   0.62575   0.00000  Uiso   1.00
C66    C     0.09157   0.87620   0.58947   0.00000  Uiso   1.00
C67    C     0.19880   0.85887   0.50908   0.00000  Uiso   1.00
C68    C     0.16916   0.92464   0.43864   0.00000  Uiso   1.00
C69    C     0.08982   0.89391   0.31676   0.00000  Uiso   1.00
H70    H     0.15822   0.63321   0.51442   0.00000  Uiso   1.00
H71    H     0.39092   0.56024   0.74343   0.00000  Uiso   1.00
H72    H     0.03572   0.65061   0.48650   0.00000  Uiso   1.00
H73    H     0.03455   0.66275   0.29943   0.00000  Uiso   1.00
H74    H     0.67004   0.52042   0.01920   0.00000  Uiso   1.00
H75    H     0.92104   0.71097   0.47741   0.00000  Uiso   1.00
H76    H     0.91856   0.73658   0.08291   0.00000  Uiso   1.00
H77    H     0.32097   0.94983   0.68276   0.00000  Uiso   1.00
H78    H     0.56262   0.89423   0.92101   0.00000  Uiso   1.00
H79    H     0.20741   0.98460   0.66409   0.00000  Uiso   1.00
H80    H     0.20624   0.99674   0.47701   0.00000  Uiso   1.00
H81    H     0.80940   0.79150   0.16334   0.00000  Uiso   1.00
H82    H     0.06039   0.98205   0.62154   0.00000  Uiso   1.00
H83    H     0.05791   0.00766   0.22705   0.00000  Uiso   1.00
O84    O     0.89575   0.61367   0.24498   0.00000  Uiso   1.00
O85    O     0.91306   0.86367   0.53415   0.00000  Uiso   1.00
O86    O     0.90981   0.89727   0.01659   0.00000  Uiso   1.00
N87    N     0.66968   0.59185   0.02041   0.00000  Uiso   1.00
N88    N     0.96942   0.77000   0.51390   0.00000  Uiso   1.00
N89    N     0.96707   0.79395   0.14505   0.00000  Uiso   1.00
N90    N     0.74466   0.73772   0.09797   0.00000  Uiso   1.00
N91    N     0.04441   0.91587   0.59145   0.00000  Uiso   1.00
N92    N     0.04206   0.93982   0.22261   0.00000  Uiso   1.00
C93    C     0.19551   0.79425   0.05299   0.00000  Uiso   1.00
C94    C     0.34451   0.78999   0.20075   0.00000  Uiso   1.00
C95    C     0.42803   0.86766   0.28180   0.00000  Uiso   1.00
C96    C     0.56130   0.84885   0.41431   0.00000  Uiso   1.00
C97    C     0.78538   0.85641   0.63624   0.00000  Uiso   1.00
C98    C     0.15153   0.74090   0.06118   0.00000  Uiso   1.00
C99    C     0.07278   0.77729   0.02485   0.00000  Uiso   1.00
C100   C     0.04359   0.71714   0.03984   0.00000  Uiso   1.00
C101   C     0.96798   0.64846   0.04498   0.00000  Uiso   1.00
C102   C     0.15091   0.73430   0.95954   0.00000  Uiso   1.00
C103   C     0.07159   0.76514   0.83773   0.00000  Uiso   1.00
C104   C     0.04185   0.69943   0.76713   0.00000  Uiso   1.00
C105   C     0.96527   0.62052   0.61447   0.00000  Uiso   1.00
C106   C     0.28368   0.62271   0.14419   0.00000  Uiso   1.00
C107   C     0.39240   0.69682   0.25029   0.00000  Uiso   1.00
C108   C     0.52558   0.67788   0.38271   0.00000  Uiso   1.00
C109   C     0.60928   0.75551   0.46393   0.00000  Uiso   1.00
C110   C     0.19942   0.64773   0.11071   0.00000  Uiso   1.00
C111   C     0.17033   0.58750   0.12575   0.00000  Uiso   1.00
C112   C     0.09157   0.62380   0.08947   0.00000  Uiso   1.00
C113   C     0.19880   0.64113   0.00908   0.00000  Uiso   1.00
C114   C     0.16916   0.57536   0.93864   0.00000  Uiso   1.00
C115   C     0.08982   0.60609   0.81676   0.00000  Uiso   1.00
H116   H     0.15822   0.86679   0.01442   0.00000  Uiso   1.00
H117   H     0.39092   0.93976   0.24343   0.00000  Uiso   1.00
H118   H     0.03572   0.84939   0.98650   0.00000  Uiso   1.00
H119   H     0.03455   0.83725   0.79943   0.00000  Uiso   1.00
H120   H     0.67004   0.97958   0.51920   0.00000  Uiso   1.00
H121   H     0.92104   0.78903   0.97741   0.00000  Uiso   1.00
H122   H     0.91856   0.76342   0.58291   0.00000  Uiso   1.00
H123   H     0.32097   0.55017   0.18276   0.00000  Uiso   1.00
H124   H     0.56262   0.60577   0.42101   0.00000  Uiso   1.00
H125   H     0.20741   0.51540   0.16409   0.00000  Uiso   1.00
H126   H     0.20624   0.50326   0.97701   0.00000  Uiso   1.00
H127   H     0.80940   0.70850   0.66334   0.00000  Uiso   1.00
H128   H     0.06039   0.51795   0.12154   0.00000  Uiso   1.00
H129   H     0.05791   0.49234   0.72705   0.00000  Uiso   1.00
O130   O     0.89575   0.88633   0.74498   0.00000  Uiso   1.00
O131   O     0.91306   0.63633   0.03415   0.00000  Uiso   1.00
O132   O     0.90981   0.60273   0.51659   0.00000  Uiso   1.00
N133   N     0.66968   0.90815   0.52041   0.00000  Uiso   1.00
N134   N     0.96942   0.73000   0.01390   0.00000  Uiso   1.00
N135   N     0.96707   0.70605   0.64505   0.00000  Uiso   1.00
N136   N     0.74466   0.76228   0.59797   0.00000  Uiso   1.00
N137   N     0.04441   0.58413   0.09145   0.00000  Uiso   1.00
N138   N     0.04206   0.56018   0.72261   0.00000  Uiso   1.00
C139   C     0.80449   0.29425   0.44701   0.00000  Uiso   1.00
C140   C     0.65549   0.28999   0.29925   0.00000  Uiso   1.00
C141   C     0.57197   0.36766   0.21820   0.00000  Uiso   1.00
C142   C     0.43870   0.34885   0.08569   0.00000  Uiso   1.00
C143   C     0.21462   0.35641   0.86376   0.00000  Uiso   1.00
C144   C     0.84847   0.24090   0.43882   0.00000  Uiso   1.00
C145   C     0.92722   0.27729   0.47515   0.00000  Uiso   1.00
C146   C     0.95641   0.21714   0.46016   0.00000  Uiso   1.00
C147   C     0.03202   0.14846   0.45502   0.00000  Uiso   1.00
C148   C     0.84909   0.23430   0.54046   0.00000  Uiso   1.00
C149   C     0.92841   0.26514   0.66227   0.00000  Uiso   1.00
C150   C     0.95815   0.19943   0.73287   0.00000  Uiso   1.00
C151   C     0.03473   0.12052   0.88553   0.00000  Uiso   1.00
C152   C     0.71632   0.12271   0.35581   0.00000  Uiso   1.00
C153   C     0.60760   0.19682   0.24971   0.00000  Uiso   1.00
C154   C     0.47442   0.17788   0.11729   0.00000  Uiso   1.00
C155   C     0.39072   0.25551   0.03607   0.00000  Uiso   1.00
C156   C     0.80058   0.14773   0.38929   0.00000  Uiso   1.00
C157   C     0.82967   0.08750   0.37425   0.00000  Uiso   1.00
C158   C     0.90843   0.12380   0.41053   0.00000  Uiso   1.00
C159   C     0.80120   0.14113   0.49092   0.00000  Uiso   1.00
C160   C     0.83084   0.07536   0.56136   0.00000  Uiso   1.00
C161   C     0.91018   0.10609   0.68324   0.00000  Uiso   1.00
H162   H     0.84178   0.36679   0.48558   0.00000  Uiso   1.00
H163   H     0.60908   0.43976   0.25657   0.00000  Uiso   1.00
H164   H     0.96428   0.34939   0.51350   0.00000  Uiso   1.00
H165   H     0.96545   0.33725   0.70057   0.00000  Uiso   1.00
H166   H     0.32996   0.47958   0.98080   0.00000  Uiso   1.00
H167   H     0.07896   0.28903   0.52259   0.00000  Uiso   1.00
H168   H     0.08144   0.26342   0.91709   0.00000  Uiso   1.00
H169   H     0.67903   0.05017   0.31724   0.00000  Uiso   1.00
H170   H     0.43738   0.10577   0.07899   0.00000  Uiso   1.00
H171   H     0.79259   0.01540   0.33591   0.00000  Uiso   1.00
H172   H     0.79376   0.00326   0.52299   0.00000  Uiso   1.00
H173   H     0.19060   0.20850   0.83666   0.00000  Uiso   1.00
H174   H     0.93961   0.01795   0.37846   0.00000  Uiso   1.00
H175   H     0.94209   0.99234   0.77295   0.00000  Uiso   1.00
O176   O     0.10425   0.38633   0.75502   0.00000  Uiso   1.00
O177   O     0.08694   0.13633   0.46585   0.00000  Uiso   1.00
O178   O     0.09019   0.10273   0.98341   0.00000  Uiso   1.00
N179   N     0.33032   0.40815   0.97959   0.00000  Uiso   1.00
N180   N     0.03058   0.23000   0.48610   0.00000  Uiso   1.00
N181   N     0.03293   0.20605   0.85495   0.00000  Uiso   1.00
N182   N     0.25534   0.26228   0.90203   0.00000  Uiso   1.00
N183   N     0.95559   0.08413   0.40855   0.00000  Uiso   1.00
N184   N     0.95794   0.06018   0.77739   0.00000  Uiso   1.00
