data_job_00869
_audit_creation_date              2018-12-19
_audit_creation_method            'Materials Studio'
_symmetry_space_group_name_H-M    'P1'
_symmetry_Int_Tables_number       1
_symmetry_cell_setting            triclinic
loop_
_symmetry_equiv_pos_as_xyz
  x,y,z
_cell_length_a                    10.9619
_cell_length_b                    10.9619
_cell_length_c                    32.2394
_cell_angle_alpha                 90.0000
_cell_angle_beta                  90.0000
_cell_angle_gamma                 120.0000
loop_
_atom_site_label
_atom_site_type_symbol
_atom_site_fract_x
_atom_site_fract_y
_atom_site_fract_z
_atom_site_U_iso_or_equiv
_atom_site_adp_type
_atom_site_occupancy
C1     C     0.15545   0.34853   0.96386   0.00000  Uiso   1.00
C2     C     0.06258   0.38148   0.93628   0.00000  Uiso   1.00
C3     C     0.97941   0.29875   0.90376   0.00000  Uiso   1.00
C4     C     0.90220   0.34721   0.88228   0.00000  Uiso   1.00
C5     C     0.75716   0.37914   0.83781   0.00000  Uiso   1.00
C6     C     0.30368   0.47535   0.96053   0.00000  Uiso   1.00
C7     C     0.42321   0.47154   0.94841   0.00000  Uiso   1.00
C8     C     0.54896   0.59902   0.94736   0.00000  Uiso   1.00
C9     C     0.77824   0.77667   0.94057   0.00000  Uiso   1.00
C10    C     0.10750   0.34856   0.00826   0.00000  Uiso   1.00
C11    C     0.06212   0.23815   0.03628   0.00000  Uiso   1.00
C12    C     0.02273   0.25889   0.07541   0.00000  Uiso   1.00
C13    C     0.94741   0.23967   0.14273   0.00000  Uiso   1.00
C14    C     0.16623   0.58170   0.98354   0.00000  Uiso   1.00
C15    C     0.06844   0.50814   0.94697   0.00000  Uiso   1.00
C16    C     0.99133   0.55673   0.92553   0.00000  Uiso   1.00
C17    C     0.90806   0.47408   0.89299   0.00000  Uiso   1.00
C18    C     0.30954   0.60200   0.97122   0.00000  Uiso   1.00
C19    C     0.43514   0.72952   0.97019   0.00000  Uiso   1.00
C20    C     0.55483   0.72590   0.95807   0.00000  Uiso   1.00
C21    C     0.11335   0.47521   0.01895   0.00000  Uiso   1.00
C22    C     0.07404   0.49613   0.05805   0.00000  Uiso   1.00
C23    C     0.02859   0.38577   0.08612   0.00000  Uiso   1.00
H24    H     0.15090   0.24994   0.95554   0.00000  Uiso   1.00
H25    H     0.97492   0.20075   0.89550   0.00000  Uiso   1.00
H26    H     0.41865   0.37351   0.94015   0.00000  Uiso   1.00
H27    H     0.05760   0.14016   0.02800   0.00000  Uiso   1.00
H28    H     0.78242   0.20210   0.83363   0.00000  Uiso   1.00
H29    H     0.71806   0.56637   0.92779   0.00000  Uiso   1.00
H30    H     0.95673   0.07429   0.11304   0.00000  Uiso   1.00
H31    H     0.17080   0.68031   0.99186   0.00000  Uiso   1.00
H32    H     0.99589   0.65474   0.93381   0.00000  Uiso   1.00
H33    H     0.43963   0.82750   0.97846   0.00000  Uiso   1.00
H34    H     0.07858   0.59415   0.06631   0.00000  Uiso   1.00
H35    H     0.79945   0.57058   0.86473   0.00000  Uiso   1.00
H36    H     0.73510   0.93485   0.95889   0.00000  Uiso   1.00
H37    H     0.97376   0.44277   0.14413   0.00000  Uiso   1.00
O38    O     0.67556   0.36178   0.81033   0.00000  Uiso   1.00
O39    O     0.90309   0.83967   0.93387   0.00000  Uiso   1.00
O40    O     0.90423   0.19408   0.17690   0.00000  Uiso   1.00
N41    N     0.81041   0.29232   0.84892   0.00000  Uiso   1.00
N42    N     0.68518   0.63289   0.93695   0.00000  Uiso   1.00
N43    N     0.97343   0.17285   0.11014   0.00000  Uiso   1.00
N44    N     0.81957   0.49059   0.86565   0.00000  Uiso   1.00
N45    N     0.69434   0.83116   0.95368   0.00000  Uiso   1.00
N46    N     0.98259   0.37113   0.12687   0.00000  Uiso   1.00
C47    C     0.65147   0.80692   0.63053   0.00000  Uiso   1.00
C48    C     0.61852   0.68110   0.60295   0.00000  Uiso   1.00
C49    C     0.70125   0.68066   0.57043   0.00000  Uiso   1.00
C50    C     0.65279   0.55499   0.54895   0.00000  Uiso   1.00
C51    C     0.62086   0.37802   0.50448   0.00000  Uiso   1.00
C52    C     0.52465   0.82832   0.62720   0.00000  Uiso   1.00
C53    C     0.52846   0.95167   0.61508   0.00000  Uiso   1.00
C54    C     0.40098   0.94994   0.61402   0.00000  Uiso   1.00
C55    C     0.22333   0.00156   0.60724   0.00000  Uiso   1.00
C56    C     0.65144   0.75894   0.67493   0.00000  Uiso   1.00
C57    C     0.76185   0.82397   0.70294   0.00000  Uiso   1.00
C58    C     0.74111   0.76384   0.74208   0.00000  Uiso   1.00
C59    C     0.76033   0.70773   0.80939   0.00000  Uiso   1.00
C60    C     0.41830   0.58453   0.65021   0.00000  Uiso   1.00
C61    C     0.49186   0.56031   0.61363   0.00000  Uiso   1.00
C62    C     0.44327   0.43461   0.59220   0.00000  Uiso   1.00
C63    C     0.52592   0.43398   0.55966   0.00000  Uiso   1.00
C64    C     0.39800   0.70753   0.63789   0.00000  Uiso   1.00
C65    C     0.27048   0.70562   0.63685   0.00000  Uiso   1.00
C66    C     0.27410   0.82893   0.62473   0.00000  Uiso   1.00
C67    C     0.52479   0.63814   0.68562   0.00000  Uiso   1.00
C68    C     0.50387   0.57791   0.72471   0.00000  Uiso   1.00
C69    C     0.61423   0.64283   0.75278   0.00000  Uiso   1.00
H70    H     0.75006   0.90097   0.62221   0.00000  Uiso   1.00
H71    H     0.79925   0.77417   0.56216   0.00000  Uiso   1.00
H72    H     0.62649   0.04514   0.60682   0.00000  Uiso   1.00
H73    H     0.85984   0.91744   0.69466   0.00000  Uiso   1.00
H74    H     0.79790   0.58032   0.50030   0.00000  Uiso   1.00
H75    H     0.43363   0.15170   0.59446   0.00000  Uiso   1.00
H76    H     0.92571   0.88244   0.77970   0.00000  Uiso   1.00
H77    H     0.31969   0.49048   0.65853   0.00000  Uiso   1.00
H78    H     0.34526   0.34115   0.60048   0.00000  Uiso   1.00
H79    H     0.17250   0.61212   0.64513   0.00000  Uiso   1.00
H80    H     0.40585   0.48443   0.73297   0.00000  Uiso   1.00
H81    H     0.42942   0.22887   0.53139   0.00000  Uiso   1.00
H82    H     0.06515   0.80025   0.62556   0.00000  Uiso   1.00
H83    H     0.55723   0.53099   0.81080   0.00000  Uiso   1.00
O84    O     0.63822   0.31378   0.47699   0.00000  Uiso   1.00
O85    O     0.16033   0.06341   0.60054   0.00000  Uiso   1.00
O86    O     0.80592   0.71014   0.84357   0.00000  Uiso   1.00
N87    N     0.70768   0.51810   0.51559   0.00000  Uiso   1.00
N88    N     0.36711   0.05229   0.60362   0.00000  Uiso   1.00
N89    N     0.82715   0.80058   0.77681   0.00000  Uiso   1.00
N90    N     0.50941   0.32898   0.53232   0.00000  Uiso   1.00
N91    N     0.16884   0.86318   0.62035   0.00000  Uiso   1.00
N92    N     0.62887   0.61146   0.79354   0.00000  Uiso   1.00
C93    C     0.19308   0.84455   0.29720   0.00000  Uiso   1.00
C94    C     0.31890   0.93742   0.26961   0.00000  Uiso   1.00
C95    C     0.31934   0.02059   0.23710   0.00000  Uiso   1.00
C96    C     0.44501   0.09780   0.21562   0.00000  Uiso   1.00
C97    C     0.62198   0.24284   0.17114   0.00000  Uiso   1.00
C98    C     0.17168   0.69632   0.29387   0.00000  Uiso   1.00
C99    C     0.04833   0.57679   0.28175   0.00000  Uiso   1.00
C100   C     0.05006   0.45104   0.28069   0.00000  Uiso   1.00
C101   C     0.99844   0.22176   0.27390   0.00000  Uiso   1.00
C102   C     0.24106   0.89250   0.34159   0.00000  Uiso   1.00
C103   C     0.17603   0.93788   0.36961   0.00000  Uiso   1.00
C104   C     0.23616   0.97727   0.40874   0.00000  Uiso   1.00
C105   C     0.29227   0.05259   0.47606   0.00000  Uiso   1.00
C106   C     0.41547   0.83377   0.31688   0.00000  Uiso   1.00
C107   C     0.43969   0.93156   0.28030   0.00000  Uiso   1.00
C108   C     0.56539   0.00867   0.25887   0.00000  Uiso   1.00
C109   C     0.56602   0.09194   0.22632   0.00000  Uiso   1.00
C110   C     0.29247   0.69046   0.30455   0.00000  Uiso   1.00
C111   C     0.29438   0.56486   0.30352   0.00000  Uiso   1.00
C112   C     0.17107   0.44517   0.29140   0.00000  Uiso   1.00
C113   C     0.36186   0.88665   0.35228   0.00000  Uiso   1.00
C114   C     0.42209   0.92596   0.39138   0.00000  Uiso   1.00
C115   C     0.35717   0.97141   0.41945   0.00000  Uiso   1.00
H116   H     0.09903   0.84910   0.28888   0.00000  Uiso   1.00
H117   H     0.22583   0.02508   0.22883   0.00000  Uiso   1.00
H118   H     0.95486   0.58135   0.27348   0.00000  Uiso   1.00
H119   H     0.08256   0.94240   0.36133   0.00000  Uiso   1.00
H120   H     0.41968   0.21758   0.16696   0.00000  Uiso   1.00
H121   H     0.84830   0.28194   0.26113   0.00000  Uiso   1.00
H122   H     0.11756   0.04327   0.44637   0.00000  Uiso   1.00
H123   H     0.50952   0.82920   0.32520   0.00000  Uiso   1.00
H124   H     0.65885   0.00411   0.26714   0.00000  Uiso   1.00
H125   H     0.38788   0.56037   0.31179   0.00000  Uiso   1.00
H126   H     0.51557   0.92142   0.39964   0.00000  Uiso   1.00
H127   H     0.77113   0.20055   0.19806   0.00000  Uiso   1.00
H128   H     0.19975   0.26490   0.29222   0.00000  Uiso   1.00
H129   H     0.46901   0.02624   0.47747   0.00000  Uiso   1.00
O130   O     0.68622   0.32444   0.14366   0.00000  Uiso   1.00
O131   O     0.93659   0.09691   0.26720   0.00000  Uiso   1.00
O132   O     0.28986   0.09577   0.51024   0.00000  Uiso   1.00
N133   N     0.48190   0.18959   0.18225   0.00000  Uiso   1.00
N134   N     0.94771   0.31482   0.27028   0.00000  Uiso   1.00
N135   N     0.19942   0.02657   0.44347   0.00000  Uiso   1.00
N136   N     0.67102   0.18043   0.19899   0.00000  Uiso   1.00
N137   N     0.13682   0.30566   0.28702   0.00000  Uiso   1.00
N138   N     0.38854   0.01741   0.46021   0.00000  Uiso   1.00
C139   C     0.34853   0.15545   0.03614   0.00000  Uiso   1.00
C140   C     0.38148   0.06258   0.06372   0.00000  Uiso   1.00
C141   C     0.29875   0.97941   0.09624   0.00000  Uiso   1.00
C142   C     0.34721   0.90220   0.11772   0.00000  Uiso   1.00
C143   C     0.37914   0.75716   0.16219   0.00000  Uiso   1.00
C144   C     0.47535   0.30368   0.03947   0.00000  Uiso   1.00
C145   C     0.47154   0.42321   0.05159   0.00000  Uiso   1.00
C146   C     0.59902   0.54896   0.05264   0.00000  Uiso   1.00
C147   C     0.77667   0.77824   0.05943   0.00000  Uiso   1.00
C148   C     0.34856   0.10750   0.99174   0.00000  Uiso   1.00
C149   C     0.23815   0.06212   0.96372   0.00000  Uiso   1.00
C150   C     0.25889   0.02273   0.92459   0.00000  Uiso   1.00
C151   C     0.23967   0.94741   0.85727   0.00000  Uiso   1.00
C152   C     0.58170   0.16623   0.01646   0.00000  Uiso   1.00
C153   C     0.50814   0.06844   0.05303   0.00000  Uiso   1.00
C154   C     0.55673   0.99133   0.07447   0.00000  Uiso   1.00
C155   C     0.47408   0.90806   0.10701   0.00000  Uiso   1.00
C156   C     0.60200   0.30954   0.02878   0.00000  Uiso   1.00
C157   C     0.72952   0.43514   0.02981   0.00000  Uiso   1.00
C158   C     0.72590   0.55483   0.04193   0.00000  Uiso   1.00
C159   C     0.47521   0.11335   0.98105   0.00000  Uiso   1.00
C160   C     0.49613   0.07404   0.94195   0.00000  Uiso   1.00
C161   C     0.38577   0.02859   0.91388   0.00000  Uiso   1.00
H162   H     0.24994   0.15090   0.04446   0.00000  Uiso   1.00
H163   H     0.20075   0.97492   0.10450   0.00000  Uiso   1.00
H164   H     0.37351   0.41865   0.05985   0.00000  Uiso   1.00
H165   H     0.14016   0.05760   0.97200   0.00000  Uiso   1.00
H166   H     0.20210   0.78242   0.16637   0.00000  Uiso   1.00
H167   H     0.56637   0.71806   0.07221   0.00000  Uiso   1.00
H168   H     0.07429   0.95673   0.88696   0.00000  Uiso   1.00
H169   H     0.68031   0.17080   0.00814   0.00000  Uiso   1.00
H170   H     0.65474   0.99589   0.06619   0.00000  Uiso   1.00
H171   H     0.82750   0.43963   0.02154   0.00000  Uiso   1.00
H172   H     0.59415   0.07858   0.93369   0.00000  Uiso   1.00
H173   H     0.57058   0.79945   0.13527   0.00000  Uiso   1.00
H174   H     0.93485   0.73510   0.04111   0.00000  Uiso   1.00
H175   H     0.44277   0.97376   0.85587   0.00000  Uiso   1.00
O176   O     0.36178   0.67556   0.18967   0.00000  Uiso   1.00
O177   O     0.83967   0.90309   0.06613   0.00000  Uiso   1.00
O178   O     0.19408   0.90423   0.82310   0.00000  Uiso   1.00
N179   N     0.29232   0.81041   0.15108   0.00000  Uiso   1.00
N180   N     0.63289   0.68518   0.06305   0.00000  Uiso   1.00
N181   N     0.17285   0.97343   0.88986   0.00000  Uiso   1.00
N182   N     0.49059   0.81957   0.13435   0.00000  Uiso   1.00
N183   N     0.83116   0.69434   0.04632   0.00000  Uiso   1.00
N184   N     0.37113   0.98259   0.87313   0.00000  Uiso   1.00
C185   C     0.80692   0.65147   0.36947   0.00000  Uiso   1.00
C186   C     0.68110   0.61852   0.39705   0.00000  Uiso   1.00
C187   C     0.68066   0.70125   0.42957   0.00000  Uiso   1.00
C188   C     0.55499   0.65279   0.45105   0.00000  Uiso   1.00
C189   C     0.37802   0.62086   0.49552   0.00000  Uiso   1.00
C190   C     0.82832   0.52465   0.37280   0.00000  Uiso   1.00
C191   C     0.95167   0.52846   0.38492   0.00000  Uiso   1.00
C192   C     0.94994   0.40098   0.38598   0.00000  Uiso   1.00
C193   C     0.00156   0.22333   0.39276   0.00000  Uiso   1.00
C194   C     0.75894   0.65144   0.32507   0.00000  Uiso   1.00
C195   C     0.82397   0.76185   0.29706   0.00000  Uiso   1.00
C196   C     0.76384   0.74111   0.25792   0.00000  Uiso   1.00
C197   C     0.70773   0.76033   0.19061   0.00000  Uiso   1.00
C198   C     0.58453   0.41830   0.34979   0.00000  Uiso   1.00
C199   C     0.56031   0.49186   0.38637   0.00000  Uiso   1.00
C200   C     0.43461   0.44327   0.40780   0.00000  Uiso   1.00
C201   C     0.43398   0.52592   0.44034   0.00000  Uiso   1.00
C202   C     0.70753   0.39800   0.36211   0.00000  Uiso   1.00
C203   C     0.70562   0.27048   0.36315   0.00000  Uiso   1.00
C204   C     0.82893   0.27410   0.37527   0.00000  Uiso   1.00
C205   C     0.63814   0.52479   0.31438   0.00000  Uiso   1.00
C206   C     0.57791   0.50387   0.27529   0.00000  Uiso   1.00
C207   C     0.64283   0.61423   0.24722   0.00000  Uiso   1.00
H208   H     0.90097   0.75006   0.37779   0.00000  Uiso   1.00
H209   H     0.77417   0.79925   0.43784   0.00000  Uiso   1.00
H210   H     0.04514   0.62649   0.39318   0.00000  Uiso   1.00
H211   H     0.91744   0.85984   0.30534   0.00000  Uiso   1.00
H212   H     0.58032   0.79790   0.49970   0.00000  Uiso   1.00
H213   H     0.15170   0.43363   0.40554   0.00000  Uiso   1.00
H214   H     0.88244   0.92571   0.22030   0.00000  Uiso   1.00
H215   H     0.49048   0.31969   0.34147   0.00000  Uiso   1.00
H216   H     0.34115   0.34526   0.39952   0.00000  Uiso   1.00
H217   H     0.61212   0.17250   0.35487   0.00000  Uiso   1.00
H218   H     0.48443   0.40585   0.26703   0.00000  Uiso   1.00
H219   H     0.22887   0.42942   0.46861   0.00000  Uiso   1.00
H220   H     0.80025   0.06515   0.37444   0.00000  Uiso   1.00
H221   H     0.53099   0.55723   0.18920   0.00000  Uiso   1.00
O222   O     0.31378   0.63822   0.52301   0.00000  Uiso   1.00
O223   O     0.06341   0.16033   0.39946   0.00000  Uiso   1.00
O224   O     0.71014   0.80592   0.15643   0.00000  Uiso   1.00
N225   N     0.51810   0.70768   0.48441   0.00000  Uiso   1.00
N226   N     0.05229   0.36711   0.39638   0.00000  Uiso   1.00
N227   N     0.80058   0.82715   0.22319   0.00000  Uiso   1.00
N228   N     0.32898   0.50941   0.46768   0.00000  Uiso   1.00
N229   N     0.86318   0.16884   0.37965   0.00000  Uiso   1.00
N230   N     0.61146   0.62887   0.20646   0.00000  Uiso   1.00
C231   C     0.84455   0.19308   0.70280   0.00000  Uiso   1.00
C232   C     0.93742   0.31890   0.73039   0.00000  Uiso   1.00
C233   C     0.02059   0.31934   0.76290   0.00000  Uiso   1.00
C234   C     0.09780   0.44501   0.78438   0.00000  Uiso   1.00
C235   C     0.24284   0.62198   0.82886   0.00000  Uiso   1.00
C236   C     0.69632   0.17168   0.70613   0.00000  Uiso   1.00
C237   C     0.57679   0.04833   0.71825   0.00000  Uiso   1.00
C238   C     0.45104   0.05006   0.71931   0.00000  Uiso   1.00
C239   C     0.22176   0.99844   0.72610   0.00000  Uiso   1.00
C240   C     0.89250   0.24106   0.65841   0.00000  Uiso   1.00
C241   C     0.93788   0.17603   0.63039   0.00000  Uiso   1.00
C242   C     0.97727   0.23616   0.59126   0.00000  Uiso   1.00
C243   C     0.05259   0.29227   0.52394   0.00000  Uiso   1.00
C244   C     0.83377   0.41547   0.68312   0.00000  Uiso   1.00
C245   C     0.93156   0.43969   0.71970   0.00000  Uiso   1.00
C246   C     0.00867   0.56539   0.74113   0.00000  Uiso   1.00
C247   C     0.09194   0.56602   0.77368   0.00000  Uiso   1.00
C248   C     0.69046   0.29247   0.69545   0.00000  Uiso   1.00
C249   C     0.56486   0.29438   0.69648   0.00000  Uiso   1.00
C250   C     0.44517   0.17107   0.70860   0.00000  Uiso   1.00
C251   C     0.88665   0.36186   0.64772   0.00000  Uiso   1.00
C252   C     0.92596   0.42209   0.60862   0.00000  Uiso   1.00
C253   C     0.97141   0.35717   0.58055   0.00000  Uiso   1.00
H254   H     0.84910   0.09903   0.71112   0.00000  Uiso   1.00
H255   H     0.02508   0.22583   0.77117   0.00000  Uiso   1.00
H256   H     0.58135   0.95486   0.72652   0.00000  Uiso   1.00
H257   H     0.94240   0.08256   0.63867   0.00000  Uiso   1.00
H258   H     0.21758   0.41968   0.83304   0.00000  Uiso   1.00
H259   H     0.28194   0.84830   0.73887   0.00000  Uiso   1.00
H260   H     0.04327   0.11756   0.55363   0.00000  Uiso   1.00
H261   H     0.82920   0.50952   0.67480   0.00000  Uiso   1.00
H262   H     0.00411   0.65885   0.73286   0.00000  Uiso   1.00
H263   H     0.56037   0.38788   0.68821   0.00000  Uiso   1.00
H264   H     0.92142   0.51557   0.60036   0.00000  Uiso   1.00
H265   H     0.20055   0.77113   0.80194   0.00000  Uiso   1.00
H266   H     0.26490   0.19975   0.70778   0.00000  Uiso   1.00
H267   H     0.02624   0.46901   0.52253   0.00000  Uiso   1.00
O268   O     0.32444   0.68622   0.85634   0.00000  Uiso   1.00
O269   O     0.09691   0.93659   0.73280   0.00000  Uiso   1.00
O270   O     0.09577   0.28986   0.48976   0.00000  Uiso   1.00
N271   N     0.18959   0.48190   0.81775   0.00000  Uiso   1.00
N272   N     0.31482   0.94771   0.72972   0.00000  Uiso   1.00
N273   N     0.02657   0.19942   0.55653   0.00000  Uiso   1.00
N274   N     0.18043   0.67102   0.80101   0.00000  Uiso   1.00
N275   N     0.30566   0.13682   0.71298   0.00000  Uiso   1.00
N276   N     0.01741   0.38854   0.53979   0.00000  Uiso   1.00
