data_job_06342
_audit_creation_date              2018-12-19
_audit_creation_method            'Materials Studio'
_symmetry_space_group_name_H-M    'P1'
_symmetry_Int_Tables_number       1
_symmetry_cell_setting            triclinic
loop_
_symmetry_equiv_pos_as_xyz
  x,y,z
_cell_length_a                    14.8437
_cell_length_b                    14.8171
_cell_length_c                    14.7933
_cell_angle_alpha                 88.8864
_cell_angle_beta                  88.9199
_cell_angle_gamma                 88.9594
loop_
_atom_site_label
_atom_site_type_symbol
_atom_site_fract_x
_atom_site_fract_y
_atom_site_fract_z
_atom_site_U_iso_or_equiv
_atom_site_adp_type
_atom_site_occupancy
C1     C     0.20351   0.61338   0.17937   0.00000  Uiso   1.00
C2     C     0.17286   0.52233   0.21734   0.00000  Uiso   1.00
C3     C     0.12254   0.46018   0.17190   0.00000  Uiso   1.00
C4     C     0.10132   0.38084   0.21836   0.00000  Uiso   1.00
C5     C     0.04942   0.24200   0.26383   0.00000  Uiso   1.00
C6     C     0.16740   0.68387   0.24518   0.00000  Uiso   1.00
C7     C     0.11250   0.75755   0.22314   0.00000  Uiso   1.00
C8     C     0.08670   0.81420   0.29304   0.00000  Uiso   1.00
C9     C     0.02638   0.92620   0.38172   0.00000  Uiso   1.00
C10    C     0.30577   0.61310   0.18754   0.00000  Uiso   1.00
C11    C     0.36720   0.62731   0.11705   0.00000  Uiso   1.00
C12    C     0.45790   0.62440   0.13843   0.00000  Uiso   1.00
C13    C     0.61240   0.62651   0.13762   0.00000  Uiso   1.00
C14    C     0.25533   0.58299   0.34270   0.00000  Uiso   1.00
C15    C     0.20101   0.50583   0.30605   0.00000  Uiso   1.00
C16    C     0.17987   0.42656   0.35260   0.00000  Uiso   1.00
C17    C     0.12952   0.36430   0.30724   0.00000  Uiso   1.00
C18    C     0.19555   0.66737   0.33389   0.00000  Uiso   1.00
C19    C     0.16983   0.72393   0.40384   0.00000  Uiso   1.00
C20    C     0.11490   0.79767   0.38192   0.00000  Uiso   1.00
C21    C     0.33392   0.59660   0.27626   0.00000  Uiso   1.00
C22    C     0.42454   0.59367   0.29776   0.00000  Uiso   1.00
C23    C     0.48610   0.60786   0.22731   0.00000  Uiso   1.00
H24    H     0.18159   0.62623   0.11031   0.00000  Uiso   1.00
H25    H     0.10076   0.47298   0.10324   0.00000  Uiso   1.00
H26    H     0.09074   0.77031   0.15448   0.00000  Uiso   1.00
H27    H     0.34540   0.64008   0.04841   0.00000  Uiso   1.00
H28    H     0.02353   0.29581   0.13455   0.00000  Uiso   1.00
H29    H     0.00241   0.92276   0.24257   0.00000  Uiso   1.00
H30    H     0.53942   0.64814   0.01889   0.00000  Uiso   1.00
H31    H     0.27724   0.57014   0.41178   0.00000  Uiso   1.00
H32    H     0.20166   0.41380   0.42125   0.00000  Uiso   1.00
H33    H     0.19163   0.71114   0.47248   0.00000  Uiso   1.00
H34    H     0.44629   0.58090   0.36641   0.00000  Uiso   1.00
H35    H     0.10542   0.24778   0.39266   0.00000  Uiso   1.00
H36    H     0.08430   0.87474   0.50067   0.00000  Uiso   1.00
H37    H     0.62131   0.60011   0.27700   0.00000  Uiso   1.00
O38    O     0.01300   0.16998   0.26441   0.00000  Uiso   1.00
O39    O     0.98531   0.99253   0.40612   0.00000  Uiso   1.00
O40    O     0.68985   0.63223   0.11266   0.00000  Uiso   1.00
N41    N     0.05319   0.30595   0.19399   0.00000  Uiso   1.00
N42    N     0.03344   0.89211   0.29498   0.00000  Uiso   1.00
N43    N     0.53549   0.63539   0.08587   0.00000  Uiso   1.00
N44    N     0.09725   0.28011   0.33287   0.00000  Uiso   1.00
N45    N     0.07750   0.86626   0.43387   0.00000  Uiso   1.00
N46    N     0.57955   0.60954   0.22475   0.00000  Uiso   1.00
C47    C     0.17992   0.20359   0.61337   0.00000  Uiso   1.00
C48    C     0.21771   0.17295   0.52221   0.00000  Uiso   1.00
C49    C     0.17239   0.12256   0.45998   0.00000  Uiso   1.00
C50    C     0.21866   0.10138   0.38054   0.00000  Uiso   1.00
C51    C     0.26391   0.04948   0.24152   0.00000  Uiso   1.00
C52    C     0.24551   0.16739   0.68402   0.00000  Uiso   1.00
C53    C     0.22354   0.11233   0.75785   0.00000  Uiso   1.00
C54    C     0.29322   0.08648   0.81463   0.00000  Uiso   1.00
C55    C     0.38161   0.02599   0.92686   0.00000  Uiso   1.00
C56    C     0.18810   0.30603   0.61304   0.00000  Uiso   1.00
C57    C     0.11787   0.36755   0.62720   0.00000  Uiso   1.00
C58    C     0.13922   0.45842   0.62423   0.00000  Uiso   1.00
C59    C     0.13847   0.61319   0.62625   0.00000  Uiso   1.00
C60    C     0.34270   0.25557   0.58294   0.00000  Uiso   1.00
C61    C     0.30613   0.20119   0.50568   0.00000  Uiso   1.00
C62    C     0.35249   0.18008   0.42631   0.00000  Uiso   1.00
C63    C     0.30724   0.12967   0.36398   0.00000  Uiso   1.00
C64    C     0.33392   0.19562   0.66750   0.00000  Uiso   1.00
C65    C     0.40365   0.16985   0.72418   0.00000  Uiso   1.00
C66    C     0.38180   0.11476   0.79807   0.00000  Uiso   1.00
C67    C     0.27652   0.33427   0.59651   0.00000  Uiso   1.00
C68    C     0.29797   0.42506   0.59353   0.00000  Uiso   1.00
C69    C     0.22780   0.48670   0.60768   0.00000  Uiso   1.00
H70    H     0.11109   0.18160   0.62624   0.00000  Uiso   1.00
H71    H     0.10396   0.10072   0.47280   0.00000  Uiso   1.00
H72    H     0.15511   0.09050   0.77062   0.00000  Uiso   1.00
H73    H     0.04946   0.34567   0.63999   0.00000  Uiso   1.00
H74    H     0.13507   0.02347   0.29540   0.00000  Uiso   1.00
H75    H     0.24292   0.00195   0.92340   0.00000  Uiso   1.00
H76    H     0.02012   0.54003   0.64794   0.00000  Uiso   1.00
H77    H     0.41154   0.27755   0.57008   0.00000  Uiso   1.00
H78    H     0.42091   0.20194   0.41354   0.00000  Uiso   1.00
H79    H     0.47206   0.19172   0.71137   0.00000  Uiso   1.00
H80    H     0.36640   0.44689   0.58074   0.00000  Uiso   1.00
H81    H     0.39232   0.10562   0.24731   0.00000  Uiso   1.00
H82    H     0.50016   0.08410   0.87532   0.00000  Uiso   1.00
H83    H     0.27737   0.62218   0.59985   0.00000  Uiso   1.00
O84    O     0.26445   0.01304   0.16941   0.00000  Uiso   1.00
O85    O     0.40593   0.98482   0.99333   0.00000  Uiso   1.00
O86    O     0.11363   0.69077   0.63192   0.00000  Uiso   1.00
N87    N     0.19432   0.05320   0.30556   0.00000  Uiso   1.00
N88    N     0.29516   0.03306   0.89269   0.00000  Uiso   1.00
N89    N     0.08686   0.53612   0.63518   0.00000  Uiso   1.00
N90    N     0.33274   0.09740   0.27968   0.00000  Uiso   1.00
N91    N     0.43358   0.07727   0.86682   0.00000  Uiso   1.00
N92    N     0.22529   0.58033   0.60930   0.00000  Uiso   1.00
C93    C     0.61329   0.17965   0.20378   0.00000  Uiso   1.00
C94    C     0.52245   0.21750   0.17305   0.00000  Uiso   1.00
C95    C     0.46040   0.17211   0.12259   0.00000  Uiso   1.00
C96    C     0.38123   0.21846   0.10132   0.00000  Uiso   1.00
C97    C     0.24269   0.26378   0.04927   0.00000  Uiso   1.00
C98    C     0.68372   0.24540   0.16750   0.00000  Uiso   1.00
C99    C     0.75727   0.22346   0.11239   0.00000  Uiso   1.00
C100   C     0.81387   0.29330   0.08646   0.00000  Uiso   1.00
C101   C     0.92574   0.38192   0.02585   0.00000  Uiso   1.00
C102   C     0.61300   0.18778   0.30638   0.00000  Uiso   1.00
C103   C     0.62711   0.11739   0.36804   0.00000  Uiso   1.00
C104   C     0.62419   0.13872   0.45905   0.00000  Uiso   1.00
C105   C     0.62625   0.13787   0.61407   0.00000  Uiso   1.00
C106   C     0.58305   0.34269   0.25573   0.00000  Uiso   1.00
C107   C     0.50602   0.30606   0.20127   0.00000  Uiso   1.00
C108   C     0.42693   0.35249   0.18007   0.00000  Uiso   1.00
C109   C     0.36477   0.30717   0.12959   0.00000  Uiso   1.00
C110   C     0.66729   0.33395   0.19572   0.00000  Uiso   1.00
C111   C     0.72380   0.40384   0.16987   0.00000  Uiso   1.00
C112   C     0.79741   0.38201   0.11473   0.00000  Uiso   1.00
C113   C     0.59657   0.27633   0.33460   0.00000  Uiso   1.00
C114   C     0.59364   0.29777   0.42553   0.00000  Uiso   1.00
C115   C     0.60773   0.22743   0.48732   0.00000  Uiso   1.00
H116   H     0.62609   0.11071   0.18180   0.00000  Uiso   1.00
H117   H     0.47314   0.10358   0.10075   0.00000  Uiso   1.00
H118   H     0.76997   0.15492   0.09057   0.00000  Uiso   1.00
H119   H     0.63982   0.04887   0.34618   0.00000  Uiso   1.00
H120   H     0.29633   0.13474   0.02331   0.00000  Uiso   1.00
H121   H     0.92223   0.24299   0.00185   0.00000  Uiso   1.00
H122   H     0.64779   0.01936   0.54087   0.00000  Uiso   1.00
H123   H     0.57026   0.41163   0.27770   0.00000  Uiso   1.00
H124   H     0.41424   0.42102   0.20192   0.00000  Uiso   1.00
H125   H     0.71107   0.47236   0.19173   0.00000  Uiso   1.00
H126   H     0.58092   0.36630   0.44734   0.00000  Uiso   1.00
H127   H     0.24853   0.39238   0.10542   0.00000  Uiso   1.00
H128   H     0.87443   0.50063   0.08396   0.00000  Uiso   1.00
H129   H     0.59999   0.27700   0.62298   0.00000  Uiso   1.00
O130   O     0.17081   0.26432   0.01276   0.00000  Uiso   1.00
O131   O     0.99198   0.40633   0.98462   0.00000  Uiso   1.00
O132   O     0.63191   0.11293   0.69179   0.00000  Uiso   1.00
N133   N     0.30648   0.19408   0.05305   0.00000  Uiso   1.00
N134   N     0.89165   0.29529   0.03298   0.00000  Uiso   1.00
N135   N     0.63510   0.08622   0.53691   0.00000  Uiso   1.00
N136   N     0.28076   0.33272   0.09724   0.00000  Uiso   1.00
N137   N     0.86593   0.43393   0.07716   0.00000  Uiso   1.00
N138   N     0.60938   0.22486   0.58109   0.00000  Uiso   1.00
C139   C     0.79649   0.38662   0.82063   0.00000  Uiso   1.00
C140   C     0.82714   0.47767   0.78266   0.00000  Uiso   1.00
C141   C     0.87746   0.53982   0.82810   0.00000  Uiso   1.00
C142   C     0.89868   0.61916   0.78164   0.00000  Uiso   1.00
C143   C     0.95058   0.75800   0.73617   0.00000  Uiso   1.00
C144   C     0.83260   0.31613   0.75482   0.00000  Uiso   1.00
C145   C     0.88750   0.24245   0.77686   0.00000  Uiso   1.00
C146   C     0.91330   0.18580   0.70696   0.00000  Uiso   1.00
C147   C     0.97362   0.07380   0.61828   0.00000  Uiso   1.00
C148   C     0.69423   0.38690   0.81246   0.00000  Uiso   1.00
C149   C     0.63280   0.37269   0.88295   0.00000  Uiso   1.00
C150   C     0.54210   0.37560   0.86157   0.00000  Uiso   1.00
C151   C     0.38760   0.37349   0.86238   0.00000  Uiso   1.00
C152   C     0.74467   0.41701   0.65730   0.00000  Uiso   1.00
C153   C     0.79899   0.49417   0.69395   0.00000  Uiso   1.00
C154   C     0.82013   0.57344   0.64740   0.00000  Uiso   1.00
C155   C     0.87048   0.63570   0.69276   0.00000  Uiso   1.00
C156   C     0.80445   0.33263   0.66611   0.00000  Uiso   1.00
C157   C     0.83017   0.27607   0.59616   0.00000  Uiso   1.00
C158   C     0.88510   0.20233   0.61809   0.00000  Uiso   1.00
C159   C     0.66608   0.40340   0.72374   0.00000  Uiso   1.00
C160   C     0.57546   0.40632   0.70225   0.00000  Uiso   1.00
C161   C     0.51390   0.39214   0.77269   0.00000  Uiso   1.00
H162   H     0.81841   0.37377   0.88969   0.00000  Uiso   1.00
H163   H     0.89924   0.52702   0.89676   0.00000  Uiso   1.00
H164   H     0.90926   0.22969   0.84552   0.00000  Uiso   1.00
H165   H     0.65460   0.35992   0.95159   0.00000  Uiso   1.00
H166   H     0.97647   0.70419   0.86545   0.00000  Uiso   1.00
H167   H     0.99759   0.07724   0.75744   0.00000  Uiso   1.00
H168   H     0.46058   0.35186   0.98111   0.00000  Uiso   1.00
H169   H     0.72276   0.42986   0.58822   0.00000  Uiso   1.00
H170   H     0.79834   0.58620   0.57875   0.00000  Uiso   1.00
H171   H     0.80837   0.28886   0.52752   0.00000  Uiso   1.00
H172   H     0.55371   0.41910   0.63359   0.00000  Uiso   1.00
H173   H     0.89458   0.75222   0.60734   0.00000  Uiso   1.00
H174   H     0.91570   0.12526   0.49933   0.00000  Uiso   1.00
H175   H     0.37869   0.39989   0.72300   0.00000  Uiso   1.00
O176   O     0.98700   0.83002   0.73559   0.00000  Uiso   1.00
O177   O     0.01469   0.00747   0.59388   0.00000  Uiso   1.00
O178   O     0.31015   0.36777   0.88734   0.00000  Uiso   1.00
N179   N     0.94681   0.69405   0.80601   0.00000  Uiso   1.00
N180   N     0.96656   0.10789   0.70502   0.00000  Uiso   1.00
N181   N     0.46451   0.36461   0.91413   0.00000  Uiso   1.00
N182   N     0.90275   0.71989   0.66713   0.00000  Uiso   1.00
N183   N     0.92250   0.13374   0.56613   0.00000  Uiso   1.00
N184   N     0.42045   0.39046   0.77525   0.00000  Uiso   1.00
C185   C     0.82008   0.79641   0.38663   0.00000  Uiso   1.00
C186   C     0.78229   0.82705   0.47779   0.00000  Uiso   1.00
C187   C     0.82761   0.87744   0.54002   0.00000  Uiso   1.00
C188   C     0.78134   0.89862   0.61946   0.00000  Uiso   1.00
C189   C     0.73609   0.95052   0.75848   0.00000  Uiso   1.00
C190   C     0.75449   0.83261   0.31598   0.00000  Uiso   1.00
C191   C     0.77646   0.88767   0.24215   0.00000  Uiso   1.00
C192   C     0.70678   0.91352   0.18537   0.00000  Uiso   1.00
C193   C     0.61839   0.97401   0.07314   0.00000  Uiso   1.00
C194   C     0.81190   0.69397   0.38697   0.00000  Uiso   1.00
C195   C     0.88213   0.63245   0.37280   0.00000  Uiso   1.00
C196   C     0.86078   0.54158   0.37577   0.00000  Uiso   1.00
C197   C     0.86153   0.38681   0.37375   0.00000  Uiso   1.00
C198   C     0.65730   0.74443   0.41706   0.00000  Uiso   1.00
C199   C     0.69387   0.79881   0.49432   0.00000  Uiso   1.00
C200   C     0.64751   0.81992   0.57369   0.00000  Uiso   1.00
C201   C     0.69276   0.87033   0.63603   0.00000  Uiso   1.00
C202   C     0.66608   0.80438   0.33250   0.00000  Uiso   1.00
C203   C     0.59635   0.83015   0.27582   0.00000  Uiso   1.00
C204   C     0.61820   0.88524   0.20193   0.00000  Uiso   1.00
C205   C     0.72348   0.66573   0.40349   0.00000  Uiso   1.00
C206   C     0.70203   0.57494   0.40647   0.00000  Uiso   1.00
C207   C     0.77220   0.51330   0.39232   0.00000  Uiso   1.00
H208   H     0.88891   0.81840   0.37376   0.00000  Uiso   1.00
H209   H     0.89604   0.89928   0.52720   0.00000  Uiso   1.00
H210   H     0.84489   0.90950   0.22938   0.00000  Uiso   1.00
H211   H     0.95054   0.65433   0.36001   0.00000  Uiso   1.00
H212   H     0.86493   0.97653   0.70460   0.00000  Uiso   1.00
H213   H     0.75708   0.99805   0.07660   0.00000  Uiso   1.00
H214   H     0.97988   0.45997   0.35206   0.00000  Uiso   1.00
H215   H     0.58846   0.72245   0.42992   0.00000  Uiso   1.00
H216   H     0.57909   0.79806   0.58646   0.00000  Uiso   1.00
H217   H     0.52794   0.80828   0.28863   0.00000  Uiso   1.00
H218   H     0.63360   0.55311   0.41926   0.00000  Uiso   1.00
H219   H     0.60768   0.89438   0.75269   0.00000  Uiso   1.00
H220   H     0.49984   0.91590   0.12468   0.00000  Uiso   1.00
H221   H     0.72263   0.37782   0.40015   0.00000  Uiso   1.00
O222   O     0.73555   0.98696   0.83059   0.00000  Uiso   1.00
O223   O     0.59407   0.01518   0.00667   0.00000  Uiso   1.00
O224   O     0.88637   0.30923   0.36808   0.00000  Uiso   1.00
N225   N     0.80568   0.94680   0.69444   0.00000  Uiso   1.00
N226   N     0.70484   0.96694   0.10731   0.00000  Uiso   1.00
N227   N     0.91314   0.46388   0.36482   0.00000  Uiso   1.00
N228   N     0.66726   0.90260   0.72032   0.00000  Uiso   1.00
N229   N     0.56642   0.92273   0.13319   0.00000  Uiso   1.00
N230   N     0.77471   0.41967   0.39070   0.00000  Uiso   1.00
C231   C     0.38671   0.82035   0.79622   0.00000  Uiso   1.00
C232   C     0.47755   0.78250   0.82695   0.00000  Uiso   1.00
C233   C     0.53961   0.82789   0.87741   0.00000  Uiso   1.00
C234   C     0.61877   0.78154   0.89868   0.00000  Uiso   1.00
C235   C     0.75731   0.73622   0.95073   0.00000  Uiso   1.00
C236   C     0.31628   0.75460   0.83250   0.00000  Uiso   1.00
C237   C     0.24273   0.77654   0.88761   0.00000  Uiso   1.00
C238   C     0.18613   0.70670   0.91354   0.00000  Uiso   1.00
C239   C     0.07426   0.61808   0.97415   0.00000  Uiso   1.00
C240   C     0.38700   0.81222   0.69362   0.00000  Uiso   1.00
C241   C     0.37289   0.88261   0.63196   0.00000  Uiso   1.00
C242   C     0.37581   0.86128   0.54095   0.00000  Uiso   1.00
C243   C     0.37375   0.86213   0.38593   0.00000  Uiso   1.00
C244   C     0.41695   0.65731   0.74427   0.00000  Uiso   1.00
C245   C     0.49398   0.69394   0.79873   0.00000  Uiso   1.00
C246   C     0.57307   0.64751   0.81993   0.00000  Uiso   1.00
C247   C     0.63523   0.69283   0.87041   0.00000  Uiso   1.00
C248   C     0.33271   0.66605   0.80428   0.00000  Uiso   1.00
C249   C     0.27620   0.59616   0.83013   0.00000  Uiso   1.00
C250   C     0.20259   0.61799   0.88527   0.00000  Uiso   1.00
C251   C     0.40343   0.72367   0.66540   0.00000  Uiso   1.00
C252   C     0.40636   0.70223   0.57447   0.00000  Uiso   1.00
C253   C     0.39227   0.77257   0.51268   0.00000  Uiso   1.00
H254   H     0.37391   0.88929   0.81820   0.00000  Uiso   1.00
H255   H     0.52686   0.89642   0.89925   0.00000  Uiso   1.00
H256   H     0.23003   0.84508   0.90943   0.00000  Uiso   1.00
H257   H     0.36018   0.95113   0.65382   0.00000  Uiso   1.00
H258   H     0.70367   0.86526   0.97669   0.00000  Uiso   1.00
H259   H     0.07777   0.75701   0.99815   0.00000  Uiso   1.00
H260   H     0.35221   0.98064   0.45913   0.00000  Uiso   1.00
H261   H     0.42974   0.58837   0.72230   0.00000  Uiso   1.00
H262   H     0.58576   0.57898   0.79808   0.00000  Uiso   1.00
H263   H     0.28893   0.52764   0.80827   0.00000  Uiso   1.00
H264   H     0.41908   0.63370   0.55266   0.00000  Uiso   1.00
H265   H     0.75147   0.60762   0.89458   0.00000  Uiso   1.00
H266   H     0.12557   0.49937   0.91604   0.00000  Uiso   1.00
H267   H     0.40001   0.72300   0.37702   0.00000  Uiso   1.00
O268   O     0.82919   0.73568   0.98724   0.00000  Uiso   1.00
O269   O     0.00802   0.59367   0.01538   0.00000  Uiso   1.00
O270   O     0.36809   0.88707   0.30821   0.00000  Uiso   1.00
N271   N     0.69352   0.80592   0.94695   0.00000  Uiso   1.00
N272   N     0.10835   0.70471   0.96702   0.00000  Uiso   1.00
N273   N     0.36490   0.91378   0.46309   0.00000  Uiso   1.00
N274   N     0.71924   0.66728   0.90277   0.00000  Uiso   1.00
N275   N     0.13407   0.56607   0.92284   0.00000  Uiso   1.00
N276   N     0.39062   0.77514   0.41891   0.00000  Uiso   1.00
