data_job_03682
_audit_creation_date              2018-12-19
_audit_creation_method            'Materials Studio'
_symmetry_space_group_name_H-M    'P1'
_symmetry_Int_Tables_number       1
_symmetry_cell_setting            triclinic
loop_
_symmetry_equiv_pos_as_xyz
  x,y,z
_cell_length_a                    20.1578
_cell_length_b                    20.1578
_cell_length_c                    12.3961
_cell_angle_alpha                 90.0000
_cell_angle_beta                  90.0000
_cell_angle_gamma                 120.0000
loop_
_atom_site_label
_atom_site_type_symbol
_atom_site_fract_x
_atom_site_fract_y
_atom_site_fract_z
_atom_site_U_iso_or_equiv
_atom_site_adp_type
_atom_site_occupancy
C1     C     0.32071   0.51722   0.89886   0.00000  Uiso   1.00
C2     C     0.40378   0.53554   0.89422   0.00000  Uiso   1.00
C3     C     0.46758   0.60586   0.91786   0.00000  Uiso   1.00
C4     C     0.53865   0.61099   0.90878   0.00000  Uiso   1.00
C5     C     0.66659   0.64902   0.90634   0.00000  Uiso   1.00
C6     C     0.28732   0.48743   0.78719   0.00000  Uiso   1.00
C7     C     0.25319   0.51730   0.72085   0.00000  Uiso   1.00
C8     C     0.22621   0.48192   0.62167   0.00000  Uiso   1.00
C9     C     0.17329   0.44523   0.45310   0.00000  Uiso   1.00
C10    C     0.27977   0.44926   0.97529   0.00000  Uiso   1.00
C11    C     0.23928   0.44701   0.06709   0.00000  Uiso   1.00
C12    C     0.20594   0.37948   0.12627   0.00000  Uiso   1.00
C13    C     0.14130   0.28351   0.24974   0.00000  Uiso   1.00
C14    C     0.33347   0.40130   0.84071   0.00000  Uiso   1.00
C15    C     0.41071   0.47257   0.86264   0.00000  Uiso   1.00
C16    C     0.48170   0.47760   0.85352   0.00000  Uiso   1.00
C17    C     0.54560   0.54791   0.87714   0.00000  Uiso   1.00
C18    C     0.29425   0.42447   0.75561   0.00000  Uiso   1.00
C19    C     0.26731   0.38904   0.65651   0.00000  Uiso   1.00
C20    C     0.23316   0.41884   0.59003   0.00000  Uiso   1.00
C21    C     0.28671   0.38629   0.94371   0.00000  Uiso   1.00
C22    C     0.25341   0.31875   0.00275   0.00000  Uiso   1.00
C23    C     0.21288   0.31640   0.09462   0.00000  Uiso   1.00
H24    H     0.31531   0.56624   0.92344   0.00000  Uiso   1.00
H25    H     0.46219   0.65457   0.94229   0.00000  Uiso   1.00
H26    H     0.24783   0.56602   0.74531   0.00000  Uiso   1.00
H27    H     0.23393   0.49574   0.09150   0.00000  Uiso   1.00
H28    H     0.62810   0.72474   0.94922   0.00000  Uiso   1.00
H29    H     0.17608   0.53801   0.53390   0.00000  Uiso   1.00
H30    H     0.14677   0.38981   0.26391   0.00000  Uiso   1.00
H31    H     0.33887   0.35228   0.81612   0.00000  Uiso   1.00
H32    H     0.48705   0.42886   0.82908   0.00000  Uiso   1.00
H33    H     0.27269   0.34031   0.63210   0.00000  Uiso   1.00
H34    H     0.25879   0.27004   0.97829   0.00000  Uiso   1.00
H35    H     0.64828   0.54155   0.85733   0.00000  Uiso   1.00
H36    H     0.19625   0.35481   0.44201   0.00000  Uiso   1.00
H37    H     0.16694   0.20662   0.17202   0.00000  Uiso   1.00
O38    O     0.73524   0.68739   0.91370   0.00000  Uiso   1.00
O39    O     0.14219   0.44240   0.36884   0.00000  Uiso   1.00
O40    O     0.10374   0.24797   0.32658   0.00000  Uiso   1.00
N41    N     0.61251   0.67111   0.92583   0.00000  Uiso   1.00
N42    N     0.18991   0.49653   0.53753   0.00000  Uiso   1.00
N43    N     0.16249   0.35798   0.22001   0.00000  Uiso   1.00
N44    N     0.62337   0.57254   0.87639   0.00000  Uiso   1.00
N45    N     0.20076   0.39796   0.48809   0.00000  Uiso   1.00
N46    N     0.17335   0.25940   0.17056   0.00000  Uiso   1.00
C47    C     0.48278   0.80348   0.89886   0.00000  Uiso   1.00
C48    C     0.46446   0.86824   0.89422   0.00000  Uiso   1.00
C49    C     0.39414   0.86173   0.91786   0.00000  Uiso   1.00
C50    C     0.38901   0.92766   0.90878   0.00000  Uiso   1.00
C51    C     0.35098   0.01757   0.90634   0.00000  Uiso   1.00
C52    C     0.51257   0.79988   0.78719   0.00000  Uiso   1.00
C53    C     0.48270   0.73589   0.72085   0.00000  Uiso   1.00
C54    C     0.51808   0.74429   0.62167   0.00000  Uiso   1.00
C55    C     0.55477   0.72806   0.45310   0.00000  Uiso   1.00
C56    C     0.55074   0.83052   0.97529   0.00000  Uiso   1.00
C57    C     0.55299   0.79228   0.06709   0.00000  Uiso   1.00
C58    C     0.62052   0.82646   0.12627   0.00000  Uiso   1.00
C59    C     0.71649   0.85779   0.24974   0.00000  Uiso   1.00
C60    C     0.59870   0.93217   0.84071   0.00000  Uiso   1.00
C61    C     0.52743   0.93814   0.86264   0.00000  Uiso   1.00
C62    C     0.52240   0.00411   0.85352   0.00000  Uiso   1.00
C63    C     0.45209   0.99769   0.87714   0.00000  Uiso   1.00
C64    C     0.57553   0.86978   0.75561   0.00000  Uiso   1.00
C65    C     0.61096   0.87827   0.65651   0.00000  Uiso   1.00
C66    C     0.58116   0.81432   0.59003   0.00000  Uiso   1.00
C67    C     0.61371   0.90042   0.94371   0.00000  Uiso   1.00
C68    C     0.68125   0.93466   0.00275   0.00000  Uiso   1.00
C69    C     0.68360   0.89648   0.09462   0.00000  Uiso   1.00
H70    H     0.43376   0.74906   0.92344   0.00000  Uiso   1.00
H71    H     0.34543   0.80762   0.94229   0.00000  Uiso   1.00
H72    H     0.43398   0.68181   0.74531   0.00000  Uiso   1.00
H73    H     0.50426   0.73819   0.09150   0.00000  Uiso   1.00
H74    H     0.27526   0.90336   0.94922   0.00000  Uiso   1.00
H75    H     0.46199   0.63807   0.53390   0.00000  Uiso   1.00
H76    H     0.61019   0.75695   0.26391   0.00000  Uiso   1.00
H77    H     0.64772   0.98659   0.81612   0.00000  Uiso   1.00
H78    H     0.57114   0.05819   0.82908   0.00000  Uiso   1.00
H79    H     0.65969   0.93237   0.63210   0.00000  Uiso   1.00
H80    H     0.72996   0.98875   0.97829   0.00000  Uiso   1.00
H81    H     0.45845   0.10673   0.85733   0.00000  Uiso   1.00
H82    H     0.64519   0.84144   0.44201   0.00000  Uiso   1.00
H83    H     0.79338   0.96032   0.17202   0.00000  Uiso   1.00
O84    O     0.31261   0.04785   0.91370   0.00000  Uiso   1.00
O85    O     0.55760   0.69980   0.36884   0.00000  Uiso   1.00
O86    O     0.75203   0.85577   0.32658   0.00000  Uiso   1.00
N87    N     0.32889   0.94140   0.92583   0.00000  Uiso   1.00
N88    N     0.50347   0.69337   0.53753   0.00000  Uiso   1.00
N89    N     0.64202   0.80451   0.22001   0.00000  Uiso   1.00
N90    N     0.42746   0.05083   0.87639   0.00000  Uiso   1.00
N91    N     0.60204   0.80281   0.48809   0.00000  Uiso   1.00
N92    N     0.74060   0.91394   0.17056   0.00000  Uiso   1.00
C93    C     0.19652   0.67929   0.89886   0.00000  Uiso   1.00
C94    C     0.13176   0.59622   0.89422   0.00000  Uiso   1.00
C95    C     0.13827   0.53242   0.91786   0.00000  Uiso   1.00
C96    C     0.07234   0.46135   0.90878   0.00000  Uiso   1.00
C97    C     0.98243   0.33341   0.90634   0.00000  Uiso   1.00
C98    C     0.20012   0.71268   0.78719   0.00000  Uiso   1.00
C99    C     0.26411   0.74681   0.72085   0.00000  Uiso   1.00
C100   C     0.25571   0.77379   0.62167   0.00000  Uiso   1.00
C101   C     0.27194   0.82671   0.45310   0.00000  Uiso   1.00
C102   C     0.16948   0.72023   0.97529   0.00000  Uiso   1.00
C103   C     0.20772   0.76072   0.06709   0.00000  Uiso   1.00
C104   C     0.17354   0.79406   0.12627   0.00000  Uiso   1.00
C105   C     0.14221   0.85870   0.24974   0.00000  Uiso   1.00
C106   C     0.06783   0.66653   0.84071   0.00000  Uiso   1.00
C107   C     0.06186   0.58929   0.86264   0.00000  Uiso   1.00
C108   C     0.99589   0.51830   0.85352   0.00000  Uiso   1.00
C109   C     0.00231   0.45440   0.87714   0.00000  Uiso   1.00
C110   C     0.13022   0.70575   0.75561   0.00000  Uiso   1.00
C111   C     0.12173   0.73269   0.65651   0.00000  Uiso   1.00
C112   C     0.18568   0.76684   0.59003   0.00000  Uiso   1.00
C113   C     0.09958   0.71329   0.94371   0.00000  Uiso   1.00
C114   C     0.06534   0.74659   0.00275   0.00000  Uiso   1.00
C115   C     0.10352   0.78712   0.09462   0.00000  Uiso   1.00
H116   H     0.25094   0.68469   0.92344   0.00000  Uiso   1.00
H117   H     0.19238   0.53781   0.94229   0.00000  Uiso   1.00
H118   H     0.31819   0.75217   0.74531   0.00000  Uiso   1.00
H119   H     0.26181   0.76607   0.09150   0.00000  Uiso   1.00
H120   H     0.09664   0.37190   0.94922   0.00000  Uiso   1.00
H121   H     0.36193   0.82392   0.53390   0.00000  Uiso   1.00
H122   H     0.24305   0.85323   0.26391   0.00000  Uiso   1.00
H123   H     0.01341   0.66113   0.81612   0.00000  Uiso   1.00
H124   H     0.94181   0.51295   0.82908   0.00000  Uiso   1.00
H125   H     0.06763   0.72731   0.63210   0.00000  Uiso   1.00
H126   H     0.01125   0.74121   0.97829   0.00000  Uiso   1.00
H127   H     0.89327   0.35172   0.85733   0.00000  Uiso   1.00
H128   H     0.15856   0.80375   0.44201   0.00000  Uiso   1.00
H129   H     0.03968   0.83306   0.17202   0.00000  Uiso   1.00
O130   O     0.95215   0.26476   0.91370   0.00000  Uiso   1.00
O131   O     0.30020   0.85781   0.36884   0.00000  Uiso   1.00
O132   O     0.14423   0.89626   0.32658   0.00000  Uiso   1.00
N133   N     0.05860   0.38749   0.92583   0.00000  Uiso   1.00
N134   N     0.30663   0.81009   0.53753   0.00000  Uiso   1.00
N135   N     0.19549   0.83751   0.22001   0.00000  Uiso   1.00
N136   N     0.94917   0.37663   0.87639   0.00000  Uiso   1.00
N137   N     0.19719   0.79924   0.48809   0.00000  Uiso   1.00
N138   N     0.08606   0.82665   0.17056   0.00000  Uiso   1.00
C139   C     0.67929   0.48278   0.39886   0.00000  Uiso   1.00
C140   C     0.59622   0.46446   0.39422   0.00000  Uiso   1.00
C141   C     0.53242   0.39414   0.41786   0.00000  Uiso   1.00
C142   C     0.46135   0.38901   0.40878   0.00000  Uiso   1.00
C143   C     0.33341   0.35098   0.40634   0.00000  Uiso   1.00
C144   C     0.71268   0.51257   0.28719   0.00000  Uiso   1.00
C145   C     0.74681   0.48270   0.22085   0.00000  Uiso   1.00
C146   C     0.77379   0.51808   0.12167   0.00000  Uiso   1.00
C147   C     0.82671   0.55477   0.95310   0.00000  Uiso   1.00
C148   C     0.72023   0.55074   0.47529   0.00000  Uiso   1.00
C149   C     0.76072   0.55299   0.56709   0.00000  Uiso   1.00
C150   C     0.79406   0.62052   0.62627   0.00000  Uiso   1.00
C151   C     0.85870   0.71649   0.74974   0.00000  Uiso   1.00
C152   C     0.66653   0.59870   0.34071   0.00000  Uiso   1.00
C153   C     0.58929   0.52743   0.36264   0.00000  Uiso   1.00
C154   C     0.51830   0.52240   0.35352   0.00000  Uiso   1.00
C155   C     0.45440   0.45209   0.37714   0.00000  Uiso   1.00
C156   C     0.70575   0.57553   0.25561   0.00000  Uiso   1.00
C157   C     0.73269   0.61096   0.15651   0.00000  Uiso   1.00
C158   C     0.76684   0.58116   0.09003   0.00000  Uiso   1.00
C159   C     0.71329   0.61371   0.44371   0.00000  Uiso   1.00
C160   C     0.74659   0.68125   0.50275   0.00000  Uiso   1.00
C161   C     0.78712   0.68360   0.59462   0.00000  Uiso   1.00
H162   H     0.68469   0.43376   0.42344   0.00000  Uiso   1.00
H163   H     0.53781   0.34543   0.44229   0.00000  Uiso   1.00
H164   H     0.75217   0.43398   0.24531   0.00000  Uiso   1.00
H165   H     0.76607   0.50426   0.59150   0.00000  Uiso   1.00
H166   H     0.37190   0.27526   0.44922   0.00000  Uiso   1.00
H167   H     0.82392   0.46199   0.03390   0.00000  Uiso   1.00
H168   H     0.85323   0.61019   0.76391   0.00000  Uiso   1.00
H169   H     0.66113   0.64772   0.31612   0.00000  Uiso   1.00
H170   H     0.51295   0.57114   0.32908   0.00000  Uiso   1.00
H171   H     0.72731   0.65969   0.13210   0.00000  Uiso   1.00
H172   H     0.74121   0.72996   0.47829   0.00000  Uiso   1.00
H173   H     0.35172   0.45845   0.35733   0.00000  Uiso   1.00
H174   H     0.80375   0.64519   0.94201   0.00000  Uiso   1.00
H175   H     0.83306   0.79338   0.67202   0.00000  Uiso   1.00
O176   O     0.26476   0.31261   0.41370   0.00000  Uiso   1.00
O177   O     0.85781   0.55760   0.86884   0.00000  Uiso   1.00
O178   O     0.89626   0.75203   0.82658   0.00000  Uiso   1.00
N179   N     0.38749   0.32889   0.42583   0.00000  Uiso   1.00
N180   N     0.81009   0.50347   0.03753   0.00000  Uiso   1.00
N181   N     0.83751   0.64202   0.72001   0.00000  Uiso   1.00
N182   N     0.37663   0.42746   0.37639   0.00000  Uiso   1.00
N183   N     0.79924   0.60204   0.98809   0.00000  Uiso   1.00
N184   N     0.82665   0.74060   0.67056   0.00000  Uiso   1.00
C185   C     0.51722   0.19652   0.39886   0.00000  Uiso   1.00
C186   C     0.53554   0.13176   0.39422   0.00000  Uiso   1.00
C187   C     0.60586   0.13827   0.41786   0.00000  Uiso   1.00
C188   C     0.61099   0.07234   0.40878   0.00000  Uiso   1.00
C189   C     0.64902   0.98243   0.40634   0.00000  Uiso   1.00
C190   C     0.48743   0.20012   0.28719   0.00000  Uiso   1.00
C191   C     0.51730   0.26411   0.22085   0.00000  Uiso   1.00
C192   C     0.48192   0.25571   0.12167   0.00000  Uiso   1.00
C193   C     0.44523   0.27194   0.95310   0.00000  Uiso   1.00
C194   C     0.44926   0.16948   0.47529   0.00000  Uiso   1.00
C195   C     0.44701   0.20772   0.56709   0.00000  Uiso   1.00
C196   C     0.37948   0.17354   0.62627   0.00000  Uiso   1.00
C197   C     0.28351   0.14221   0.74974   0.00000  Uiso   1.00
C198   C     0.40130   0.06783   0.34071   0.00000  Uiso   1.00
C199   C     0.47257   0.06186   0.36264   0.00000  Uiso   1.00
C200   C     0.47760   0.99589   0.35352   0.00000  Uiso   1.00
C201   C     0.54791   0.00231   0.37714   0.00000  Uiso   1.00
C202   C     0.42447   0.13022   0.25561   0.00000  Uiso   1.00
C203   C     0.38904   0.12173   0.15651   0.00000  Uiso   1.00
C204   C     0.41884   0.18568   0.09003   0.00000  Uiso   1.00
C205   C     0.38629   0.09958   0.44371   0.00000  Uiso   1.00
C206   C     0.31875   0.06534   0.50275   0.00000  Uiso   1.00
C207   C     0.31640   0.10352   0.59462   0.00000  Uiso   1.00
H208   H     0.56624   0.25094   0.42344   0.00000  Uiso   1.00
H209   H     0.65457   0.19238   0.44229   0.00000  Uiso   1.00
H210   H     0.56602   0.31819   0.24531   0.00000  Uiso   1.00
H211   H     0.49574   0.26181   0.59150   0.00000  Uiso   1.00
H212   H     0.72474   0.09664   0.44922   0.00000  Uiso   1.00
H213   H     0.53801   0.36193   0.03390   0.00000  Uiso   1.00
H214   H     0.38981   0.24305   0.76391   0.00000  Uiso   1.00
H215   H     0.35228   0.01341   0.31612   0.00000  Uiso   1.00
H216   H     0.42886   0.94181   0.32908   0.00000  Uiso   1.00
H217   H     0.34031   0.06763   0.13210   0.00000  Uiso   1.00
H218   H     0.27004   0.01125   0.47829   0.00000  Uiso   1.00
H219   H     0.54155   0.89327   0.35733   0.00000  Uiso   1.00
H220   H     0.35481   0.15856   0.94201   0.00000  Uiso   1.00
H221   H     0.20662   0.03968   0.67202   0.00000  Uiso   1.00
O222   O     0.68739   0.95215   0.41370   0.00000  Uiso   1.00
O223   O     0.44240   0.30020   0.86884   0.00000  Uiso   1.00
O224   O     0.24797   0.14423   0.82658   0.00000  Uiso   1.00
N225   N     0.67111   0.05860   0.42583   0.00000  Uiso   1.00
N226   N     0.49653   0.30663   0.03753   0.00000  Uiso   1.00
N227   N     0.35798   0.19549   0.72001   0.00000  Uiso   1.00
N228   N     0.57254   0.94917   0.37639   0.00000  Uiso   1.00
N229   N     0.39796   0.19719   0.98809   0.00000  Uiso   1.00
N230   N     0.25940   0.08606   0.67056   0.00000  Uiso   1.00
C231   C     0.80348   0.32071   0.39886   0.00000  Uiso   1.00
C232   C     0.86824   0.40378   0.39422   0.00000  Uiso   1.00
C233   C     0.86173   0.46758   0.41786   0.00000  Uiso   1.00
C234   C     0.92766   0.53865   0.40878   0.00000  Uiso   1.00
C235   C     0.01757   0.66659   0.40634   0.00000  Uiso   1.00
C236   C     0.79988   0.28732   0.28719   0.00000  Uiso   1.00
C237   C     0.73589   0.25319   0.22085   0.00000  Uiso   1.00
C238   C     0.74429   0.22621   0.12167   0.00000  Uiso   1.00
C239   C     0.72806   0.17329   0.95310   0.00000  Uiso   1.00
C240   C     0.83052   0.27977   0.47529   0.00000  Uiso   1.00
C241   C     0.79228   0.23928   0.56709   0.00000  Uiso   1.00
C242   C     0.82646   0.20594   0.62627   0.00000  Uiso   1.00
C243   C     0.85779   0.14130   0.74974   0.00000  Uiso   1.00
C244   C     0.93217   0.33347   0.34071   0.00000  Uiso   1.00
C245   C     0.93814   0.41071   0.36264   0.00000  Uiso   1.00
C246   C     0.00411   0.48170   0.35352   0.00000  Uiso   1.00
C247   C     0.99769   0.54560   0.37714   0.00000  Uiso   1.00
C248   C     0.86978   0.29425   0.25561   0.00000  Uiso   1.00
C249   C     0.87827   0.26731   0.15651   0.00000  Uiso   1.00
C250   C     0.81432   0.23316   0.09003   0.00000  Uiso   1.00
C251   C     0.90042   0.28671   0.44371   0.00000  Uiso   1.00
C252   C     0.93466   0.25341   0.50275   0.00000  Uiso   1.00
C253   C     0.89648   0.21288   0.59462   0.00000  Uiso   1.00
H254   H     0.74906   0.31531   0.42344   0.00000  Uiso   1.00
H255   H     0.80762   0.46219   0.44229   0.00000  Uiso   1.00
H256   H     0.68181   0.24783   0.24531   0.00000  Uiso   1.00
H257   H     0.73819   0.23393   0.59150   0.00000  Uiso   1.00
H258   H     0.90336   0.62810   0.44922   0.00000  Uiso   1.00
H259   H     0.63807   0.17608   0.03390   0.00000  Uiso   1.00
H260   H     0.75695   0.14677   0.76391   0.00000  Uiso   1.00
H261   H     0.98659   0.33887   0.31612   0.00000  Uiso   1.00
H262   H     0.05819   0.48705   0.32908   0.00000  Uiso   1.00
H263   H     0.93237   0.27269   0.13210   0.00000  Uiso   1.00
H264   H     0.98875   0.25879   0.47829   0.00000  Uiso   1.00
H265   H     0.10673   0.64828   0.35733   0.00000  Uiso   1.00
H266   H     0.84144   0.19625   0.94201   0.00000  Uiso   1.00
H267   H     0.96032   0.16694   0.67202   0.00000  Uiso   1.00
O268   O     0.04785   0.73524   0.41370   0.00000  Uiso   1.00
O269   O     0.69980   0.14219   0.86884   0.00000  Uiso   1.00
O270   O     0.85577   0.10374   0.82658   0.00000  Uiso   1.00
N271   N     0.94140   0.61251   0.42583   0.00000  Uiso   1.00
N272   N     0.69337   0.18991   0.03753   0.00000  Uiso   1.00
N273   N     0.80451   0.16249   0.72001   0.00000  Uiso   1.00
N274   N     0.05083   0.62337   0.37639   0.00000  Uiso   1.00
N275   N     0.80281   0.20076   0.98809   0.00000  Uiso   1.00
N276   N     0.91394   0.17335   0.67056   0.00000  Uiso   1.00
