data_job_04834
_audit_creation_date              2018-12-19
_audit_creation_method            'Materials Studio'
_symmetry_space_group_name_H-M    'P1'
_symmetry_Int_Tables_number       1
_symmetry_cell_setting            triclinic
loop_
_symmetry_equiv_pos_as_xyz
  x,y,z
_cell_length_a                    16.6033
_cell_length_b                    16.6033
_cell_length_c                    15.5926
_cell_angle_alpha                 90.0000
_cell_angle_beta                  90.0000
_cell_angle_gamma                 90.0000
loop_
_atom_site_label
_atom_site_type_symbol
_atom_site_fract_x
_atom_site_fract_y
_atom_site_fract_z
_atom_site_U_iso_or_equiv
_atom_site_adp_type
_atom_site_occupancy
C1     C     0.34167   0.74689   0.59667   0.00000  Uiso   1.00
C2     C     0.41150   0.70050   0.63662   0.00000  Uiso   1.00
C3     C     0.45870   0.72656   0.70463   0.00000  Uiso   1.00
C4     C     0.51966   0.67532   0.73179   0.00000  Uiso   1.00
C5     C     0.62610   0.61466   0.79980   0.00000  Uiso   1.00
C6     C     0.36149   0.75470   0.50154   0.00000  Uiso   1.00
C7     C     0.36662   0.82633   0.45598   0.00000  Uiso   1.00
C8     C     0.38547   0.82071   0.36943   0.00000  Uiso   1.00
C9     C     0.41422   0.84419   0.22772   0.00000  Uiso   1.00
C10    C     0.26870   0.69135   0.60203   0.00000  Uiso   1.00
C11    C     0.19580   0.70972   0.64094   0.00000  Uiso   1.00
C12    C     0.13651   0.65077   0.63898   0.00000  Uiso   1.00
C13    C     0.02118   0.57589   0.65329   0.00000  Uiso   1.00
C14    C     0.36600   0.60955   0.52397   0.00000  Uiso   1.00
C15    C     0.42472   0.62591   0.59712   0.00000  Uiso   1.00
C16    C     0.48562   0.57461   0.62420   0.00000  Uiso   1.00
C17    C     0.53290   0.60059   0.69224   0.00000  Uiso   1.00
C18    C     0.37470   0.68011   0.46205   0.00000  Uiso   1.00
C19    C     0.39354   0.67438   0.37555   0.00000  Uiso   1.00
C20    C     0.39871   0.74598   0.32987   0.00000  Uiso   1.00
C21    C     0.28191   0.61676   0.56254   0.00000  Uiso   1.00
C22    C     0.22272   0.55777   0.56051   0.00000  Uiso   1.00
C23    C     0.14975   0.57604   0.59942   0.00000  Uiso   1.00
H24    H     0.33138   0.80497   0.62741   0.00000  Uiso   1.00
H25    H     0.44846   0.78430   0.73517   0.00000  Uiso   1.00
H26    H     0.35639   0.88405   0.48655   0.00000  Uiso   1.00
H27    H     0.18559   0.76745   0.67149   0.00000  Uiso   1.00
H28    H     0.58410   0.72849   0.83720   0.00000  Uiso   1.00
H29    H     0.38995   0.93882   0.31299   0.00000  Uiso   1.00
H30    H     0.02979   0.69296   0.70296   0.00000  Uiso   1.00
H31    H     0.37629   0.55148   0.49322   0.00000  Uiso   1.00
H32    H     0.49583   0.51689   0.59363   0.00000  Uiso   1.00
H33    H     0.40376   0.61665   0.34501   0.00000  Uiso   1.00
H34    H     0.23297   0.50005   0.52995   0.00000  Uiso   1.00
H35    H     0.62256   0.51146   0.72232   0.00000  Uiso   1.00
H36    H     0.42839   0.72179   0.19810   0.00000  Uiso   1.00
H37    H     0.06824   0.47592   0.58808   0.00000  Uiso   1.00
O38    O     0.68118   0.60181   0.84821   0.00000  Uiso   1.00
O39    O     0.42643   0.87775   0.16046   0.00000  Uiso   1.00
O40    O     0.95392   0.55519   0.67209   0.00000  Uiso   1.00
N41    N     0.57674   0.68215   0.79640   0.00000  Uiso   1.00
N42    N     0.39522   0.87880   0.30629   0.00000  Uiso   1.00
N43    N     0.05850   0.64895   0.67086   0.00000  Uiso   1.00
N44    N     0.59743   0.56537   0.73458   0.00000  Uiso   1.00
N45    N     0.41591   0.76202   0.24447   0.00000  Uiso   1.00
N46    N     0.07919   0.53216   0.60904   0.00000  Uiso   1.00
C47    C     0.65833   0.25311   0.09667   0.00000  Uiso   1.00
C48    C     0.58850   0.29950   0.13662   0.00000  Uiso   1.00
C49    C     0.54130   0.27344   0.20463   0.00000  Uiso   1.00
C50    C     0.48034   0.32468   0.23179   0.00000  Uiso   1.00
C51    C     0.37390   0.38534   0.29980   0.00000  Uiso   1.00
C52    C     0.63851   0.24530   0.00154   0.00000  Uiso   1.00
C53    C     0.63338   0.17367   0.95598   0.00000  Uiso   1.00
C54    C     0.61453   0.17929   0.86943   0.00000  Uiso   1.00
C55    C     0.58578   0.15581   0.72772   0.00000  Uiso   1.00
C56    C     0.73130   0.30865   0.10203   0.00000  Uiso   1.00
C57    C     0.80420   0.29028   0.14094   0.00000  Uiso   1.00
C58    C     0.86349   0.34923   0.13898   0.00000  Uiso   1.00
C59    C     0.97882   0.42411   0.15329   0.00000  Uiso   1.00
C60    C     0.63400   0.39045   0.02397   0.00000  Uiso   1.00
C61    C     0.57528   0.37409   0.09712   0.00000  Uiso   1.00
C62    C     0.51438   0.42539   0.12420   0.00000  Uiso   1.00
C63    C     0.46710   0.39941   0.19224   0.00000  Uiso   1.00
C64    C     0.62530   0.31989   0.96205   0.00000  Uiso   1.00
C65    C     0.60646   0.32562   0.87555   0.00000  Uiso   1.00
C66    C     0.60129   0.25402   0.82987   0.00000  Uiso   1.00
C67    C     0.71809   0.38324   0.06254   0.00000  Uiso   1.00
C68    C     0.77728   0.44223   0.06051   0.00000  Uiso   1.00
C69    C     0.85025   0.42396   0.09942   0.00000  Uiso   1.00
H70    H     0.66862   0.19503   0.12741   0.00000  Uiso   1.00
H71    H     0.55154   0.21570   0.23517   0.00000  Uiso   1.00
H72    H     0.64361   0.11595   0.98655   0.00000  Uiso   1.00
H73    H     0.81441   0.23255   0.17149   0.00000  Uiso   1.00
H74    H     0.41590   0.27151   0.33720   0.00000  Uiso   1.00
H75    H     0.61005   0.06118   0.81299   0.00000  Uiso   1.00
H76    H     0.97021   0.30704   0.20296   0.00000  Uiso   1.00
H77    H     0.62371   0.44852   0.99322   0.00000  Uiso   1.00
H78    H     0.50417   0.48311   0.09363   0.00000  Uiso   1.00
H79    H     0.59624   0.38335   0.84501   0.00000  Uiso   1.00
H80    H     0.76703   0.49995   0.02995   0.00000  Uiso   1.00
H81    H     0.37744   0.48854   0.22232   0.00000  Uiso   1.00
H82    H     0.57161   0.27821   0.69810   0.00000  Uiso   1.00
H83    H     0.93176   0.52408   0.08808   0.00000  Uiso   1.00
O84    O     0.31882   0.39819   0.34821   0.00000  Uiso   1.00
O85    O     0.57357   0.12225   0.66046   0.00000  Uiso   1.00
O86    O     0.04608   0.44481   0.17209   0.00000  Uiso   1.00
N87    N     0.42326   0.31785   0.29640   0.00000  Uiso   1.00
N88    N     0.60478   0.12120   0.80629   0.00000  Uiso   1.00
N89    N     0.94150   0.35105   0.17086   0.00000  Uiso   1.00
N90    N     0.40257   0.43463   0.23458   0.00000  Uiso   1.00
N91    N     0.58409   0.23798   0.74447   0.00000  Uiso   1.00
N92    N     0.92081   0.46784   0.10904   0.00000  Uiso   1.00
C93    C     0.75311   0.84167   0.34667   0.00000  Uiso   1.00
C94    C     0.79950   0.91150   0.38662   0.00000  Uiso   1.00
C95    C     0.77344   0.95870   0.45463   0.00000  Uiso   1.00
C96    C     0.82468   0.01966   0.48179   0.00000  Uiso   1.00
C97    C     0.88534   0.12610   0.54980   0.00000  Uiso   1.00
C98    C     0.74530   0.86149   0.25154   0.00000  Uiso   1.00
C99    C     0.67367   0.86662   0.20598   0.00000  Uiso   1.00
C100   C     0.67929   0.88547   0.11943   0.00000  Uiso   1.00
C101   C     0.65581   0.91422   0.97772   0.00000  Uiso   1.00
C102   C     0.80865   0.76870   0.35203   0.00000  Uiso   1.00
C103   C     0.79028   0.69580   0.39094   0.00000  Uiso   1.00
C104   C     0.84923   0.63651   0.38898   0.00000  Uiso   1.00
C105   C     0.92411   0.52118   0.40329   0.00000  Uiso   1.00
C106   C     0.89045   0.86600   0.27397   0.00000  Uiso   1.00
C107   C     0.87409   0.92472   0.34712   0.00000  Uiso   1.00
C108   C     0.92539   0.98562   0.37420   0.00000  Uiso   1.00
C109   C     0.89941   0.03290   0.44224   0.00000  Uiso   1.00
C110   C     0.81989   0.87470   0.21205   0.00000  Uiso   1.00
C111   C     0.82562   0.89354   0.12555   0.00000  Uiso   1.00
C112   C     0.75402   0.89871   0.07987   0.00000  Uiso   1.00
C113   C     0.88324   0.78191   0.31254   0.00000  Uiso   1.00
C114   C     0.94223   0.72272   0.31051   0.00000  Uiso   1.00
C115   C     0.92396   0.64975   0.34942   0.00000  Uiso   1.00
H116   H     0.69503   0.83138   0.37741   0.00000  Uiso   1.00
H117   H     0.71570   0.94846   0.48517   0.00000  Uiso   1.00
H118   H     0.61595   0.85639   0.23655   0.00000  Uiso   1.00
H119   H     0.73255   0.68559   0.42149   0.00000  Uiso   1.00
H120   H     0.77151   0.08410   0.58720   0.00000  Uiso   1.00
H121   H     0.56118   0.88995   0.06299   0.00000  Uiso   1.00
H122   H     0.80704   0.52979   0.45296   0.00000  Uiso   1.00
H123   H     0.94852   0.87629   0.24322   0.00000  Uiso   1.00
H124   H     0.98311   0.99583   0.34363   0.00000  Uiso   1.00
H125   H     0.88335   0.90376   0.09501   0.00000  Uiso   1.00
H126   H     0.99995   0.73297   0.27995   0.00000  Uiso   1.00
H127   H     0.98854   0.12256   0.47232   0.00000  Uiso   1.00
H128   H     0.77821   0.92839   0.94810   0.00000  Uiso   1.00
H129   H     0.02408   0.56824   0.33808   0.00000  Uiso   1.00
O130   O     0.89819   0.18118   0.59821   0.00000  Uiso   1.00
O131   O     0.62225   0.92643   0.91046   0.00000  Uiso   1.00
O132   O     0.94481   0.45392   0.42209   0.00000  Uiso   1.00
N133   N     0.81785   0.07674   0.54640   0.00000  Uiso   1.00
N134   N     0.62120   0.89522   0.05629   0.00000  Uiso   1.00
N135   N     0.85105   0.55850   0.42086   0.00000  Uiso   1.00
N136   N     0.93463   0.09743   0.48458   0.00000  Uiso   1.00
N137   N     0.73798   0.91591   0.99447   0.00000  Uiso   1.00
N138   N     0.96784   0.57919   0.35904   0.00000  Uiso   1.00
C139   C     0.24689   0.15833   0.84667   0.00000  Uiso   1.00
C140   C     0.20050   0.08850   0.88662   0.00000  Uiso   1.00
C141   C     0.22656   0.04130   0.95463   0.00000  Uiso   1.00
C142   C     0.17532   0.98034   0.98179   0.00000  Uiso   1.00
C143   C     0.11466   0.87390   0.04980   0.00000  Uiso   1.00
C144   C     0.25470   0.13851   0.75154   0.00000  Uiso   1.00
C145   C     0.32633   0.13338   0.70598   0.00000  Uiso   1.00
C146   C     0.32071   0.11453   0.61943   0.00000  Uiso   1.00
C147   C     0.34419   0.08578   0.47772   0.00000  Uiso   1.00
C148   C     0.19135   0.23130   0.85203   0.00000  Uiso   1.00
C149   C     0.20972   0.30420   0.89094   0.00000  Uiso   1.00
C150   C     0.15077   0.36349   0.88898   0.00000  Uiso   1.00
C151   C     0.07589   0.47882   0.90329   0.00000  Uiso   1.00
C152   C     0.10955   0.13400   0.77397   0.00000  Uiso   1.00
C153   C     0.12591   0.07528   0.84712   0.00000  Uiso   1.00
C154   C     0.07461   0.01438   0.87420   0.00000  Uiso   1.00
C155   C     0.10059   0.96710   0.94224   0.00000  Uiso   1.00
C156   C     0.18011   0.12530   0.71205   0.00000  Uiso   1.00
C157   C     0.17438   0.10646   0.62555   0.00000  Uiso   1.00
C158   C     0.24598   0.10129   0.57987   0.00000  Uiso   1.00
C159   C     0.11676   0.21809   0.81254   0.00000  Uiso   1.00
C160   C     0.05777   0.27728   0.81051   0.00000  Uiso   1.00
C161   C     0.07604   0.35025   0.84942   0.00000  Uiso   1.00
H162   H     0.30497   0.16862   0.87741   0.00000  Uiso   1.00
H163   H     0.28430   0.05154   0.98517   0.00000  Uiso   1.00
H164   H     0.38405   0.14361   0.73655   0.00000  Uiso   1.00
H165   H     0.26745   0.31441   0.92149   0.00000  Uiso   1.00
H166   H     0.22849   0.91590   0.08720   0.00000  Uiso   1.00
H167   H     0.43882   0.11005   0.56299   0.00000  Uiso   1.00
H168   H     0.19296   0.47021   0.95296   0.00000  Uiso   1.00
H169   H     0.05148   0.12371   0.74322   0.00000  Uiso   1.00
H170   H     0.01689   0.00417   0.84363   0.00000  Uiso   1.00
H171   H     0.11665   0.09624   0.59501   0.00000  Uiso   1.00
H172   H     0.00005   0.26703   0.77995   0.00000  Uiso   1.00
H173   H     0.01146   0.87744   0.97232   0.00000  Uiso   1.00
H174   H     0.22179   0.07161   0.44810   0.00000  Uiso   1.00
H175   H     0.97592   0.43176   0.83808   0.00000  Uiso   1.00
O176   O     0.10181   0.81882   0.09821   0.00000  Uiso   1.00
O177   O     0.37775   0.07357   0.41046   0.00000  Uiso   1.00
O178   O     0.05519   0.54608   0.92209   0.00000  Uiso   1.00
N179   N     0.18215   0.92326   0.04640   0.00000  Uiso   1.00
N180   N     0.37880   0.10478   0.55629   0.00000  Uiso   1.00
N181   N     0.14895   0.44150   0.92086   0.00000  Uiso   1.00
N182   N     0.06537   0.90257   0.98458   0.00000  Uiso   1.00
N183   N     0.26202   0.08409   0.49447   0.00000  Uiso   1.00
N184   N     0.03216   0.42081   0.85904   0.00000  Uiso   1.00
C185   C     0.15833   0.24689   0.15333   0.00000  Uiso   1.00
C186   C     0.08850   0.20050   0.11338   0.00000  Uiso   1.00
C187   C     0.04130   0.22656   0.04537   0.00000  Uiso   1.00
C188   C     0.98034   0.17532   0.01821   0.00000  Uiso   1.00
C189   C     0.87390   0.11466   0.95020   0.00000  Uiso   1.00
C190   C     0.13851   0.25470   0.24846   0.00000  Uiso   1.00
C191   C     0.13338   0.32633   0.29402   0.00000  Uiso   1.00
C192   C     0.11453   0.32071   0.38057   0.00000  Uiso   1.00
C193   C     0.08578   0.34419   0.52228   0.00000  Uiso   1.00
C194   C     0.23130   0.19135   0.14797   0.00000  Uiso   1.00
C195   C     0.30420   0.20972   0.10906   0.00000  Uiso   1.00
C196   C     0.36349   0.15077   0.11102   0.00000  Uiso   1.00
C197   C     0.47882   0.07589   0.09671   0.00000  Uiso   1.00
C198   C     0.13400   0.10955   0.22603   0.00000  Uiso   1.00
C199   C     0.07528   0.12591   0.15288   0.00000  Uiso   1.00
C200   C     0.01438   0.07461   0.12580   0.00000  Uiso   1.00
C201   C     0.96710   0.10059   0.05776   0.00000  Uiso   1.00
C202   C     0.12530   0.18011   0.28795   0.00000  Uiso   1.00
C203   C     0.10646   0.17438   0.37445   0.00000  Uiso   1.00
C204   C     0.10129   0.24598   0.42013   0.00000  Uiso   1.00
C205   C     0.21809   0.11676   0.18746   0.00000  Uiso   1.00
C206   C     0.27728   0.05777   0.18949   0.00000  Uiso   1.00
C207   C     0.35025   0.07604   0.15058   0.00000  Uiso   1.00
H208   H     0.16862   0.30497   0.12259   0.00000  Uiso   1.00
H209   H     0.05154   0.28430   0.01483   0.00000  Uiso   1.00
H210   H     0.14361   0.38405   0.26345   0.00000  Uiso   1.00
H211   H     0.31441   0.26745   0.07851   0.00000  Uiso   1.00
H212   H     0.91590   0.22849   0.91280   0.00000  Uiso   1.00
H213   H     0.11005   0.43882   0.43701   0.00000  Uiso   1.00
H214   H     0.47021   0.19296   0.04704   0.00000  Uiso   1.00
H215   H     0.12371   0.05148   0.25678   0.00000  Uiso   1.00
H216   H     0.00417   0.01689   0.15637   0.00000  Uiso   1.00
H217   H     0.09624   0.11665   0.40499   0.00000  Uiso   1.00
H218   H     0.26703   0.00005   0.22005   0.00000  Uiso   1.00
H219   H     0.87744   0.01146   0.02768   0.00000  Uiso   1.00
H220   H     0.07161   0.22179   0.55190   0.00000  Uiso   1.00
H221   H     0.43176   0.97592   0.16192   0.00000  Uiso   1.00
O222   O     0.81882   0.10181   0.90179   0.00000  Uiso   1.00
O223   O     0.07357   0.37775   0.58954   0.00000  Uiso   1.00
O224   O     0.54608   0.05519   0.07791   0.00000  Uiso   1.00
N225   N     0.92326   0.18215   0.95360   0.00000  Uiso   1.00
N226   N     0.10478   0.37880   0.44371   0.00000  Uiso   1.00
N227   N     0.44150   0.14895   0.07914   0.00000  Uiso   1.00
N228   N     0.90257   0.06537   0.01542   0.00000  Uiso   1.00
N229   N     0.08409   0.26202   0.50553   0.00000  Uiso   1.00
N230   N     0.42081   0.03216   0.14096   0.00000  Uiso   1.00
C231   C     0.84167   0.75311   0.65333   0.00000  Uiso   1.00
C232   C     0.91150   0.79950   0.61338   0.00000  Uiso   1.00
C233   C     0.95870   0.77344   0.54537   0.00000  Uiso   1.00
C234   C     0.01966   0.82468   0.51821   0.00000  Uiso   1.00
C235   C     0.12610   0.88534   0.45020   0.00000  Uiso   1.00
C236   C     0.86149   0.74530   0.74846   0.00000  Uiso   1.00
C237   C     0.86662   0.67367   0.79402   0.00000  Uiso   1.00
C238   C     0.88547   0.67929   0.88057   0.00000  Uiso   1.00
C239   C     0.91422   0.65581   0.02228   0.00000  Uiso   1.00
C240   C     0.76870   0.80865   0.64797   0.00000  Uiso   1.00
C241   C     0.69580   0.79028   0.60906   0.00000  Uiso   1.00
C242   C     0.63651   0.84923   0.61102   0.00000  Uiso   1.00
C243   C     0.52118   0.92411   0.59671   0.00000  Uiso   1.00
C244   C     0.86600   0.89045   0.72603   0.00000  Uiso   1.00
C245   C     0.92472   0.87409   0.65288   0.00000  Uiso   1.00
C246   C     0.98562   0.92539   0.62580   0.00000  Uiso   1.00
C247   C     0.03290   0.89941   0.55776   0.00000  Uiso   1.00
C248   C     0.87470   0.81989   0.78795   0.00000  Uiso   1.00
C249   C     0.89354   0.82562   0.87445   0.00000  Uiso   1.00
C250   C     0.89871   0.75402   0.92013   0.00000  Uiso   1.00
C251   C     0.78191   0.88324   0.68746   0.00000  Uiso   1.00
C252   C     0.72272   0.94223   0.68949   0.00000  Uiso   1.00
C253   C     0.64975   0.92396   0.65058   0.00000  Uiso   1.00
H254   H     0.83138   0.69503   0.62259   0.00000  Uiso   1.00
H255   H     0.94846   0.71570   0.51483   0.00000  Uiso   1.00
H256   H     0.85639   0.61595   0.76345   0.00000  Uiso   1.00
H257   H     0.68559   0.73255   0.57851   0.00000  Uiso   1.00
H258   H     0.08410   0.77151   0.41280   0.00000  Uiso   1.00
H259   H     0.88995   0.56118   0.93701   0.00000  Uiso   1.00
H260   H     0.52979   0.80704   0.54704   0.00000  Uiso   1.00
H261   H     0.87629   0.94852   0.75678   0.00000  Uiso   1.00
H262   H     0.99583   0.98311   0.65637   0.00000  Uiso   1.00
H263   H     0.90376   0.88335   0.90499   0.00000  Uiso   1.00
H264   H     0.73297   0.99995   0.72005   0.00000  Uiso   1.00
H265   H     0.12256   0.98854   0.52768   0.00000  Uiso   1.00
H266   H     0.92839   0.77821   0.05190   0.00000  Uiso   1.00
H267   H     0.56824   0.02408   0.66192   0.00000  Uiso   1.00
O268   O     0.18118   0.89819   0.40179   0.00000  Uiso   1.00
O269   O     0.92643   0.62225   0.08954   0.00000  Uiso   1.00
O270   O     0.45392   0.94481   0.57791   0.00000  Uiso   1.00
N271   N     0.07674   0.81785   0.45360   0.00000  Uiso   1.00
N272   N     0.89522   0.62120   0.94371   0.00000  Uiso   1.00
N273   N     0.55850   0.85105   0.57914   0.00000  Uiso   1.00
N274   N     0.09743   0.93463   0.51542   0.00000  Uiso   1.00
N275   N     0.91591   0.73798   0.00553   0.00000  Uiso   1.00
N276   N     0.57919   0.96784   0.64096   0.00000  Uiso   1.00
C277   C     0.74689   0.34167   0.40333   0.00000  Uiso   1.00
C278   C     0.70050   0.41150   0.36338   0.00000  Uiso   1.00
C279   C     0.72656   0.45870   0.29537   0.00000  Uiso   1.00
C280   C     0.67532   0.51966   0.26821   0.00000  Uiso   1.00
C281   C     0.61466   0.62610   0.20020   0.00000  Uiso   1.00
C282   C     0.75470   0.36149   0.49846   0.00000  Uiso   1.00
C283   C     0.82633   0.36662   0.54402   0.00000  Uiso   1.00
C284   C     0.82071   0.38547   0.63057   0.00000  Uiso   1.00
C285   C     0.84419   0.41422   0.77228   0.00000  Uiso   1.00
C286   C     0.69135   0.26870   0.39797   0.00000  Uiso   1.00
C287   C     0.70972   0.19580   0.35906   0.00000  Uiso   1.00
C288   C     0.65077   0.13651   0.36102   0.00000  Uiso   1.00
C289   C     0.57589   0.02118   0.34671   0.00000  Uiso   1.00
C290   C     0.60955   0.36600   0.47603   0.00000  Uiso   1.00
C291   C     0.62591   0.42472   0.40288   0.00000  Uiso   1.00
C292   C     0.57461   0.48562   0.37580   0.00000  Uiso   1.00
C293   C     0.60059   0.53290   0.30776   0.00000  Uiso   1.00
C294   C     0.68011   0.37470   0.53795   0.00000  Uiso   1.00
C295   C     0.67438   0.39354   0.62445   0.00000  Uiso   1.00
C296   C     0.74598   0.39871   0.67013   0.00000  Uiso   1.00
C297   C     0.61676   0.28191   0.43746   0.00000  Uiso   1.00
C298   C     0.55777   0.22272   0.43949   0.00000  Uiso   1.00
C299   C     0.57604   0.14975   0.40058   0.00000  Uiso   1.00
H300   H     0.80497   0.33138   0.37259   0.00000  Uiso   1.00
H301   H     0.78430   0.44846   0.26483   0.00000  Uiso   1.00
H302   H     0.88405   0.35639   0.51345   0.00000  Uiso   1.00
H303   H     0.76745   0.18559   0.32851   0.00000  Uiso   1.00
H304   H     0.72849   0.58410   0.16280   0.00000  Uiso   1.00
H305   H     0.93882   0.38995   0.68701   0.00000  Uiso   1.00
H306   H     0.69296   0.02979   0.29704   0.00000  Uiso   1.00
H307   H     0.55148   0.37629   0.50678   0.00000  Uiso   1.00
H308   H     0.51689   0.49583   0.40637   0.00000  Uiso   1.00
H309   H     0.61665   0.40376   0.65499   0.00000  Uiso   1.00
H310   H     0.50005   0.23297   0.47005   0.00000  Uiso   1.00
H311   H     0.51146   0.62256   0.27768   0.00000  Uiso   1.00
H312   H     0.72179   0.42839   0.80190   0.00000  Uiso   1.00
H313   H     0.47592   0.06824   0.41192   0.00000  Uiso   1.00
O314   O     0.60181   0.68118   0.15179   0.00000  Uiso   1.00
O315   O     0.87775   0.42643   0.83954   0.00000  Uiso   1.00
O316   O     0.55519   0.95392   0.32791   0.00000  Uiso   1.00
N317   N     0.68215   0.57674   0.20360   0.00000  Uiso   1.00
N318   N     0.87880   0.39522   0.69371   0.00000  Uiso   1.00
N319   N     0.64895   0.05850   0.32914   0.00000  Uiso   1.00
N320   N     0.56537   0.59743   0.26542   0.00000  Uiso   1.00
N321   N     0.76202   0.41591   0.75553   0.00000  Uiso   1.00
N322   N     0.53216   0.07919   0.39096   0.00000  Uiso   1.00
C323   C     0.25311   0.65833   0.90333   0.00000  Uiso   1.00
C324   C     0.29950   0.58850   0.86338   0.00000  Uiso   1.00
C325   C     0.27344   0.54130   0.79537   0.00000  Uiso   1.00
C326   C     0.32468   0.48034   0.76821   0.00000  Uiso   1.00
C327   C     0.38534   0.37390   0.70020   0.00000  Uiso   1.00
C328   C     0.24530   0.63851   0.99846   0.00000  Uiso   1.00
C329   C     0.17367   0.63338   0.04402   0.00000  Uiso   1.00
C330   C     0.17929   0.61453   0.13057   0.00000  Uiso   1.00
C331   C     0.15581   0.58578   0.27228   0.00000  Uiso   1.00
C332   C     0.30865   0.73130   0.89797   0.00000  Uiso   1.00
C333   C     0.29028   0.80420   0.85906   0.00000  Uiso   1.00
C334   C     0.34923   0.86349   0.86102   0.00000  Uiso   1.00
C335   C     0.42411   0.97882   0.84671   0.00000  Uiso   1.00
C336   C     0.39045   0.63400   0.97603   0.00000  Uiso   1.00
C337   C     0.37409   0.57528   0.90288   0.00000  Uiso   1.00
C338   C     0.42539   0.51438   0.87580   0.00000  Uiso   1.00
C339   C     0.39941   0.46710   0.80776   0.00000  Uiso   1.00
C340   C     0.31989   0.62530   0.03795   0.00000  Uiso   1.00
C341   C     0.32562   0.60646   0.12445   0.00000  Uiso   1.00
C342   C     0.25402   0.60129   0.17013   0.00000  Uiso   1.00
C343   C     0.38324   0.71809   0.93746   0.00000  Uiso   1.00
C344   C     0.44223   0.77728   0.93949   0.00000  Uiso   1.00
C345   C     0.42396   0.85025   0.90058   0.00000  Uiso   1.00
H346   H     0.19503   0.66862   0.87259   0.00000  Uiso   1.00
H347   H     0.21570   0.55154   0.76483   0.00000  Uiso   1.00
H348   H     0.11595   0.64361   0.01345   0.00000  Uiso   1.00
H349   H     0.23255   0.81441   0.82851   0.00000  Uiso   1.00
H350   H     0.27151   0.41590   0.66280   0.00000  Uiso   1.00
H351   H     0.06118   0.61005   0.18701   0.00000  Uiso   1.00
H352   H     0.30704   0.97021   0.79704   0.00000  Uiso   1.00
H353   H     0.44852   0.62371   0.00678   0.00000  Uiso   1.00
H354   H     0.48311   0.50417   0.90637   0.00000  Uiso   1.00
H355   H     0.38335   0.59624   0.15499   0.00000  Uiso   1.00
H356   H     0.49995   0.76703   0.97005   0.00000  Uiso   1.00
H357   H     0.48854   0.37744   0.77768   0.00000  Uiso   1.00
H358   H     0.27821   0.57161   0.30190   0.00000  Uiso   1.00
H359   H     0.52408   0.93176   0.91192   0.00000  Uiso   1.00
O360   O     0.39819   0.31882   0.65179   0.00000  Uiso   1.00
O361   O     0.12225   0.57357   0.33954   0.00000  Uiso   1.00
O362   O     0.44481   0.04608   0.82791   0.00000  Uiso   1.00
N363   N     0.31785   0.42326   0.70360   0.00000  Uiso   1.00
N364   N     0.12120   0.60478   0.19371   0.00000  Uiso   1.00
N365   N     0.35105   0.94150   0.82914   0.00000  Uiso   1.00
N366   N     0.43463   0.40257   0.76542   0.00000  Uiso   1.00
N367   N     0.23798   0.58409   0.25553   0.00000  Uiso   1.00
N368   N     0.46784   0.92081   0.89096   0.00000  Uiso   1.00
