data_job_06212
_audit_creation_date              2018-12-19
_audit_creation_method            'Materials Studio'
_symmetry_space_group_name_H-M    'P1'
_symmetry_Int_Tables_number       1
_symmetry_cell_setting            triclinic
loop_
_symmetry_equiv_pos_as_xyz
  x,y,z
_cell_length_a                    17.0534
_cell_length_b                    17.0553
_cell_length_c                    17.0571
_cell_angle_alpha                 92.1901
_cell_angle_beta                  92.1953
_cell_angle_gamma                 92.2001
loop_
_atom_site_label
_atom_site_type_symbol
_atom_site_fract_x
_atom_site_fract_y
_atom_site_fract_z
_atom_site_U_iso_or_equiv
_atom_site_adp_type
_atom_site_occupancy
C1     C     0.83624   0.45402   0.13626   0.00000  Uiso   1.00
C2     C     0.84179   0.49025   0.21951   0.00000  Uiso   1.00
C3     C     0.89854   0.47524   0.27690   0.00000  Uiso   1.00
C4     C     0.89343   0.51426   0.34936   0.00000  Uiso   1.00
C5     C     0.91110   0.56256   0.47644   0.00000  Uiso   1.00
C6     C     0.75440   0.41487   0.12594   0.00000  Uiso   1.00
C7     C     0.73768   0.33648   0.10463   0.00000  Uiso   1.00
C8     C     0.65901   0.31205   0.09830   0.00000  Uiso   1.00
C9     C     0.54101   0.24333   0.08004   0.00000  Uiso   1.00
C10    C     0.83716   0.52269   0.08159   0.00000  Uiso   1.00
C11    C     0.89002   0.53497   0.02298   0.00000  Uiso   1.00
C12    C     0.88102   0.60131   0.97931   0.00000  Uiso   1.00
C13    C     0.89152   0.70001   0.89219   0.00000  Uiso   1.00
C14    C     0.72626   0.54999   0.16289   0.00000  Uiso   1.00
C15    C     0.78204   0.54238   0.23397   0.00000  Uiso   1.00
C16    C     0.77685   0.58143   0.30636   0.00000  Uiso   1.00
C17    C     0.83359   0.56649   0.36385   0.00000  Uiso   1.00
C18    C     0.69466   0.46699   0.14040   0.00000  Uiso   1.00
C19    C     0.61599   0.44267   0.13409   0.00000  Uiso   1.00
C20    C     0.59916   0.36427   0.11279   0.00000  Uiso   1.00
C21    C     0.77743   0.57483   0.09605   0.00000  Uiso   1.00
C22    C     0.76834   0.64116   0.05245   0.00000  Uiso   1.00
C23    C     0.82117   0.65353   0.99379   0.00000  Uiso   1.00
H24    H     0.88274   0.41343   0.12501   0.00000  Uiso   1.00
H25    H     0.94475   0.43489   0.26569   0.00000  Uiso   1.00
H26    H     0.78392   0.29616   0.09344   0.00000  Uiso   1.00
H27    H     0.93624   0.49461   0.01181   0.00000  Uiso   1.00
H28    H     0.98714   0.48166   0.42806   0.00000  Uiso   1.00
H29    H     0.64801   0.18914   0.06483   0.00000  Uiso   1.00
H30    H     0.96920   0.60761   0.89269   0.00000  Uiso   1.00
H31    H     0.67975   0.59058   0.17414   0.00000  Uiso   1.00
H32    H     0.73062   0.62177   0.31753   0.00000  Uiso   1.00
H33    H     0.56978   0.48303   0.14528   0.00000  Uiso   1.00
H34    H     0.72210   0.68148   0.06365   0.00000  Uiso   1.00
H35    H     0.81334   0.63333   0.47013   0.00000  Uiso   1.00
H36    H     0.47421   0.34081   0.10690   0.00000  Uiso   1.00
H37    H     0.79540   0.75929   0.93477   0.00000  Uiso   1.00
O38    O     0.93735   0.57479   0.54254   0.00000  Uiso   1.00
O39    O     0.49243   0.19102   0.06598   0.00000  Uiso   1.00
O40    O     0.91383   0.74006   0.84016   0.00000  Uiso   1.00
N41    N     0.93926   0.51309   0.41828   0.00000  Uiso   1.00
N42    N     0.62220   0.23959   0.07869   0.00000  Uiso   1.00
N43    N     0.92247   0.63082   0.91775   0.00000  Uiso   1.00
N44    N     0.84574   0.59470   0.44092   0.00000  Uiso   1.00
N45    N     0.52868   0.32121   0.10133   0.00000  Uiso   1.00
N46    N     0.82895   0.71244   0.94039   0.00000  Uiso   1.00
C47    C     0.13628   0.83624   0.45396   0.00000  Uiso   1.00
C48    C     0.21955   0.84178   0.49020   0.00000  Uiso   1.00
C49    C     0.27695   0.89853   0.47519   0.00000  Uiso   1.00
C50    C     0.34942   0.89343   0.51421   0.00000  Uiso   1.00
C51    C     0.47653   0.91110   0.56251   0.00000  Uiso   1.00
C52    C     0.12594   0.75441   0.41482   0.00000  Uiso   1.00
C53    C     0.10463   0.73770   0.33645   0.00000  Uiso   1.00
C54    C     0.09829   0.65904   0.31203   0.00000  Uiso   1.00
C55    C     0.08002   0.54106   0.24332   0.00000  Uiso   1.00
C56    C     0.08159   0.83715   0.52263   0.00000  Uiso   1.00
C57    C     0.02298   0.89000   0.53490   0.00000  Uiso   1.00
C58    C     0.97929   0.88099   0.60123   0.00000  Uiso   1.00
C59    C     0.89216   0.89148   0.69991   0.00000  Uiso   1.00
C60    C     0.16290   0.72626   0.54994   0.00000  Uiso   1.00
C61    C     0.23401   0.78205   0.54233   0.00000  Uiso   1.00
C62    C     0.30641   0.77686   0.58138   0.00000  Uiso   1.00
C63    C     0.36391   0.83359   0.56644   0.00000  Uiso   1.00
C64    C     0.14040   0.69467   0.46695   0.00000  Uiso   1.00
C65    C     0.13409   0.61602   0.44264   0.00000  Uiso   1.00
C66    C     0.11278   0.59919   0.36425   0.00000  Uiso   1.00
C67    C     0.09606   0.77742   0.57477   0.00000  Uiso   1.00
C68    C     0.05244   0.76832   0.64109   0.00000  Uiso   1.00
C69    C     0.99378   0.82115   0.65345   0.00000  Uiso   1.00
H70    H     0.12501   0.88274   0.41337   0.00000  Uiso   1.00
H71    H     0.26574   0.94475   0.43484   0.00000  Uiso   1.00
H72    H     0.09343   0.78394   0.29613   0.00000  Uiso   1.00
H73    H     0.01180   0.93621   0.49454   0.00000  Uiso   1.00
H74    H     0.42814   0.98713   0.48160   0.00000  Uiso   1.00
H75    H     0.06481   0.64805   0.18912   0.00000  Uiso   1.00
H76    H     0.89266   0.96916   0.60752   0.00000  Uiso   1.00
H77    H     0.17416   0.67975   0.59053   0.00000  Uiso   1.00
H78    H     0.31759   0.73062   0.62172   0.00000  Uiso   1.00
H79    H     0.14528   0.56981   0.48300   0.00000  Uiso   1.00
H80    H     0.06365   0.72209   0.68141   0.00000  Uiso   1.00
H81    H     0.47023   0.81334   0.63328   0.00000  Uiso   1.00
H82    H     0.10689   0.47426   0.34080   0.00000  Uiso   1.00
H83    H     0.93475   0.79537   0.75920   0.00000  Uiso   1.00
O84    O     0.54265   0.93734   0.57474   0.00000  Uiso   1.00
O85    O     0.06596   0.49249   0.19102   0.00000  Uiso   1.00
O86    O     0.84011   0.91378   0.73995   0.00000  Uiso   1.00
N87    N     0.41836   0.93926   0.51303   0.00000  Uiso   1.00
N88    N     0.07867   0.62224   0.23958   0.00000  Uiso   1.00
N89    N     0.91772   0.92244   0.63073   0.00000  Uiso   1.00
N90    N     0.44100   0.84574   0.59465   0.00000  Uiso   1.00
N91    N     0.10132   0.52872   0.32119   0.00000  Uiso   1.00
N92    N     0.94037   0.82892   0.71235   0.00000  Uiso   1.00
C93    C     0.45407   0.13625   0.83621   0.00000  Uiso   1.00
C94    C     0.49031   0.21952   0.84175   0.00000  Uiso   1.00
C95    C     0.47531   0.27691   0.89849   0.00000  Uiso   1.00
C96    C     0.51433   0.34937   0.89338   0.00000  Uiso   1.00
C97    C     0.56265   0.47647   0.91104   0.00000  Uiso   1.00
C98    C     0.41492   0.12593   0.75439   0.00000  Uiso   1.00
C99    C     0.33652   0.10461   0.73768   0.00000  Uiso   1.00
C100   C     0.31209   0.09829   0.65902   0.00000  Uiso   1.00
C101   C     0.24337   0.08002   0.54106   0.00000  Uiso   1.00
C102   C     0.52275   0.08158   0.83713   0.00000  Uiso   1.00
C103   C     0.53501   0.02297   0.88998   0.00000  Uiso   1.00
C104   C     0.60136   0.97929   0.88098   0.00000  Uiso   1.00
C105   C     0.70006   0.89217   0.89148   0.00000  Uiso   1.00
C106   C     0.55006   0.16289   0.72625   0.00000  Uiso   1.00
C107   C     0.54245   0.23398   0.78202   0.00000  Uiso   1.00
C108   C     0.58151   0.30638   0.77683   0.00000  Uiso   1.00
C109   C     0.56657   0.36387   0.83355   0.00000  Uiso   1.00
C110   C     0.46705   0.14039   0.69466   0.00000  Uiso   1.00
C111   C     0.44273   0.13409   0.61602   0.00000  Uiso   1.00
C112   C     0.36432   0.11278   0.59919   0.00000  Uiso   1.00
C113   C     0.57489   0.09605   0.77741   0.00000  Uiso   1.00
C114   C     0.64122   0.05245   0.76832   0.00000  Uiso   1.00
C115   C     0.65359   0.99378   0.82114   0.00000  Uiso   1.00
H116   H     0.41347   0.12499   0.88271   0.00000  Uiso   1.00
H117   H     0.43495   0.26569   0.94470   0.00000  Uiso   1.00
H118   H     0.29619   0.09341   0.78391   0.00000  Uiso   1.00
H119   H     0.49465   0.01179   0.93619   0.00000  Uiso   1.00
H120   H     0.48173   0.42807   0.98706   0.00000  Uiso   1.00
H121   H     0.18916   0.06480   0.64804   0.00000  Uiso   1.00
H122   H     0.60766   0.89266   0.96915   0.00000  Uiso   1.00
H123   H     0.59066   0.17416   0.67975   0.00000  Uiso   1.00
H124   H     0.62186   0.31756   0.73060   0.00000  Uiso   1.00
H125   H     0.48310   0.14529   0.56981   0.00000  Uiso   1.00
H126   H     0.68156   0.06366   0.72209   0.00000  Uiso   1.00
H127   H     0.63343   0.47018   0.81329   0.00000  Uiso   1.00
H128   H     0.34086   0.10689   0.47427   0.00000  Uiso   1.00
H129   H     0.75936   0.93477   0.79538   0.00000  Uiso   1.00
O130   O     0.57489   0.54258   0.93728   0.00000  Uiso   1.00
O131   O     0.19105   0.06596   0.49249   0.00000  Uiso   1.00
O132   O     0.74011   0.84013   0.91378   0.00000  Uiso   1.00
N133   N     0.51316   0.41830   0.93920   0.00000  Uiso   1.00
N134   N     0.23962   0.07867   0.62223   0.00000  Uiso   1.00
N135   N     0.63087   0.91772   0.92243   0.00000  Uiso   1.00
N136   N     0.59479   0.44095   0.84569   0.00000  Uiso   1.00
N137   N     0.32125   0.10132   0.52872   0.00000  Uiso   1.00
N138   N     0.71250   0.94038   0.82893   0.00000  Uiso   1.00
C139   C     0.16376   0.54599   0.86374   0.00000  Uiso   1.00
C140   C     0.15821   0.50975   0.78049   0.00000  Uiso   1.00
C141   C     0.10146   0.52476   0.72310   0.00000  Uiso   1.00
C142   C     0.10657   0.48574   0.65064   0.00000  Uiso   1.00
C143   C     0.08890   0.43744   0.52356   0.00000  Uiso   1.00
C144   C     0.24560   0.58513   0.87406   0.00000  Uiso   1.00
C145   C     0.26232   0.66352   0.89537   0.00000  Uiso   1.00
C146   C     0.34099   0.68795   0.90170   0.00000  Uiso   1.00
C147   C     0.45899   0.75667   0.91996   0.00000  Uiso   1.00
C148   C     0.16284   0.47731   0.91841   0.00000  Uiso   1.00
C149   C     0.10998   0.46503   0.97702   0.00000  Uiso   1.00
C150   C     0.11898   0.39869   0.02069   0.00000  Uiso   1.00
C151   C     0.10848   0.29999   0.10781   0.00000  Uiso   1.00
C152   C     0.27374   0.45001   0.83711   0.00000  Uiso   1.00
C153   C     0.21796   0.45762   0.76603   0.00000  Uiso   1.00
C154   C     0.22315   0.41857   0.69364   0.00000  Uiso   1.00
C155   C     0.16641   0.43351   0.63615   0.00000  Uiso   1.00
C156   C     0.30534   0.53301   0.85960   0.00000  Uiso   1.00
C157   C     0.38401   0.55733   0.86591   0.00000  Uiso   1.00
C158   C     0.40084   0.63573   0.88721   0.00000  Uiso   1.00
C159   C     0.22257   0.42517   0.90395   0.00000  Uiso   1.00
C160   C     0.23166   0.35884   0.94755   0.00000  Uiso   1.00
C161   C     0.17883   0.34647   0.00621   0.00000  Uiso   1.00
H162   H     0.11726   0.58657   0.87499   0.00000  Uiso   1.00
H163   H     0.05525   0.56511   0.73431   0.00000  Uiso   1.00
H164   H     0.21608   0.70384   0.90656   0.00000  Uiso   1.00
H165   H     0.06376   0.50539   0.98819   0.00000  Uiso   1.00
H166   H     0.01286   0.51834   0.57194   0.00000  Uiso   1.00
H167   H     0.35199   0.81086   0.93517   0.00000  Uiso   1.00
H168   H     0.03080   0.39239   0.10731   0.00000  Uiso   1.00
H169   H     0.32025   0.40942   0.82586   0.00000  Uiso   1.00
H170   H     0.26938   0.37823   0.68247   0.00000  Uiso   1.00
H171   H     0.43022   0.51697   0.85472   0.00000  Uiso   1.00
H172   H     0.27790   0.31852   0.93635   0.00000  Uiso   1.00
H173   H     0.18666   0.36667   0.52987   0.00000  Uiso   1.00
H174   H     0.52579   0.65919   0.89310   0.00000  Uiso   1.00
H175   H     0.20460   0.24071   0.06523   0.00000  Uiso   1.00
O176   O     0.06265   0.42521   0.45746   0.00000  Uiso   1.00
O177   O     0.50757   0.80898   0.93402   0.00000  Uiso   1.00
O178   O     0.08617   0.25994   0.15984   0.00000  Uiso   1.00
N179   N     0.06074   0.48691   0.58172   0.00000  Uiso   1.00
N180   N     0.37780   0.76041   0.92131   0.00000  Uiso   1.00
N181   N     0.07753   0.36918   0.08225   0.00000  Uiso   1.00
N182   N     0.15426   0.40530   0.55908   0.00000  Uiso   1.00
N183   N     0.47132   0.67879   0.89867   0.00000  Uiso   1.00
N184   N     0.17105   0.28756   0.05961   0.00000  Uiso   1.00
C185   C     0.86372   0.16376   0.54604   0.00000  Uiso   1.00
C186   C     0.78045   0.15822   0.50980   0.00000  Uiso   1.00
C187   C     0.72305   0.10147   0.52481   0.00000  Uiso   1.00
C188   C     0.65058   0.10657   0.48579   0.00000  Uiso   1.00
C189   C     0.52347   0.08890   0.43749   0.00000  Uiso   1.00
C190   C     0.87406   0.24559   0.58518   0.00000  Uiso   1.00
C191   C     0.89537   0.26230   0.66355   0.00000  Uiso   1.00
C192   C     0.90171   0.34096   0.68797   0.00000  Uiso   1.00
C193   C     0.91998   0.45894   0.75668   0.00000  Uiso   1.00
C194   C     0.91841   0.16285   0.47737   0.00000  Uiso   1.00
C195   C     0.97702   0.11000   0.46510   0.00000  Uiso   1.00
C196   C     0.02071   0.11901   0.39877   0.00000  Uiso   1.00
C197   C     0.10784   0.10852   0.30009   0.00000  Uiso   1.00
C198   C     0.83710   0.27374   0.45006   0.00000  Uiso   1.00
C199   C     0.76599   0.21795   0.45767   0.00000  Uiso   1.00
C200   C     0.69359   0.22314   0.41862   0.00000  Uiso   1.00
C201   C     0.63609   0.16641   0.43356   0.00000  Uiso   1.00
C202   C     0.85960   0.30533   0.53305   0.00000  Uiso   1.00
C203   C     0.86591   0.38398   0.55736   0.00000  Uiso   1.00
C204   C     0.88722   0.40081   0.63575   0.00000  Uiso   1.00
C205   C     0.90394   0.22258   0.42524   0.00000  Uiso   1.00
C206   C     0.94756   0.23168   0.35891   0.00000  Uiso   1.00
C207   C     0.00622   0.17885   0.34655   0.00000  Uiso   1.00
H208   H     0.87499   0.11726   0.58663   0.00000  Uiso   1.00
H209   H     0.73426   0.05525   0.56516   0.00000  Uiso   1.00
H210   H     0.90657   0.21606   0.70387   0.00000  Uiso   1.00
H211   H     0.98820   0.06379   0.50546   0.00000  Uiso   1.00
H212   H     0.57186   0.01287   0.51840   0.00000  Uiso   1.00
H213   H     0.93519   0.35195   0.81088   0.00000  Uiso   1.00
H214   H     0.10734   0.03084   0.39248   0.00000  Uiso   1.00
H215   H     0.82584   0.32025   0.40947   0.00000  Uiso   1.00
H216   H     0.68241   0.26938   0.37828   0.00000  Uiso   1.00
H217   H     0.85472   0.43019   0.51700   0.00000  Uiso   1.00
H218   H     0.93635   0.27791   0.31859   0.00000  Uiso   1.00
H219   H     0.52977   0.18666   0.36672   0.00000  Uiso   1.00
H220   H     0.89311   0.52574   0.65920   0.00000  Uiso   1.00
H221   H     0.06525   0.20463   0.24080   0.00000  Uiso   1.00
O222   O     0.45735   0.06266   0.42526   0.00000  Uiso   1.00
O223   O     0.93404   0.50751   0.80898   0.00000  Uiso   1.00
O224   O     0.15989   0.08622   0.26005   0.00000  Uiso   1.00
N225   N     0.58164   0.06074   0.48697   0.00000  Uiso   1.00
N226   N     0.92133   0.37776   0.76042   0.00000  Uiso   1.00
N227   N     0.08228   0.07756   0.36927   0.00000  Uiso   1.00
N228   N     0.55900   0.15426   0.40535   0.00000  Uiso   1.00
N229   N     0.89868   0.47128   0.67881   0.00000  Uiso   1.00
N230   N     0.05963   0.17108   0.28765   0.00000  Uiso   1.00
C231   C     0.54593   0.86375   0.16379   0.00000  Uiso   1.00
C232   C     0.50969   0.78048   0.15825   0.00000  Uiso   1.00
C233   C     0.52469   0.72309   0.10151   0.00000  Uiso   1.00
C234   C     0.48567   0.65063   0.10662   0.00000  Uiso   1.00
C235   C     0.43735   0.52353   0.08896   0.00000  Uiso   1.00
C236   C     0.58509   0.87407   0.24561   0.00000  Uiso   1.00
C237   C     0.66348   0.89539   0.26232   0.00000  Uiso   1.00
C238   C     0.68791   0.90172   0.34098   0.00000  Uiso   1.00
C239   C     0.75663   0.91998   0.45894   0.00000  Uiso   1.00
C240   C     0.47725   0.91842   0.16287   0.00000  Uiso   1.00
C241   C     0.46499   0.97703   0.11002   0.00000  Uiso   1.00
C242   C     0.39864   0.02071   0.11902   0.00000  Uiso   1.00
C243   C     0.29994   0.10783   0.10852   0.00000  Uiso   1.00
C244   C     0.44994   0.83711   0.27375   0.00000  Uiso   1.00
C245   C     0.45755   0.76602   0.21798   0.00000  Uiso   1.00
C246   C     0.41849   0.69362   0.22317   0.00000  Uiso   1.00
C247   C     0.43343   0.63613   0.16645   0.00000  Uiso   1.00
C248   C     0.53295   0.85961   0.30534   0.00000  Uiso   1.00
C249   C     0.55727   0.86591   0.38398   0.00000  Uiso   1.00
C250   C     0.63568   0.88722   0.40081   0.00000  Uiso   1.00
C251   C     0.42511   0.90395   0.22259   0.00000  Uiso   1.00
C252   C     0.35878   0.94755   0.23168   0.00000  Uiso   1.00
C253   C     0.34641   0.00622   0.17886   0.00000  Uiso   1.00
H254   H     0.58653   0.87501   0.11729   0.00000  Uiso   1.00
H255   H     0.56505   0.73431   0.05530   0.00000  Uiso   1.00
H256   H     0.70381   0.90659   0.21609   0.00000  Uiso   1.00
H257   H     0.50535   0.98821   0.06381   0.00000  Uiso   1.00
H258   H     0.51827   0.57193   0.01294   0.00000  Uiso   1.00
H259   H     0.81084   0.93520   0.35196   0.00000  Uiso   1.00
H260   H     0.39234   0.10734   0.03085   0.00000  Uiso   1.00
H261   H     0.40934   0.82584   0.32025   0.00000  Uiso   1.00
H262   H     0.37814   0.68244   0.26940   0.00000  Uiso   1.00
H263   H     0.51690   0.85471   0.43019   0.00000  Uiso   1.00
H264   H     0.31844   0.93634   0.27791   0.00000  Uiso   1.00
H265   H     0.36657   0.52982   0.18671   0.00000  Uiso   1.00
H266   H     0.65914   0.89311   0.52574   0.00000  Uiso   1.00
H267   H     0.24064   0.06523   0.20462   0.00000  Uiso   1.00
O268   O     0.42511   0.45742   0.06272   0.00000  Uiso   1.00
O269   O     0.80895   0.93404   0.50751   0.00000  Uiso   1.00
O270   O     0.25989   0.15987   0.08622   0.00000  Uiso   1.00
N271   N     0.48684   0.58170   0.06080   0.00000  Uiso   1.00
N272   N     0.76038   0.92133   0.37777   0.00000  Uiso   1.00
N273   N     0.36913   0.08228   0.07757   0.00000  Uiso   1.00
N274   N     0.40521   0.55905   0.15431   0.00000  Uiso   1.00
N275   N     0.67875   0.89868   0.47128   0.00000  Uiso   1.00
N276   N     0.28750   0.05962   0.17108   0.00000  Uiso   1.00
