data_job_03935
_audit_creation_date              2018-12-19
_audit_creation_method            'Materials Studio'
_symmetry_space_group_name_H-M    'P1'
_symmetry_Int_Tables_number       1
_symmetry_cell_setting            triclinic
loop_
_symmetry_equiv_pos_as_xyz
  x,y,z
_cell_length_a                    22.8223
_cell_length_b                    22.8223
_cell_length_c                    20.7190
_cell_angle_alpha                 90.0000
_cell_angle_beta                  90.0000
_cell_angle_gamma                 120.0000
loop_
_atom_site_label
_atom_site_type_symbol
_atom_site_fract_x
_atom_site_fract_y
_atom_site_fract_z
_atom_site_U_iso_or_equiv
_atom_site_adp_type
_atom_site_occupancy
C1     C     0.77528   0.71790   0.81542   0.00000  Uiso   1.00
C2     C     0.72426   0.70157   0.76114   0.00000  Uiso   1.00
C3     C     0.73990   0.72093   0.69709   0.00000  Uiso   1.00
C4     C     0.68597   0.70099   0.65485   0.00000  Uiso   1.00
C5     C     0.61696   0.68142   0.56736   0.00000  Uiso   1.00
C6     C     0.75779   0.75418   0.86718   0.00000  Uiso   1.00
C7     C     0.80162   0.81778   0.89229   0.00000  Uiso   1.00
C8     C     0.77592   0.84212   0.93932   0.00000  Uiso   1.00
C9     C     0.75898   0.90422   0.01649   0.00000  Uiso   1.00
C10    C     0.75911   0.65009   0.84458   0.00000  Uiso   1.00
C11    C     0.80405   0.62617   0.85071   0.00000  Uiso   1.00
C12    C     0.77947   0.56288   0.87872   0.00000  Uiso   1.00
C13    C     0.76457   0.46336   0.92081   0.00000  Uiso   1.00
C14    C     0.65171   0.64804   0.85429   0.00000  Uiso   1.00
C15    C     0.65714   0.66362   0.78225   0.00000  Uiso   1.00
C16    C     0.60318   0.64364   0.74010   0.00000  Uiso   1.00
C17    C     0.61873   0.66297   0.67600   0.00000  Uiso   1.00
C18    C     0.69067   0.71624   0.88829   0.00000  Uiso   1.00
C19    C     0.66490   0.74049   0.93529   0.00000  Uiso   1.00
C20    C     0.70868   0.80411   0.96047   0.00000  Uiso   1.00
C21    C     0.69199   0.61214   0.86569   0.00000  Uiso   1.00
C22    C     0.66733   0.54888   0.89371   0.00000  Uiso   1.00
C23    C     0.71223   0.52487   0.89988   0.00000  Uiso   1.00
H24    H     0.82754   0.74745   0.79898   0.00000  Uiso   1.00
H25    H     0.79185   0.75031   0.68077   0.00000  Uiso   1.00
H26    H     0.85356   0.84713   0.87594   0.00000  Uiso   1.00
H27    H     0.85599   0.65555   0.83436   0.00000  Uiso   1.00
H28    H     0.72268   0.73676   0.55903   0.00000  Uiso   1.00
H29    H     0.85281   0.94091   0.97057   0.00000  Uiso   1.00
H30    H     0.85793   0.53693   0.88290   0.00000  Uiso   1.00
H31    H     0.59945   0.61850   0.87073   0.00000  Uiso   1.00
H32    H     0.55125   0.61428   0.75645   0.00000  Uiso   1.00
H33    H     0.61296   0.71111   0.95162   0.00000  Uiso   1.00
H34    H     0.61539   0.51953   0.91004   0.00000  Uiso   1.00
H35    H     0.52740   0.62635   0.62045   0.00000  Uiso   1.00
H36    H     0.65753   0.83051   0.03200   0.00000  Uiso   1.00
H37    H     0.66265   0.42653   0.94432   0.00000  Uiso   1.00
O38    O     0.59744   0.68112   0.51327   0.00000  Uiso   1.00
O39    O     0.76818   0.94896   0.05322   0.00000  Uiso   1.00
O40    O     0.77490   0.41895   0.93818   0.00000  Uiso   1.00
N41    N     0.68333   0.71134   0.58916   0.00000  Uiso   1.00
N42    N     0.80500   0.90222   0.97393   0.00000  Uiso   1.00
N43    N     0.80979   0.52454   0.89198   0.00000  Uiso   1.00
N44    N     0.57825   0.65193   0.62222   0.00000  Uiso   1.00
N45    N     0.69992   0.84281   0.00698   0.00000  Uiso   1.00
N46    N     0.70472   0.46513   0.92503   0.00000  Uiso   1.00
C47    C     0.28210   0.05738   0.81542   0.00000  Uiso   1.00
C48    C     0.29843   0.02269   0.76114   0.00000  Uiso   1.00
C49    C     0.27907   0.01896   0.69709   0.00000  Uiso   1.00
C50    C     0.29901   0.98498   0.65485   0.00000  Uiso   1.00
C51    C     0.31858   0.93554   0.56736   0.00000  Uiso   1.00
C52    C     0.24582   0.00361   0.86718   0.00000  Uiso   1.00
C53    C     0.18222   0.98384   0.89229   0.00000  Uiso   1.00
C54    C     0.15788   0.93380   0.93932   0.00000  Uiso   1.00
C55    C     0.09578   0.85476   0.01649   0.00000  Uiso   1.00
C56    C     0.34991   0.10902   0.84458   0.00000  Uiso   1.00
C57    C     0.37383   0.17788   0.85071   0.00000  Uiso   1.00
C58    C     0.43712   0.21659   0.87872   0.00000  Uiso   1.00
C59    C     0.53664   0.30121   0.92081   0.00000  Uiso   1.00
C60    C     0.35196   0.00367   0.85429   0.00000  Uiso   1.00
C61    C     0.33638   0.99352   0.78225   0.00000  Uiso   1.00
C62    C     0.35636   0.95954   0.74010   0.00000  Uiso   1.00
C63    C     0.33703   0.95576   0.67600   0.00000  Uiso   1.00
C64    C     0.28376   0.97443   0.88829   0.00000  Uiso   1.00
C65    C     0.25951   0.92442   0.93529   0.00000  Uiso   1.00
C66    C     0.19589   0.90457   0.96047   0.00000  Uiso   1.00
C67    C     0.38786   0.07985   0.86569   0.00000  Uiso   1.00
C68    C     0.45112   0.11845   0.89371   0.00000  Uiso   1.00
C69    C     0.47513   0.18736   0.89988   0.00000  Uiso   1.00
H70    H     0.25255   0.08009   0.79898   0.00000  Uiso   1.00
H71    H     0.24969   0.04154   0.68077   0.00000  Uiso   1.00
H72    H     0.15287   0.00643   0.87594   0.00000  Uiso   1.00
H73    H     0.34445   0.20043   0.83436   0.00000  Uiso   1.00
H74    H     0.26324   0.98592   0.55903   0.00000  Uiso   1.00
H75    H     0.05909   0.91190   0.97057   0.00000  Uiso   1.00
H76    H     0.46307   0.32100   0.88290   0.00000  Uiso   1.00
H77    H     0.38150   0.98095   0.87073   0.00000  Uiso   1.00
H78    H     0.38572   0.93697   0.75645   0.00000  Uiso   1.00
H79    H     0.28889   0.90185   0.95162   0.00000  Uiso   1.00
H80    H     0.48047   0.09586   0.91004   0.00000  Uiso   1.00
H81    H     0.37365   0.90104   0.62045   0.00000  Uiso   1.00
H82    H     0.16949   0.82702   0.03200   0.00000  Uiso   1.00
H83    H     0.57347   0.23612   0.94432   0.00000  Uiso   1.00
O84    O     0.31888   0.91632   0.51327   0.00000  Uiso   1.00
O85    O     0.05104   0.81921   0.05322   0.00000  Uiso   1.00
O86    O     0.58105   0.35594   0.93818   0.00000  Uiso   1.00
N87    N     0.28866   0.97199   0.58916   0.00000  Uiso   1.00
N88    N     0.09778   0.90278   0.97393   0.00000  Uiso   1.00
N89    N     0.47546   0.28525   0.89198   0.00000  Uiso   1.00
N90    N     0.34807   0.92632   0.62222   0.00000  Uiso   1.00
N91    N     0.15719   0.85711   0.00698   0.00000  Uiso   1.00
N92    N     0.53487   0.23958   0.92503   0.00000  Uiso   1.00
C93    C     0.94262   0.22472   0.81542   0.00000  Uiso   1.00
C94    C     0.97731   0.27574   0.76114   0.00000  Uiso   1.00
C95    C     0.98104   0.26010   0.69709   0.00000  Uiso   1.00
C96    C     0.01502   0.31403   0.65485   0.00000  Uiso   1.00
C97    C     0.06446   0.38304   0.56736   0.00000  Uiso   1.00
C98    C     0.99639   0.24221   0.86718   0.00000  Uiso   1.00
C99    C     0.01616   0.19838   0.89229   0.00000  Uiso   1.00
C100   C     0.06620   0.22408   0.93932   0.00000  Uiso   1.00
C101   C     0.14524   0.24102   0.01649   0.00000  Uiso   1.00
C102   C     0.89098   0.24089   0.84458   0.00000  Uiso   1.00
C103   C     0.82212   0.19595   0.85071   0.00000  Uiso   1.00
C104   C     0.78341   0.22053   0.87872   0.00000  Uiso   1.00
C105   C     0.69879   0.23543   0.92081   0.00000  Uiso   1.00
C106   C     0.99633   0.34829   0.85429   0.00000  Uiso   1.00
C107   C     0.00648   0.34286   0.78225   0.00000  Uiso   1.00
C108   C     0.04046   0.39682   0.74010   0.00000  Uiso   1.00
C109   C     0.04424   0.38127   0.67600   0.00000  Uiso   1.00
C110   C     0.02557   0.30933   0.88829   0.00000  Uiso   1.00
C111   C     0.07558   0.33510   0.93529   0.00000  Uiso   1.00
C112   C     0.09543   0.29132   0.96047   0.00000  Uiso   1.00
C113   C     0.92015   0.30801   0.86569   0.00000  Uiso   1.00
C114   C     0.88155   0.33267   0.89371   0.00000  Uiso   1.00
C115   C     0.81264   0.28777   0.89988   0.00000  Uiso   1.00
H116   H     0.91991   0.17246   0.79898   0.00000  Uiso   1.00
H117   H     0.95846   0.20815   0.68077   0.00000  Uiso   1.00
H118   H     0.99357   0.14644   0.87594   0.00000  Uiso   1.00
H119   H     0.79957   0.14401   0.83436   0.00000  Uiso   1.00
H120   H     0.01408   0.27732   0.55903   0.00000  Uiso   1.00
H121   H     0.08810   0.14719   0.97057   0.00000  Uiso   1.00
H122   H     0.67900   0.14207   0.88290   0.00000  Uiso   1.00
H123   H     0.01905   0.40055   0.87073   0.00000  Uiso   1.00
H124   H     0.06303   0.44875   0.75645   0.00000  Uiso   1.00
H125   H     0.09815   0.38704   0.95162   0.00000  Uiso   1.00
H126   H     0.90414   0.38461   0.91004   0.00000  Uiso   1.00
H127   H     0.09896   0.47260   0.62045   0.00000  Uiso   1.00
H128   H     0.17298   0.34247   0.03200   0.00000  Uiso   1.00
H129   H     0.76388   0.33735   0.94432   0.00000  Uiso   1.00
O130   O     0.08368   0.40256   0.51327   0.00000  Uiso   1.00
O131   O     0.18079   0.23182   0.05322   0.00000  Uiso   1.00
O132   O     0.64406   0.22510   0.93818   0.00000  Uiso   1.00
N133   N     0.02801   0.31667   0.58916   0.00000  Uiso   1.00
N134   N     0.09722   0.19500   0.97393   0.00000  Uiso   1.00
N135   N     0.71475   0.19021   0.89198   0.00000  Uiso   1.00
N136   N     0.07368   0.42175   0.62222   0.00000  Uiso   1.00
N137   N     0.14289   0.30008   0.00698   0.00000  Uiso   1.00
N138   N     0.76042   0.29528   0.92503   0.00000  Uiso   1.00
C139   C     0.22472   0.28210   0.31542   0.00000  Uiso   1.00
C140   C     0.27574   0.29843   0.26114   0.00000  Uiso   1.00
C141   C     0.26010   0.27907   0.19709   0.00000  Uiso   1.00
C142   C     0.31403   0.29901   0.15485   0.00000  Uiso   1.00
C143   C     0.38304   0.31858   0.06736   0.00000  Uiso   1.00
C144   C     0.24221   0.24582   0.36718   0.00000  Uiso   1.00
C145   C     0.19838   0.18222   0.39229   0.00000  Uiso   1.00
C146   C     0.22408   0.15788   0.43932   0.00000  Uiso   1.00
C147   C     0.24102   0.09578   0.51649   0.00000  Uiso   1.00
C148   C     0.24089   0.34991   0.34458   0.00000  Uiso   1.00
C149   C     0.19595   0.37383   0.35071   0.00000  Uiso   1.00
C150   C     0.22053   0.43712   0.37872   0.00000  Uiso   1.00
C151   C     0.23543   0.53664   0.42081   0.00000  Uiso   1.00
C152   C     0.34829   0.35196   0.35429   0.00000  Uiso   1.00
C153   C     0.34286   0.33638   0.28225   0.00000  Uiso   1.00
C154   C     0.39682   0.35636   0.24010   0.00000  Uiso   1.00
C155   C     0.38127   0.33703   0.17600   0.00000  Uiso   1.00
C156   C     0.30933   0.28376   0.38829   0.00000  Uiso   1.00
C157   C     0.33510   0.25951   0.43529   0.00000  Uiso   1.00
C158   C     0.29132   0.19589   0.46047   0.00000  Uiso   1.00
C159   C     0.30801   0.38786   0.36569   0.00000  Uiso   1.00
C160   C     0.33267   0.45112   0.39371   0.00000  Uiso   1.00
C161   C     0.28777   0.47513   0.39988   0.00000  Uiso   1.00
H162   H     0.17246   0.25255   0.29898   0.00000  Uiso   1.00
H163   H     0.20815   0.24969   0.18077   0.00000  Uiso   1.00
H164   H     0.14644   0.15287   0.37594   0.00000  Uiso   1.00
H165   H     0.14401   0.34445   0.33436   0.00000  Uiso   1.00
H166   H     0.27732   0.26324   0.05903   0.00000  Uiso   1.00
H167   H     0.14719   0.05909   0.47057   0.00000  Uiso   1.00
H168   H     0.14207   0.46307   0.38290   0.00000  Uiso   1.00
H169   H     0.40055   0.38150   0.37073   0.00000  Uiso   1.00
H170   H     0.44875   0.38572   0.25645   0.00000  Uiso   1.00
H171   H     0.38704   0.28889   0.45162   0.00000  Uiso   1.00
H172   H     0.38461   0.48047   0.41004   0.00000  Uiso   1.00
H173   H     0.47260   0.37365   0.12045   0.00000  Uiso   1.00
H174   H     0.34247   0.16949   0.53200   0.00000  Uiso   1.00
H175   H     0.33735   0.57347   0.44432   0.00000  Uiso   1.00
O176   O     0.40256   0.31888   0.01327   0.00000  Uiso   1.00
O177   O     0.23182   0.05104   0.55322   0.00000  Uiso   1.00
O178   O     0.22510   0.58105   0.43818   0.00000  Uiso   1.00
N179   N     0.31667   0.28866   0.08916   0.00000  Uiso   1.00
N180   N     0.19500   0.09778   0.47393   0.00000  Uiso   1.00
N181   N     0.19021   0.47546   0.39198   0.00000  Uiso   1.00
N182   N     0.42175   0.34807   0.12222   0.00000  Uiso   1.00
N183   N     0.30008   0.15719   0.50698   0.00000  Uiso   1.00
N184   N     0.29528   0.53487   0.42503   0.00000  Uiso   1.00
C185   C     0.71790   0.94262   0.31542   0.00000  Uiso   1.00
C186   C     0.70157   0.97731   0.26114   0.00000  Uiso   1.00
C187   C     0.72093   0.98104   0.19709   0.00000  Uiso   1.00
C188   C     0.70099   0.01502   0.15485   0.00000  Uiso   1.00
C189   C     0.68142   0.06446   0.06736   0.00000  Uiso   1.00
C190   C     0.75418   0.99639   0.36718   0.00000  Uiso   1.00
C191   C     0.81778   0.01616   0.39229   0.00000  Uiso   1.00
C192   C     0.84212   0.06620   0.43932   0.00000  Uiso   1.00
C193   C     0.90422   0.14524   0.51649   0.00000  Uiso   1.00
C194   C     0.65009   0.89098   0.34458   0.00000  Uiso   1.00
C195   C     0.62617   0.82212   0.35071   0.00000  Uiso   1.00
C196   C     0.56288   0.78341   0.37872   0.00000  Uiso   1.00
C197   C     0.46336   0.69879   0.42081   0.00000  Uiso   1.00
C198   C     0.64804   0.99633   0.35429   0.00000  Uiso   1.00
C199   C     0.66362   0.00648   0.28225   0.00000  Uiso   1.00
C200   C     0.64364   0.04046   0.24010   0.00000  Uiso   1.00
C201   C     0.66297   0.04424   0.17600   0.00000  Uiso   1.00
C202   C     0.71624   0.02557   0.38829   0.00000  Uiso   1.00
C203   C     0.74049   0.07558   0.43529   0.00000  Uiso   1.00
C204   C     0.80411   0.09543   0.46047   0.00000  Uiso   1.00
C205   C     0.61214   0.92015   0.36569   0.00000  Uiso   1.00
C206   C     0.54888   0.88155   0.39371   0.00000  Uiso   1.00
C207   C     0.52487   0.81264   0.39988   0.00000  Uiso   1.00
H208   H     0.74745   0.91991   0.29898   0.00000  Uiso   1.00
H209   H     0.75031   0.95846   0.18077   0.00000  Uiso   1.00
H210   H     0.84713   0.99357   0.37594   0.00000  Uiso   1.00
H211   H     0.65555   0.79957   0.33436   0.00000  Uiso   1.00
H212   H     0.73676   0.01408   0.05903   0.00000  Uiso   1.00
H213   H     0.94091   0.08810   0.47057   0.00000  Uiso   1.00
H214   H     0.53693   0.67900   0.38290   0.00000  Uiso   1.00
H215   H     0.61850   0.01905   0.37073   0.00000  Uiso   1.00
H216   H     0.61428   0.06303   0.25645   0.00000  Uiso   1.00
H217   H     0.71111   0.09815   0.45162   0.00000  Uiso   1.00
H218   H     0.51953   0.90414   0.41004   0.00000  Uiso   1.00
H219   H     0.62635   0.09896   0.12045   0.00000  Uiso   1.00
H220   H     0.83051   0.17298   0.53200   0.00000  Uiso   1.00
H221   H     0.42653   0.76388   0.44432   0.00000  Uiso   1.00
O222   O     0.68112   0.08368   0.01327   0.00000  Uiso   1.00
O223   O     0.94896   0.18079   0.55322   0.00000  Uiso   1.00
O224   O     0.41895   0.64406   0.43818   0.00000  Uiso   1.00
N225   N     0.71134   0.02801   0.08916   0.00000  Uiso   1.00
N226   N     0.90222   0.09722   0.47393   0.00000  Uiso   1.00
N227   N     0.52454   0.71475   0.39198   0.00000  Uiso   1.00
N228   N     0.65193   0.07368   0.12222   0.00000  Uiso   1.00
N229   N     0.84281   0.14289   0.50698   0.00000  Uiso   1.00
N230   N     0.46513   0.76042   0.42503   0.00000  Uiso   1.00
C231   C     0.05738   0.77528   0.31542   0.00000  Uiso   1.00
C232   C     0.02269   0.72426   0.26114   0.00000  Uiso   1.00
C233   C     0.01896   0.73990   0.19709   0.00000  Uiso   1.00
C234   C     0.98498   0.68597   0.15485   0.00000  Uiso   1.00
C235   C     0.93554   0.61696   0.06736   0.00000  Uiso   1.00
C236   C     0.00361   0.75779   0.36718   0.00000  Uiso   1.00
C237   C     0.98384   0.80162   0.39229   0.00000  Uiso   1.00
C238   C     0.93380   0.77592   0.43932   0.00000  Uiso   1.00
C239   C     0.85476   0.75898   0.51649   0.00000  Uiso   1.00
C240   C     0.10902   0.75911   0.34458   0.00000  Uiso   1.00
C241   C     0.17788   0.80405   0.35071   0.00000  Uiso   1.00
C242   C     0.21659   0.77947   0.37872   0.00000  Uiso   1.00
C243   C     0.30121   0.76457   0.42081   0.00000  Uiso   1.00
C244   C     0.00367   0.65171   0.35429   0.00000  Uiso   1.00
C245   C     0.99352   0.65714   0.28225   0.00000  Uiso   1.00
C246   C     0.95954   0.60318   0.24010   0.00000  Uiso   1.00
C247   C     0.95576   0.61873   0.17600   0.00000  Uiso   1.00
C248   C     0.97443   0.69067   0.38829   0.00000  Uiso   1.00
C249   C     0.92442   0.66490   0.43529   0.00000  Uiso   1.00
C250   C     0.90457   0.70868   0.46047   0.00000  Uiso   1.00
C251   C     0.07985   0.69199   0.36569   0.00000  Uiso   1.00
C252   C     0.11845   0.66733   0.39371   0.00000  Uiso   1.00
C253   C     0.18736   0.71223   0.39988   0.00000  Uiso   1.00
H254   H     0.08009   0.82754   0.29898   0.00000  Uiso   1.00
H255   H     0.04154   0.79185   0.18077   0.00000  Uiso   1.00
H256   H     0.00643   0.85356   0.37594   0.00000  Uiso   1.00
H257   H     0.20043   0.85599   0.33436   0.00000  Uiso   1.00
H258   H     0.98592   0.72268   0.05903   0.00000  Uiso   1.00
H259   H     0.91190   0.85281   0.47057   0.00000  Uiso   1.00
H260   H     0.32100   0.85793   0.38290   0.00000  Uiso   1.00
H261   H     0.98095   0.59945   0.37073   0.00000  Uiso   1.00
H262   H     0.93697   0.55125   0.25645   0.00000  Uiso   1.00
H263   H     0.90185   0.61296   0.45162   0.00000  Uiso   1.00
H264   H     0.09586   0.61539   0.41004   0.00000  Uiso   1.00
H265   H     0.90104   0.52740   0.12045   0.00000  Uiso   1.00
H266   H     0.82702   0.65753   0.53200   0.00000  Uiso   1.00
H267   H     0.23612   0.66265   0.44432   0.00000  Uiso   1.00
O268   O     0.91632   0.59744   0.01327   0.00000  Uiso   1.00
O269   O     0.81921   0.76818   0.55322   0.00000  Uiso   1.00
O270   O     0.35594   0.77490   0.43818   0.00000  Uiso   1.00
N271   N     0.97199   0.68333   0.08916   0.00000  Uiso   1.00
N272   N     0.90278   0.80500   0.47393   0.00000  Uiso   1.00
N273   N     0.28525   0.80979   0.39198   0.00000  Uiso   1.00
N274   N     0.92632   0.57825   0.12222   0.00000  Uiso   1.00
N275   N     0.85711   0.69992   0.50698   0.00000  Uiso   1.00
N276   N     0.23958   0.70472   0.42503   0.00000  Uiso   1.00
C277   C     0.71790   0.77528   0.18458   0.00000  Uiso   1.00
C278   C     0.70157   0.72426   0.23886   0.00000  Uiso   1.00
C279   C     0.72093   0.73990   0.30291   0.00000  Uiso   1.00
C280   C     0.70099   0.68597   0.34515   0.00000  Uiso   1.00
C281   C     0.68142   0.61696   0.43264   0.00000  Uiso   1.00
C282   C     0.75418   0.75779   0.13282   0.00000  Uiso   1.00
C283   C     0.81778   0.80162   0.10771   0.00000  Uiso   1.00
C284   C     0.84212   0.77592   0.06068   0.00000  Uiso   1.00
C285   C     0.90422   0.75898   0.98351   0.00000  Uiso   1.00
C286   C     0.65009   0.75911   0.15542   0.00000  Uiso   1.00
C287   C     0.62617   0.80405   0.14929   0.00000  Uiso   1.00
C288   C     0.56288   0.77947   0.12128   0.00000  Uiso   1.00
C289   C     0.46336   0.76457   0.07919   0.00000  Uiso   1.00
C290   C     0.64804   0.65171   0.14571   0.00000  Uiso   1.00
C291   C     0.66362   0.65714   0.21775   0.00000  Uiso   1.00
C292   C     0.64364   0.60318   0.25990   0.00000  Uiso   1.00
C293   C     0.66297   0.61873   0.32400   0.00000  Uiso   1.00
C294   C     0.71624   0.69067   0.11171   0.00000  Uiso   1.00
C295   C     0.74049   0.66490   0.06471   0.00000  Uiso   1.00
C296   C     0.80411   0.70868   0.03953   0.00000  Uiso   1.00
C297   C     0.61214   0.69199   0.13431   0.00000  Uiso   1.00
C298   C     0.54888   0.66733   0.10629   0.00000  Uiso   1.00
C299   C     0.52487   0.71223   0.10012   0.00000  Uiso   1.00
H300   H     0.74745   0.82754   0.20102   0.00000  Uiso   1.00
H301   H     0.75031   0.79185   0.31923   0.00000  Uiso   1.00
H302   H     0.84713   0.85356   0.12406   0.00000  Uiso   1.00
H303   H     0.65555   0.85599   0.16564   0.00000  Uiso   1.00
H304   H     0.73676   0.72268   0.44097   0.00000  Uiso   1.00
H305   H     0.94091   0.85281   0.02943   0.00000  Uiso   1.00
H306   H     0.53693   0.85793   0.11710   0.00000  Uiso   1.00
H307   H     0.61850   0.59945   0.12927   0.00000  Uiso   1.00
H308   H     0.61428   0.55125   0.24355   0.00000  Uiso   1.00
H309   H     0.71111   0.61296   0.04838   0.00000  Uiso   1.00
H310   H     0.51953   0.61539   0.08996   0.00000  Uiso   1.00
H311   H     0.62635   0.52740   0.37955   0.00000  Uiso   1.00
H312   H     0.83051   0.65753   0.96800   0.00000  Uiso   1.00
H313   H     0.42653   0.66265   0.05568   0.00000  Uiso   1.00
O314   O     0.68112   0.59744   0.48673   0.00000  Uiso   1.00
O315   O     0.94896   0.76818   0.94678   0.00000  Uiso   1.00
O316   O     0.41895   0.77490   0.06182   0.00000  Uiso   1.00
N317   N     0.71134   0.68333   0.41084   0.00000  Uiso   1.00
N318   N     0.90222   0.80500   0.02607   0.00000  Uiso   1.00
N319   N     0.52454   0.80979   0.10802   0.00000  Uiso   1.00
N320   N     0.65193   0.57825   0.37778   0.00000  Uiso   1.00
N321   N     0.84281   0.69992   0.99302   0.00000  Uiso   1.00
N322   N     0.46513   0.70472   0.07497   0.00000  Uiso   1.00
C323   C     0.05738   0.28210   0.18458   0.00000  Uiso   1.00
C324   C     0.02269   0.29843   0.23886   0.00000  Uiso   1.00
C325   C     0.01896   0.27907   0.30291   0.00000  Uiso   1.00
C326   C     0.98498   0.29901   0.34515   0.00000  Uiso   1.00
C327   C     0.93554   0.31858   0.43264   0.00000  Uiso   1.00
C328   C     0.00361   0.24582   0.13282   0.00000  Uiso   1.00
C329   C     0.98384   0.18222   0.10771   0.00000  Uiso   1.00
C330   C     0.93380   0.15788   0.06068   0.00000  Uiso   1.00
C331   C     0.85476   0.09578   0.98351   0.00000  Uiso   1.00
C332   C     0.10902   0.34991   0.15542   0.00000  Uiso   1.00
C333   C     0.17788   0.37383   0.14929   0.00000  Uiso   1.00
C334   C     0.21659   0.43712   0.12128   0.00000  Uiso   1.00
C335   C     0.30121   0.53664   0.07919   0.00000  Uiso   1.00
C336   C     0.00367   0.35196   0.14571   0.00000  Uiso   1.00
C337   C     0.99352   0.33638   0.21775   0.00000  Uiso   1.00
C338   C     0.95954   0.35636   0.25990   0.00000  Uiso   1.00
C339   C     0.95576   0.33703   0.32400   0.00000  Uiso   1.00
C340   C     0.97443   0.28376   0.11171   0.00000  Uiso   1.00
C341   C     0.92442   0.25951   0.06471   0.00000  Uiso   1.00
C342   C     0.90457   0.19589   0.03953   0.00000  Uiso   1.00
C343   C     0.07985   0.38786   0.13431   0.00000  Uiso   1.00
C344   C     0.11845   0.45112   0.10629   0.00000  Uiso   1.00
C345   C     0.18736   0.47513   0.10012   0.00000  Uiso   1.00
H346   H     0.08009   0.25255   0.20102   0.00000  Uiso   1.00
H347   H     0.04154   0.24969   0.31923   0.00000  Uiso   1.00
H348   H     0.00643   0.15287   0.12406   0.00000  Uiso   1.00
H349   H     0.20043   0.34445   0.16564   0.00000  Uiso   1.00
H350   H     0.98592   0.26324   0.44097   0.00000  Uiso   1.00
H351   H     0.91190   0.05909   0.02943   0.00000  Uiso   1.00
H352   H     0.32100   0.46307   0.11710   0.00000  Uiso   1.00
H353   H     0.98095   0.38150   0.12927   0.00000  Uiso   1.00
H354   H     0.93697   0.38572   0.24355   0.00000  Uiso   1.00
H355   H     0.90185   0.28889   0.04838   0.00000  Uiso   1.00
H356   H     0.09586   0.48047   0.08996   0.00000  Uiso   1.00
H357   H     0.90104   0.37365   0.37955   0.00000  Uiso   1.00
H358   H     0.82702   0.16949   0.96800   0.00000  Uiso   1.00
H359   H     0.23612   0.57347   0.05568   0.00000  Uiso   1.00
O360   O     0.91632   0.31888   0.48673   0.00000  Uiso   1.00
O361   O     0.81921   0.05104   0.94678   0.00000  Uiso   1.00
O362   O     0.35594   0.58105   0.06182   0.00000  Uiso   1.00
N363   N     0.97199   0.28866   0.41084   0.00000  Uiso   1.00
N364   N     0.90278   0.09778   0.02607   0.00000  Uiso   1.00
N365   N     0.28525   0.47546   0.10802   0.00000  Uiso   1.00
N366   N     0.92632   0.34807   0.37778   0.00000  Uiso   1.00
N367   N     0.85711   0.15719   0.99302   0.00000  Uiso   1.00
N368   N     0.23958   0.53487   0.07497   0.00000  Uiso   1.00
C369   C     0.22472   0.94262   0.18458   0.00000  Uiso   1.00
C370   C     0.27574   0.97731   0.23886   0.00000  Uiso   1.00
C371   C     0.26010   0.98104   0.30291   0.00000  Uiso   1.00
C372   C     0.31403   0.01502   0.34515   0.00000  Uiso   1.00
C373   C     0.38304   0.06446   0.43264   0.00000  Uiso   1.00
C374   C     0.24221   0.99639   0.13282   0.00000  Uiso   1.00
C375   C     0.19838   0.01616   0.10771   0.00000  Uiso   1.00
C376   C     0.22408   0.06620   0.06068   0.00000  Uiso   1.00
C377   C     0.24102   0.14524   0.98351   0.00000  Uiso   1.00
C378   C     0.24089   0.89098   0.15542   0.00000  Uiso   1.00
C379   C     0.19595   0.82212   0.14929   0.00000  Uiso   1.00
C380   C     0.22053   0.78341   0.12128   0.00000  Uiso   1.00
C381   C     0.23543   0.69879   0.07919   0.00000  Uiso   1.00
C382   C     0.34829   0.99633   0.14571   0.00000  Uiso   1.00
C383   C     0.34286   0.00648   0.21775   0.00000  Uiso   1.00
C384   C     0.39682   0.04046   0.25990   0.00000  Uiso   1.00
C385   C     0.38127   0.04424   0.32400   0.00000  Uiso   1.00
C386   C     0.30933   0.02557   0.11171   0.00000  Uiso   1.00
C387   C     0.33510   0.07558   0.06471   0.00000  Uiso   1.00
C388   C     0.29132   0.09543   0.03953   0.00000  Uiso   1.00
C389   C     0.30801   0.92015   0.13431   0.00000  Uiso   1.00
C390   C     0.33267   0.88155   0.10629   0.00000  Uiso   1.00
C391   C     0.28777   0.81264   0.10012   0.00000  Uiso   1.00
H392   H     0.17246   0.91991   0.20102   0.00000  Uiso   1.00
H393   H     0.20815   0.95846   0.31923   0.00000  Uiso   1.00
H394   H     0.14644   0.99357   0.12406   0.00000  Uiso   1.00
H395   H     0.14401   0.79957   0.16564   0.00000  Uiso   1.00
H396   H     0.27732   0.01408   0.44097   0.00000  Uiso   1.00
H397   H     0.14719   0.08810   0.02943   0.00000  Uiso   1.00
H398   H     0.14207   0.67900   0.11710   0.00000  Uiso   1.00
H399   H     0.40055   0.01905   0.12927   0.00000  Uiso   1.00
H400   H     0.44875   0.06303   0.24355   0.00000  Uiso   1.00
H401   H     0.38704   0.09815   0.04838   0.00000  Uiso   1.00
H402   H     0.38461   0.90414   0.08996   0.00000  Uiso   1.00
H403   H     0.47260   0.09896   0.37955   0.00000  Uiso   1.00
H404   H     0.34247   0.17298   0.96800   0.00000  Uiso   1.00
H405   H     0.33735   0.76388   0.05568   0.00000  Uiso   1.00
O406   O     0.40256   0.08368   0.48673   0.00000  Uiso   1.00
O407   O     0.23182   0.18079   0.94678   0.00000  Uiso   1.00
O408   O     0.22510   0.64406   0.06182   0.00000  Uiso   1.00
N409   N     0.31667   0.02801   0.41084   0.00000  Uiso   1.00
N410   N     0.19500   0.09722   0.02607   0.00000  Uiso   1.00
N411   N     0.19021   0.71475   0.10802   0.00000  Uiso   1.00
N412   N     0.42175   0.07368   0.37778   0.00000  Uiso   1.00
N413   N     0.30008   0.14289   0.99302   0.00000  Uiso   1.00
N414   N     0.29528   0.76042   0.07497   0.00000  Uiso   1.00
C415   C     0.28210   0.22472   0.68458   0.00000  Uiso   1.00
C416   C     0.29843   0.27574   0.73886   0.00000  Uiso   1.00
C417   C     0.27907   0.26010   0.80291   0.00000  Uiso   1.00
C418   C     0.29901   0.31403   0.84515   0.00000  Uiso   1.00
C419   C     0.31858   0.38304   0.93264   0.00000  Uiso   1.00
C420   C     0.24582   0.24221   0.63282   0.00000  Uiso   1.00
C421   C     0.18222   0.19838   0.60771   0.00000  Uiso   1.00
C422   C     0.15788   0.22408   0.56068   0.00000  Uiso   1.00
C423   C     0.09578   0.24102   0.48351   0.00000  Uiso   1.00
C424   C     0.34991   0.24089   0.65542   0.00000  Uiso   1.00
C425   C     0.37383   0.19595   0.64929   0.00000  Uiso   1.00
C426   C     0.43712   0.22053   0.62128   0.00000  Uiso   1.00
C427   C     0.53664   0.23543   0.57919   0.00000  Uiso   1.00
C428   C     0.35196   0.34829   0.64571   0.00000  Uiso   1.00
C429   C     0.33638   0.34286   0.71775   0.00000  Uiso   1.00
C430   C     0.35636   0.39682   0.75990   0.00000  Uiso   1.00
C431   C     0.33703   0.38127   0.82400   0.00000  Uiso   1.00
C432   C     0.28376   0.30933   0.61171   0.00000  Uiso   1.00
C433   C     0.25951   0.33510   0.56471   0.00000  Uiso   1.00
C434   C     0.19589   0.29132   0.53953   0.00000  Uiso   1.00
C435   C     0.38786   0.30801   0.63431   0.00000  Uiso   1.00
C436   C     0.45112   0.33267   0.60629   0.00000  Uiso   1.00
C437   C     0.47513   0.28777   0.60012   0.00000  Uiso   1.00
H438   H     0.25255   0.17246   0.70102   0.00000  Uiso   1.00
H439   H     0.24969   0.20815   0.81923   0.00000  Uiso   1.00
H440   H     0.15287   0.14644   0.62406   0.00000  Uiso   1.00
H441   H     0.34445   0.14401   0.66564   0.00000  Uiso   1.00
H442   H     0.26324   0.27732   0.94097   0.00000  Uiso   1.00
H443   H     0.05909   0.14719   0.52943   0.00000  Uiso   1.00
H444   H     0.46307   0.14207   0.61710   0.00000  Uiso   1.00
H445   H     0.38150   0.40055   0.62927   0.00000  Uiso   1.00
H446   H     0.38572   0.44875   0.74355   0.00000  Uiso   1.00
H447   H     0.28889   0.38704   0.54838   0.00000  Uiso   1.00
H448   H     0.48047   0.38461   0.58996   0.00000  Uiso   1.00
H449   H     0.37365   0.47260   0.87955   0.00000  Uiso   1.00
H450   H     0.16949   0.34247   0.46800   0.00000  Uiso   1.00
H451   H     0.57347   0.33735   0.55568   0.00000  Uiso   1.00
O452   O     0.31888   0.40256   0.98673   0.00000  Uiso   1.00
O453   O     0.05104   0.23182   0.44678   0.00000  Uiso   1.00
O454   O     0.58105   0.22510   0.56182   0.00000  Uiso   1.00
N455   N     0.28866   0.31667   0.91084   0.00000  Uiso   1.00
N456   N     0.09778   0.19500   0.52607   0.00000  Uiso   1.00
N457   N     0.47546   0.19021   0.60802   0.00000  Uiso   1.00
N458   N     0.34807   0.42175   0.87778   0.00000  Uiso   1.00
N459   N     0.15719   0.30008   0.49302   0.00000  Uiso   1.00
N460   N     0.53487   0.29528   0.57497   0.00000  Uiso   1.00
C461   C     0.94262   0.71790   0.68458   0.00000  Uiso   1.00
C462   C     0.97731   0.70157   0.73886   0.00000  Uiso   1.00
C463   C     0.98104   0.72093   0.80291   0.00000  Uiso   1.00
C464   C     0.01502   0.70099   0.84515   0.00000  Uiso   1.00
C465   C     0.06446   0.68142   0.93264   0.00000  Uiso   1.00
C466   C     0.99639   0.75418   0.63282   0.00000  Uiso   1.00
C467   C     0.01616   0.81778   0.60771   0.00000  Uiso   1.00
C468   C     0.06620   0.84212   0.56068   0.00000  Uiso   1.00
C469   C     0.14524   0.90422   0.48351   0.00000  Uiso   1.00
C470   C     0.89098   0.65009   0.65542   0.00000  Uiso   1.00
C471   C     0.82212   0.62617   0.64929   0.00000  Uiso   1.00
C472   C     0.78341   0.56288   0.62128   0.00000  Uiso   1.00
C473   C     0.69879   0.46336   0.57919   0.00000  Uiso   1.00
C474   C     0.99633   0.64804   0.64571   0.00000  Uiso   1.00
C475   C     0.00648   0.66362   0.71775   0.00000  Uiso   1.00
C476   C     0.04046   0.64364   0.75990   0.00000  Uiso   1.00
C477   C     0.04424   0.66297   0.82400   0.00000  Uiso   1.00
C478   C     0.02557   0.71624   0.61171   0.00000  Uiso   1.00
C479   C     0.07558   0.74049   0.56471   0.00000  Uiso   1.00
C480   C     0.09543   0.80411   0.53953   0.00000  Uiso   1.00
C481   C     0.92015   0.61214   0.63431   0.00000  Uiso   1.00
C482   C     0.88155   0.54888   0.60629   0.00000  Uiso   1.00
C483   C     0.81264   0.52487   0.60012   0.00000  Uiso   1.00
H484   H     0.91991   0.74745   0.70102   0.00000  Uiso   1.00
H485   H     0.95846   0.75031   0.81923   0.00000  Uiso   1.00
H486   H     0.99357   0.84713   0.62406   0.00000  Uiso   1.00
H487   H     0.79957   0.65555   0.66564   0.00000  Uiso   1.00
H488   H     0.01408   0.73676   0.94097   0.00000  Uiso   1.00
H489   H     0.08810   0.94091   0.52943   0.00000  Uiso   1.00
H490   H     0.67900   0.53693   0.61710   0.00000  Uiso   1.00
H491   H     0.01905   0.61850   0.62927   0.00000  Uiso   1.00
H492   H     0.06303   0.61428   0.74355   0.00000  Uiso   1.00
H493   H     0.09815   0.71111   0.54838   0.00000  Uiso   1.00
H494   H     0.90414   0.51953   0.58996   0.00000  Uiso   1.00
H495   H     0.09896   0.62635   0.87955   0.00000  Uiso   1.00
H496   H     0.17298   0.83051   0.46800   0.00000  Uiso   1.00
H497   H     0.76388   0.42653   0.55568   0.00000  Uiso   1.00
O498   O     0.08368   0.68112   0.98673   0.00000  Uiso   1.00
O499   O     0.18079   0.94896   0.44678   0.00000  Uiso   1.00
O500   O     0.64406   0.41895   0.56182   0.00000  Uiso   1.00
N501   N     0.02801   0.71134   0.91084   0.00000  Uiso   1.00
N502   N     0.09722   0.90222   0.52607   0.00000  Uiso   1.00
N503   N     0.71475   0.52454   0.60802   0.00000  Uiso   1.00
N504   N     0.07368   0.65193   0.87778   0.00000  Uiso   1.00
N505   N     0.14289   0.84281   0.49302   0.00000  Uiso   1.00
N506   N     0.76042   0.46513   0.57497   0.00000  Uiso   1.00
C507   C     0.77528   0.05738   0.68458   0.00000  Uiso   1.00
C508   C     0.72426   0.02269   0.73886   0.00000  Uiso   1.00
C509   C     0.73990   0.01896   0.80291   0.00000  Uiso   1.00
C510   C     0.68597   0.98498   0.84515   0.00000  Uiso   1.00
C511   C     0.61696   0.93554   0.93264   0.00000  Uiso   1.00
C512   C     0.75779   0.00361   0.63282   0.00000  Uiso   1.00
C513   C     0.80162   0.98384   0.60771   0.00000  Uiso   1.00
C514   C     0.77592   0.93380   0.56068   0.00000  Uiso   1.00
C515   C     0.75898   0.85476   0.48351   0.00000  Uiso   1.00
C516   C     0.75911   0.10902   0.65542   0.00000  Uiso   1.00
C517   C     0.80405   0.17788   0.64929   0.00000  Uiso   1.00
C518   C     0.77947   0.21659   0.62128   0.00000  Uiso   1.00
C519   C     0.76457   0.30121   0.57919   0.00000  Uiso   1.00
C520   C     0.65171   0.00367   0.64571   0.00000  Uiso   1.00
C521   C     0.65714   0.99352   0.71775   0.00000  Uiso   1.00
C522   C     0.60318   0.95954   0.75990   0.00000  Uiso   1.00
C523   C     0.61873   0.95576   0.82400   0.00000  Uiso   1.00
C524   C     0.69067   0.97443   0.61171   0.00000  Uiso   1.00
C525   C     0.66490   0.92442   0.56471   0.00000  Uiso   1.00
C526   C     0.70868   0.90457   0.53953   0.00000  Uiso   1.00
C527   C     0.69199   0.07985   0.63431   0.00000  Uiso   1.00
C528   C     0.66733   0.11845   0.60629   0.00000  Uiso   1.00
C529   C     0.71223   0.18736   0.60012   0.00000  Uiso   1.00
H530   H     0.82754   0.08009   0.70102   0.00000  Uiso   1.00
H531   H     0.79185   0.04154   0.81923   0.00000  Uiso   1.00
H532   H     0.85356   0.00643   0.62406   0.00000  Uiso   1.00
H533   H     0.85599   0.20043   0.66564   0.00000  Uiso   1.00
H534   H     0.72268   0.98592   0.94097   0.00000  Uiso   1.00
H535   H     0.85281   0.91190   0.52943   0.00000  Uiso   1.00
H536   H     0.85793   0.32100   0.61710   0.00000  Uiso   1.00
H537   H     0.59945   0.98095   0.62927   0.00000  Uiso   1.00
H538   H     0.55125   0.93697   0.74355   0.00000  Uiso   1.00
H539   H     0.61296   0.90185   0.54838   0.00000  Uiso   1.00
H540   H     0.61539   0.09586   0.58996   0.00000  Uiso   1.00
H541   H     0.52740   0.90104   0.87955   0.00000  Uiso   1.00
H542   H     0.65753   0.82702   0.46800   0.00000  Uiso   1.00
H543   H     0.66265   0.23612   0.55568   0.00000  Uiso   1.00
O544   O     0.59744   0.91632   0.98673   0.00000  Uiso   1.00
O545   O     0.76818   0.81921   0.44678   0.00000  Uiso   1.00
O546   O     0.77490   0.35594   0.56182   0.00000  Uiso   1.00
N547   N     0.68333   0.97199   0.91084   0.00000  Uiso   1.00
N548   N     0.80500   0.90278   0.52607   0.00000  Uiso   1.00
N549   N     0.80979   0.28525   0.60802   0.00000  Uiso   1.00
N550   N     0.57825   0.92632   0.87778   0.00000  Uiso   1.00
N551   N     0.69992   0.85711   0.49302   0.00000  Uiso   1.00
N552   N     0.70472   0.23958   0.57497   0.00000  Uiso   1.00
