data_job_03603
_audit_creation_date              2018-12-19
_audit_creation_method            'Materials Studio'
_symmetry_space_group_name_H-M    'P1'
_symmetry_Int_Tables_number       1
_symmetry_cell_setting            triclinic
loop_
_symmetry_equiv_pos_as_xyz
  x,y,z
_cell_length_a                    20.8394
_cell_length_b                    20.8394
_cell_length_c                    11.8835
_cell_angle_alpha                 90.0000
_cell_angle_beta                  90.0000
_cell_angle_gamma                 90.0000
loop_
_atom_site_label
_atom_site_type_symbol
_atom_site_fract_x
_atom_site_fract_y
_atom_site_fract_z
_atom_site_U_iso_or_equiv
_atom_site_adp_type
_atom_site_occupancy
C1     C     0.75079   0.82341   0.90345   0.00000  Uiso   1.00
C2     C     0.80039   0.81577   0.99684   0.00000  Uiso   1.00
C3     C     0.83392   0.76002   0.02177   0.00000  Uiso   1.00
C4     C     0.87720   0.76283   0.11046   0.00000  Uiso   1.00
C5     C     0.95276   0.74235   0.24616   0.00000  Uiso   1.00
C6     C     0.68963   0.84693   0.96055   0.00000  Uiso   1.00
C7     C     0.63003   0.81738   0.95494   0.00000  Uiso   1.00
C8     C     0.58007   0.84643   0.01308   0.00000  Uiso   1.00
C9     C     0.48366   0.87435   0.09237   0.00000  Uiso   1.00
C10    C     0.77417   0.87890   0.83052   0.00000  Uiso   1.00
C11    C     0.78563   0.87623   0.71557   0.00000  Uiso   1.00
C12    C     0.80683   0.93220   0.66421   0.00000  Uiso   1.00
C13    C     0.84168   0.00975   0.54161   0.00000  Uiso   1.00
C14    C     0.76803   0.92755   0.01663   0.00000  Uiso   1.00
C15    C     0.80975   0.87233   0.05832   0.00000  Uiso   1.00
C16    C     0.85299   0.87523   0.14699   0.00000  Uiso   1.00
C17    C     0.88658   0.81949   0.17204   0.00000  Uiso   1.00
C18    C     0.69899   0.90349   0.02203   0.00000  Uiso   1.00
C19    C     0.64910   0.93259   0.08017   0.00000  Uiso   1.00
C20    C     0.58945   0.90309   0.07466   0.00000  Uiso   1.00
C21    C     0.78353   0.93546   0.89199   0.00000  Uiso   1.00
C22    C     0.80471   0.99144   0.84080   0.00000  Uiso   1.00
C23    C     0.81621   0.98886   0.72580   0.00000  Uiso   1.00
H24    H     0.74350   0.77938   0.85558   0.00000  Uiso   1.00
H25    H     0.82666   0.71625   0.97418   0.00000  Uiso   1.00
H26    H     0.62280   0.77361   0.90735   0.00000  Uiso   1.00
H27    H     0.77839   0.83245   0.66802   0.00000  Uiso   1.00
H28    H     0.92296   0.67121   0.13280   0.00000  Uiso   1.00
H29    H     0.49312   0.79216   0.99187   0.00000  Uiso   1.00
H30    H     0.82119   0.91623   0.48719   0.00000  Uiso   1.00
H31    H     0.77531   0.97159   0.06450   0.00000  Uiso   1.00
H32    H     0.86022   0.91901   0.19455   0.00000  Uiso   1.00
H33    H     0.65636   0.97637   0.12773   0.00000  Uiso   1.00
H34    H     0.81194   0.03521   0.88840   0.00000  Uiso   1.00
H35    H     0.95020   0.83577   0.31167   0.00000  Uiso   1.00
H36    H     0.52035   0.95673   0.17073   0.00000  Uiso   1.00
H37    H     0.84843   0.08080   0.66606   0.00000  Uiso   1.00
O38    O     0.99185   0.71543   0.30404   0.00000  Uiso   1.00
O39    O     0.42790   0.87412   0.11913   0.00000  Uiso   1.00
O40    O     0.85833   0.03690   0.45700   0.00000  Uiso   1.00
N41    N     0.91773   0.71716   0.15703   0.00000  Uiso   1.00
N42    N     0.51585   0.83024   0.02529   0.00000  Uiso   1.00
N43    N     0.82256   0.94624   0.55344   0.00000  Uiso   1.00
N44    N     0.93239   0.80571   0.25328   0.00000  Uiso   1.00
N45    N     0.53051   0.91879   0.12153   0.00000  Uiso   1.00
N46    N     0.83721   0.03479   0.64969   0.00000  Uiso   1.00
C47    C     0.25079   0.32341   0.40345   0.00000  Uiso   1.00
C48    C     0.30039   0.31577   0.49684   0.00000  Uiso   1.00
C49    C     0.33392   0.26002   0.52177   0.00000  Uiso   1.00
C50    C     0.37720   0.26283   0.61046   0.00000  Uiso   1.00
C51    C     0.45276   0.24235   0.74616   0.00000  Uiso   1.00
C52    C     0.18963   0.34693   0.46055   0.00000  Uiso   1.00
C53    C     0.13003   0.31738   0.45494   0.00000  Uiso   1.00
C54    C     0.08007   0.34643   0.51308   0.00000  Uiso   1.00
C55    C     0.98366   0.37435   0.59237   0.00000  Uiso   1.00
C56    C     0.27417   0.37890   0.33052   0.00000  Uiso   1.00
C57    C     0.28563   0.37623   0.21557   0.00000  Uiso   1.00
C58    C     0.30683   0.43220   0.16421   0.00000  Uiso   1.00
C59    C     0.34168   0.50975   0.04161   0.00000  Uiso   1.00
C60    C     0.26803   0.42755   0.51663   0.00000  Uiso   1.00
C61    C     0.30975   0.37233   0.55832   0.00000  Uiso   1.00
C62    C     0.35299   0.37523   0.64699   0.00000  Uiso   1.00
C63    C     0.38658   0.31949   0.67204   0.00000  Uiso   1.00
C64    C     0.19899   0.40349   0.52203   0.00000  Uiso   1.00
C65    C     0.14910   0.43259   0.58017   0.00000  Uiso   1.00
C66    C     0.08945   0.40309   0.57466   0.00000  Uiso   1.00
C67    C     0.28353   0.43546   0.39199   0.00000  Uiso   1.00
C68    C     0.30471   0.49144   0.34080   0.00000  Uiso   1.00
C69    C     0.31621   0.48886   0.22580   0.00000  Uiso   1.00
H70    H     0.24350   0.27938   0.35558   0.00000  Uiso   1.00
H71    H     0.32666   0.21625   0.47418   0.00000  Uiso   1.00
H72    H     0.12280   0.27361   0.40735   0.00000  Uiso   1.00
H73    H     0.27839   0.33245   0.16802   0.00000  Uiso   1.00
H74    H     0.42296   0.17121   0.63280   0.00000  Uiso   1.00
H75    H     0.99312   0.29216   0.49187   0.00000  Uiso   1.00
H76    H     0.32119   0.41623   0.98719   0.00000  Uiso   1.00
H77    H     0.27531   0.47159   0.56450   0.00000  Uiso   1.00
H78    H     0.36022   0.41901   0.69455   0.00000  Uiso   1.00
H79    H     0.15636   0.47637   0.62773   0.00000  Uiso   1.00
H80    H     0.31194   0.53521   0.38840   0.00000  Uiso   1.00
H81    H     0.45020   0.33577   0.81167   0.00000  Uiso   1.00
H82    H     0.02035   0.45673   0.67073   0.00000  Uiso   1.00
H83    H     0.34843   0.58080   0.16606   0.00000  Uiso   1.00
O84    O     0.49185   0.21543   0.80404   0.00000  Uiso   1.00
O85    O     0.92790   0.37412   0.61913   0.00000  Uiso   1.00
O86    O     0.35833   0.53690   0.95700   0.00000  Uiso   1.00
N87    N     0.41773   0.21716   0.65703   0.00000  Uiso   1.00
N88    N     0.01585   0.33024   0.52529   0.00000  Uiso   1.00
N89    N     0.32256   0.44624   0.05344   0.00000  Uiso   1.00
N90    N     0.43239   0.30571   0.75328   0.00000  Uiso   1.00
N91    N     0.03051   0.41879   0.62153   0.00000  Uiso   1.00
N92    N     0.33721   0.53479   0.14969   0.00000  Uiso   1.00
C93    C     0.24921   0.17659   0.90345   0.00000  Uiso   1.00
C94    C     0.19961   0.18423   0.99684   0.00000  Uiso   1.00
C95    C     0.16608   0.23998   0.02177   0.00000  Uiso   1.00
C96    C     0.12280   0.23717   0.11046   0.00000  Uiso   1.00
C97    C     0.04724   0.25765   0.24616   0.00000  Uiso   1.00
C98    C     0.31037   0.15307   0.96055   0.00000  Uiso   1.00
C99    C     0.36997   0.18262   0.95494   0.00000  Uiso   1.00
C100   C     0.41993   0.15357   0.01308   0.00000  Uiso   1.00
C101   C     0.51634   0.12565   0.09237   0.00000  Uiso   1.00
C102   C     0.22583   0.12110   0.83052   0.00000  Uiso   1.00
C103   C     0.21437   0.12377   0.71557   0.00000  Uiso   1.00
C104   C     0.19317   0.06780   0.66421   0.00000  Uiso   1.00
C105   C     0.15832   0.99025   0.54161   0.00000  Uiso   1.00
C106   C     0.23197   0.07245   0.01663   0.00000  Uiso   1.00
C107   C     0.19025   0.12767   0.05832   0.00000  Uiso   1.00
C108   C     0.14701   0.12477   0.14699   0.00000  Uiso   1.00
C109   C     0.11342   0.18051   0.17204   0.00000  Uiso   1.00
C110   C     0.30101   0.09651   0.02203   0.00000  Uiso   1.00
C111   C     0.35090   0.06741   0.08017   0.00000  Uiso   1.00
C112   C     0.41055   0.09691   0.07466   0.00000  Uiso   1.00
C113   C     0.21647   0.06454   0.89199   0.00000  Uiso   1.00
C114   C     0.19529   0.00856   0.84080   0.00000  Uiso   1.00
C115   C     0.18379   0.01114   0.72580   0.00000  Uiso   1.00
H116   H     0.25650   0.22062   0.85558   0.00000  Uiso   1.00
H117   H     0.17334   0.28375   0.97418   0.00000  Uiso   1.00
H118   H     0.37720   0.22639   0.90735   0.00000  Uiso   1.00
H119   H     0.22161   0.16755   0.66802   0.00000  Uiso   1.00
H120   H     0.07704   0.32879   0.13280   0.00000  Uiso   1.00
H121   H     0.50688   0.20784   0.99187   0.00000  Uiso   1.00
H122   H     0.17881   0.08377   0.48719   0.00000  Uiso   1.00
H123   H     0.22469   0.02841   0.06450   0.00000  Uiso   1.00
H124   H     0.13978   0.08099   0.19455   0.00000  Uiso   1.00
H125   H     0.34364   0.02363   0.12773   0.00000  Uiso   1.00
H126   H     0.18806   0.96479   0.88840   0.00000  Uiso   1.00
H127   H     0.04980   0.16423   0.31167   0.00000  Uiso   1.00
H128   H     0.47965   0.04327   0.17073   0.00000  Uiso   1.00
H129   H     0.15157   0.91920   0.66606   0.00000  Uiso   1.00
O130   O     0.00815   0.28457   0.30404   0.00000  Uiso   1.00
O131   O     0.57210   0.12588   0.11913   0.00000  Uiso   1.00
O132   O     0.14167   0.96310   0.45700   0.00000  Uiso   1.00
N133   N     0.08227   0.28284   0.15703   0.00000  Uiso   1.00
N134   N     0.48415   0.16976   0.02529   0.00000  Uiso   1.00
N135   N     0.17744   0.05376   0.55344   0.00000  Uiso   1.00
N136   N     0.06761   0.19429   0.25328   0.00000  Uiso   1.00
N137   N     0.46949   0.08121   0.12153   0.00000  Uiso   1.00
N138   N     0.16279   0.96521   0.64969   0.00000  Uiso   1.00
C139   C     0.74921   0.67659   0.40345   0.00000  Uiso   1.00
C140   C     0.69961   0.68423   0.49684   0.00000  Uiso   1.00
C141   C     0.66608   0.73998   0.52177   0.00000  Uiso   1.00
C142   C     0.62280   0.73717   0.61046   0.00000  Uiso   1.00
C143   C     0.54724   0.75765   0.74616   0.00000  Uiso   1.00
C144   C     0.81037   0.65307   0.46055   0.00000  Uiso   1.00
C145   C     0.86997   0.68262   0.45494   0.00000  Uiso   1.00
C146   C     0.91993   0.65357   0.51308   0.00000  Uiso   1.00
C147   C     0.01634   0.62565   0.59237   0.00000  Uiso   1.00
C148   C     0.72583   0.62110   0.33052   0.00000  Uiso   1.00
C149   C     0.71437   0.62377   0.21557   0.00000  Uiso   1.00
C150   C     0.69317   0.56780   0.16421   0.00000  Uiso   1.00
C151   C     0.65832   0.49025   0.04161   0.00000  Uiso   1.00
C152   C     0.73197   0.57245   0.51663   0.00000  Uiso   1.00
C153   C     0.69025   0.62767   0.55832   0.00000  Uiso   1.00
C154   C     0.64701   0.62477   0.64699   0.00000  Uiso   1.00
C155   C     0.61342   0.68051   0.67204   0.00000  Uiso   1.00
C156   C     0.80101   0.59651   0.52203   0.00000  Uiso   1.00
C157   C     0.85090   0.56741   0.58017   0.00000  Uiso   1.00
C158   C     0.91055   0.59691   0.57466   0.00000  Uiso   1.00
C159   C     0.71647   0.56454   0.39199   0.00000  Uiso   1.00
C160   C     0.69529   0.50856   0.34080   0.00000  Uiso   1.00
C161   C     0.68379   0.51114   0.22580   0.00000  Uiso   1.00
H162   H     0.75650   0.72062   0.35558   0.00000  Uiso   1.00
H163   H     0.67334   0.78375   0.47418   0.00000  Uiso   1.00
H164   H     0.87720   0.72639   0.40735   0.00000  Uiso   1.00
H165   H     0.72161   0.66755   0.16802   0.00000  Uiso   1.00
H166   H     0.57704   0.82879   0.63280   0.00000  Uiso   1.00
H167   H     0.00688   0.70784   0.49187   0.00000  Uiso   1.00
H168   H     0.67881   0.58377   0.98719   0.00000  Uiso   1.00
H169   H     0.72469   0.52841   0.56450   0.00000  Uiso   1.00
H170   H     0.63978   0.58099   0.69455   0.00000  Uiso   1.00
H171   H     0.84364   0.52363   0.62773   0.00000  Uiso   1.00
H172   H     0.68806   0.46479   0.38840   0.00000  Uiso   1.00
H173   H     0.54980   0.66423   0.81167   0.00000  Uiso   1.00
H174   H     0.97965   0.54327   0.67073   0.00000  Uiso   1.00
H175   H     0.65157   0.41920   0.16606   0.00000  Uiso   1.00
O176   O     0.50815   0.78457   0.80404   0.00000  Uiso   1.00
O177   O     0.07210   0.62588   0.61913   0.00000  Uiso   1.00
O178   O     0.64167   0.46310   0.95700   0.00000  Uiso   1.00
N179   N     0.58227   0.78284   0.65703   0.00000  Uiso   1.00
N180   N     0.98415   0.66976   0.52529   0.00000  Uiso   1.00
N181   N     0.67744   0.55376   0.05344   0.00000  Uiso   1.00
N182   N     0.56761   0.69429   0.75328   0.00000  Uiso   1.00
N183   N     0.96949   0.58121   0.62153   0.00000  Uiso   1.00
N184   N     0.66279   0.46521   0.14969   0.00000  Uiso   1.00
C185   C     0.17659   0.75079   0.90345   0.00000  Uiso   1.00
C186   C     0.18423   0.80039   0.99684   0.00000  Uiso   1.00
C187   C     0.23998   0.83392   0.02177   0.00000  Uiso   1.00
C188   C     0.23717   0.87720   0.11046   0.00000  Uiso   1.00
C189   C     0.25765   0.95276   0.24616   0.00000  Uiso   1.00
C190   C     0.15307   0.68963   0.96055   0.00000  Uiso   1.00
C191   C     0.18262   0.63003   0.95494   0.00000  Uiso   1.00
C192   C     0.15357   0.58007   0.01308   0.00000  Uiso   1.00
C193   C     0.12565   0.48366   0.09237   0.00000  Uiso   1.00
C194   C     0.12110   0.77417   0.83052   0.00000  Uiso   1.00
C195   C     0.12377   0.78563   0.71557   0.00000  Uiso   1.00
C196   C     0.06780   0.80683   0.66421   0.00000  Uiso   1.00
C197   C     0.99025   0.84168   0.54161   0.00000  Uiso   1.00
C198   C     0.07245   0.76803   0.01663   0.00000  Uiso   1.00
C199   C     0.12767   0.80975   0.05832   0.00000  Uiso   1.00
C200   C     0.12477   0.85299   0.14699   0.00000  Uiso   1.00
C201   C     0.18051   0.88658   0.17204   0.00000  Uiso   1.00
C202   C     0.09651   0.69899   0.02203   0.00000  Uiso   1.00
C203   C     0.06741   0.64910   0.08017   0.00000  Uiso   1.00
C204   C     0.09691   0.58945   0.07466   0.00000  Uiso   1.00
C205   C     0.06454   0.78353   0.89199   0.00000  Uiso   1.00
C206   C     0.00856   0.80471   0.84080   0.00000  Uiso   1.00
C207   C     0.01114   0.81621   0.72580   0.00000  Uiso   1.00
H208   H     0.22062   0.74350   0.85558   0.00000  Uiso   1.00
H209   H     0.28375   0.82666   0.97418   0.00000  Uiso   1.00
H210   H     0.22639   0.62280   0.90735   0.00000  Uiso   1.00
H211   H     0.16755   0.77839   0.66802   0.00000  Uiso   1.00
H212   H     0.32879   0.92296   0.13280   0.00000  Uiso   1.00
H213   H     0.20784   0.49312   0.99187   0.00000  Uiso   1.00
H214   H     0.08377   0.82119   0.48719   0.00000  Uiso   1.00
H215   H     0.02841   0.77531   0.06450   0.00000  Uiso   1.00
H216   H     0.08099   0.86022   0.19455   0.00000  Uiso   1.00
H217   H     0.02363   0.65636   0.12773   0.00000  Uiso   1.00
H218   H     0.96479   0.81194   0.88840   0.00000  Uiso   1.00
H219   H     0.16423   0.95020   0.31167   0.00000  Uiso   1.00
H220   H     0.04327   0.52035   0.17073   0.00000  Uiso   1.00
H221   H     0.91920   0.84843   0.66606   0.00000  Uiso   1.00
O222   O     0.28457   0.99185   0.30404   0.00000  Uiso   1.00
O223   O     0.12588   0.42790   0.11913   0.00000  Uiso   1.00
O224   O     0.96310   0.85833   0.45700   0.00000  Uiso   1.00
N225   N     0.28284   0.91773   0.15703   0.00000  Uiso   1.00
N226   N     0.16976   0.51585   0.02529   0.00000  Uiso   1.00
N227   N     0.05376   0.82256   0.55344   0.00000  Uiso   1.00
N228   N     0.19429   0.93239   0.25328   0.00000  Uiso   1.00
N229   N     0.08121   0.53051   0.12153   0.00000  Uiso   1.00
N230   N     0.96521   0.83721   0.64969   0.00000  Uiso   1.00
C231   C     0.67659   0.25079   0.40345   0.00000  Uiso   1.00
C232   C     0.68423   0.30039   0.49684   0.00000  Uiso   1.00
C233   C     0.73998   0.33392   0.52177   0.00000  Uiso   1.00
C234   C     0.73717   0.37720   0.61046   0.00000  Uiso   1.00
C235   C     0.75765   0.45276   0.74616   0.00000  Uiso   1.00
C236   C     0.65307   0.18963   0.46055   0.00000  Uiso   1.00
C237   C     0.68262   0.13003   0.45494   0.00000  Uiso   1.00
C238   C     0.65357   0.08007   0.51308   0.00000  Uiso   1.00
C239   C     0.62565   0.98366   0.59237   0.00000  Uiso   1.00
C240   C     0.62110   0.27417   0.33052   0.00000  Uiso   1.00
C241   C     0.62377   0.28563   0.21557   0.00000  Uiso   1.00
C242   C     0.56780   0.30683   0.16421   0.00000  Uiso   1.00
C243   C     0.49025   0.34168   0.04161   0.00000  Uiso   1.00
C244   C     0.57245   0.26803   0.51663   0.00000  Uiso   1.00
C245   C     0.62767   0.30975   0.55832   0.00000  Uiso   1.00
C246   C     0.62477   0.35299   0.64699   0.00000  Uiso   1.00
C247   C     0.68051   0.38658   0.67204   0.00000  Uiso   1.00
C248   C     0.59651   0.19899   0.52203   0.00000  Uiso   1.00
C249   C     0.56741   0.14910   0.58017   0.00000  Uiso   1.00
C250   C     0.59691   0.08945   0.57466   0.00000  Uiso   1.00
C251   C     0.56454   0.28353   0.39199   0.00000  Uiso   1.00
C252   C     0.50856   0.30471   0.34080   0.00000  Uiso   1.00
C253   C     0.51114   0.31621   0.22580   0.00000  Uiso   1.00
H254   H     0.72062   0.24350   0.35558   0.00000  Uiso   1.00
H255   H     0.78375   0.32666   0.47418   0.00000  Uiso   1.00
H256   H     0.72639   0.12280   0.40735   0.00000  Uiso   1.00
H257   H     0.66755   0.27839   0.16802   0.00000  Uiso   1.00
H258   H     0.82879   0.42296   0.63280   0.00000  Uiso   1.00
H259   H     0.70784   0.99312   0.49187   0.00000  Uiso   1.00
H260   H     0.58377   0.32119   0.98719   0.00000  Uiso   1.00
H261   H     0.52841   0.27531   0.56450   0.00000  Uiso   1.00
H262   H     0.58099   0.36022   0.69455   0.00000  Uiso   1.00
H263   H     0.52363   0.15636   0.62773   0.00000  Uiso   1.00
H264   H     0.46479   0.31194   0.38840   0.00000  Uiso   1.00
H265   H     0.66423   0.45020   0.81167   0.00000  Uiso   1.00
H266   H     0.54327   0.02035   0.67073   0.00000  Uiso   1.00
H267   H     0.41920   0.34843   0.16606   0.00000  Uiso   1.00
O268   O     0.78457   0.49185   0.80404   0.00000  Uiso   1.00
O269   O     0.62588   0.92790   0.61913   0.00000  Uiso   1.00
O270   O     0.46310   0.35833   0.95700   0.00000  Uiso   1.00
N271   N     0.78284   0.41773   0.65703   0.00000  Uiso   1.00
N272   N     0.66976   0.01585   0.52529   0.00000  Uiso   1.00
N273   N     0.55376   0.32256   0.05344   0.00000  Uiso   1.00
N274   N     0.69429   0.43239   0.75328   0.00000  Uiso   1.00
N275   N     0.58121   0.03051   0.62153   0.00000  Uiso   1.00
N276   N     0.46521   0.33721   0.14969   0.00000  Uiso   1.00
C277   C     0.82341   0.24921   0.90345   0.00000  Uiso   1.00
C278   C     0.81577   0.19961   0.99684   0.00000  Uiso   1.00
C279   C     0.76002   0.16608   0.02177   0.00000  Uiso   1.00
C280   C     0.76283   0.12280   0.11046   0.00000  Uiso   1.00
C281   C     0.74235   0.04724   0.24616   0.00000  Uiso   1.00
C282   C     0.84693   0.31037   0.96055   0.00000  Uiso   1.00
C283   C     0.81738   0.36997   0.95494   0.00000  Uiso   1.00
C284   C     0.84643   0.41993   0.01308   0.00000  Uiso   1.00
C285   C     0.87435   0.51634   0.09237   0.00000  Uiso   1.00
C286   C     0.87890   0.22583   0.83052   0.00000  Uiso   1.00
C287   C     0.87623   0.21437   0.71557   0.00000  Uiso   1.00
C288   C     0.93220   0.19317   0.66421   0.00000  Uiso   1.00
C289   C     0.00975   0.15832   0.54161   0.00000  Uiso   1.00
C290   C     0.92755   0.23197   0.01663   0.00000  Uiso   1.00
C291   C     0.87233   0.19025   0.05832   0.00000  Uiso   1.00
C292   C     0.87523   0.14701   0.14699   0.00000  Uiso   1.00
C293   C     0.81949   0.11342   0.17204   0.00000  Uiso   1.00
C294   C     0.90349   0.30101   0.02203   0.00000  Uiso   1.00
C295   C     0.93259   0.35090   0.08017   0.00000  Uiso   1.00
C296   C     0.90309   0.41055   0.07466   0.00000  Uiso   1.00
C297   C     0.93546   0.21647   0.89199   0.00000  Uiso   1.00
C298   C     0.99144   0.19529   0.84080   0.00000  Uiso   1.00
C299   C     0.98886   0.18379   0.72580   0.00000  Uiso   1.00
H300   H     0.77938   0.25650   0.85558   0.00000  Uiso   1.00
H301   H     0.71625   0.17334   0.97418   0.00000  Uiso   1.00
H302   H     0.77361   0.37720   0.90735   0.00000  Uiso   1.00
H303   H     0.83245   0.22161   0.66802   0.00000  Uiso   1.00
H304   H     0.67121   0.07704   0.13280   0.00000  Uiso   1.00
H305   H     0.79216   0.50688   0.99187   0.00000  Uiso   1.00
H306   H     0.91623   0.17881   0.48719   0.00000  Uiso   1.00
H307   H     0.97159   0.22469   0.06450   0.00000  Uiso   1.00
H308   H     0.91901   0.13978   0.19455   0.00000  Uiso   1.00
H309   H     0.97637   0.34364   0.12773   0.00000  Uiso   1.00
H310   H     0.03521   0.18806   0.88840   0.00000  Uiso   1.00
H311   H     0.83577   0.04980   0.31167   0.00000  Uiso   1.00
H312   H     0.95673   0.47965   0.17073   0.00000  Uiso   1.00
H313   H     0.08080   0.15157   0.66606   0.00000  Uiso   1.00
O314   O     0.71543   0.00815   0.30404   0.00000  Uiso   1.00
O315   O     0.87412   0.57210   0.11913   0.00000  Uiso   1.00
O316   O     0.03690   0.14167   0.45700   0.00000  Uiso   1.00
N317   N     0.71716   0.08227   0.15703   0.00000  Uiso   1.00
N318   N     0.83024   0.48415   0.02529   0.00000  Uiso   1.00
N319   N     0.94624   0.17744   0.55344   0.00000  Uiso   1.00
N320   N     0.80571   0.06761   0.25328   0.00000  Uiso   1.00
N321   N     0.91879   0.46949   0.12153   0.00000  Uiso   1.00
N322   N     0.03479   0.16279   0.64969   0.00000  Uiso   1.00
C323   C     0.32341   0.74921   0.40345   0.00000  Uiso   1.00
C324   C     0.31577   0.69961   0.49684   0.00000  Uiso   1.00
C325   C     0.26002   0.66608   0.52177   0.00000  Uiso   1.00
C326   C     0.26283   0.62280   0.61046   0.00000  Uiso   1.00
C327   C     0.24235   0.54724   0.74616   0.00000  Uiso   1.00
C328   C     0.34693   0.81037   0.46055   0.00000  Uiso   1.00
C329   C     0.31738   0.86997   0.45494   0.00000  Uiso   1.00
C330   C     0.34643   0.91993   0.51308   0.00000  Uiso   1.00
C331   C     0.37435   0.01634   0.59237   0.00000  Uiso   1.00
C332   C     0.37890   0.72583   0.33052   0.00000  Uiso   1.00
C333   C     0.37623   0.71437   0.21557   0.00000  Uiso   1.00
C334   C     0.43220   0.69317   0.16421   0.00000  Uiso   1.00
C335   C     0.50975   0.65832   0.04161   0.00000  Uiso   1.00
C336   C     0.42755   0.73197   0.51663   0.00000  Uiso   1.00
C337   C     0.37233   0.69025   0.55832   0.00000  Uiso   1.00
C338   C     0.37523   0.64701   0.64699   0.00000  Uiso   1.00
C339   C     0.31949   0.61342   0.67204   0.00000  Uiso   1.00
C340   C     0.40349   0.80101   0.52203   0.00000  Uiso   1.00
C341   C     0.43259   0.85090   0.58017   0.00000  Uiso   1.00
C342   C     0.40309   0.91055   0.57466   0.00000  Uiso   1.00
C343   C     0.43546   0.71647   0.39199   0.00000  Uiso   1.00
C344   C     0.49144   0.69529   0.34080   0.00000  Uiso   1.00
C345   C     0.48886   0.68379   0.22580   0.00000  Uiso   1.00
H346   H     0.27938   0.75650   0.35558   0.00000  Uiso   1.00
H347   H     0.21625   0.67334   0.47418   0.00000  Uiso   1.00
H348   H     0.27361   0.87720   0.40735   0.00000  Uiso   1.00
H349   H     0.33245   0.72161   0.16802   0.00000  Uiso   1.00
H350   H     0.17121   0.57704   0.63280   0.00000  Uiso   1.00
H351   H     0.29216   0.00688   0.49187   0.00000  Uiso   1.00
H352   H     0.41623   0.67881   0.98719   0.00000  Uiso   1.00
H353   H     0.47159   0.72469   0.56450   0.00000  Uiso   1.00
H354   H     0.41901   0.63978   0.69455   0.00000  Uiso   1.00
H355   H     0.47637   0.84364   0.62773   0.00000  Uiso   1.00
H356   H     0.53521   0.68806   0.38840   0.00000  Uiso   1.00
H357   H     0.33577   0.54980   0.81167   0.00000  Uiso   1.00
H358   H     0.45673   0.97965   0.67073   0.00000  Uiso   1.00
H359   H     0.58080   0.65157   0.16606   0.00000  Uiso   1.00
O360   O     0.21543   0.50815   0.80404   0.00000  Uiso   1.00
O361   O     0.37412   0.07210   0.61913   0.00000  Uiso   1.00
O362   O     0.53690   0.64167   0.95700   0.00000  Uiso   1.00
N363   N     0.21716   0.58227   0.65703   0.00000  Uiso   1.00
N364   N     0.33024   0.98415   0.52529   0.00000  Uiso   1.00
N365   N     0.44624   0.67744   0.05344   0.00000  Uiso   1.00
N366   N     0.30571   0.56761   0.75328   0.00000  Uiso   1.00
N367   N     0.41879   0.96949   0.62153   0.00000  Uiso   1.00
N368   N     0.53479   0.66279   0.14969   0.00000  Uiso   1.00
