data_job_05296
_audit_creation_date              2018-12-19
_audit_creation_method            'Materials Studio'
_symmetry_space_group_name_H-M    'P1'
_symmetry_Int_Tables_number       1
_symmetry_cell_setting            triclinic
loop_
_symmetry_equiv_pos_as_xyz
  x,y,z
_cell_length_a                    41.7893
_cell_length_b                    14.0244
_cell_length_c                    10.0242
_cell_angle_alpha                 90.0000
_cell_angle_beta                  90.0000
_cell_angle_gamma                 90.0000
loop_
_atom_site_label
_atom_site_type_symbol
_atom_site_fract_x
_atom_site_fract_y
_atom_site_fract_z
_atom_site_U_iso_or_equiv
_atom_site_adp_type
_atom_site_occupancy
C1     C     0.14755   0.43525   0.27140   0.00000  Uiso   1.00
C2     C     0.17628   0.46259   0.18577   0.00000  Uiso   1.00
C3     C     0.19318   0.54758   0.19380   0.00000  Uiso   1.00
C4     C     0.21872   0.55898   0.10670   0.00000  Uiso   1.00
C5     C     0.26206   0.61226   0.98766   0.00000  Uiso   1.00
C6     C     0.12054   0.41229   0.17423   0.00000  Uiso   1.00
C7     C     0.09059   0.45498   0.17258   0.00000  Uiso   1.00
C8     C     0.06921   0.42403   0.07577   0.00000  Uiso   1.00
C9     C     0.02602   0.39917   0.93889   0.00000  Uiso   1.00
C10    C     0.15631   0.34118   0.33838   0.00000  Uiso   1.00
C11    C     0.15641   0.32407   0.47474   0.00000  Uiso   1.00
C12    C     0.16514   0.23324   0.51613   0.00000  Uiso   1.00
C13    C     0.17746   0.09798   0.63410   0.00000  Uiso   1.00
C14    C     0.16286   0.30437   0.10243   0.00000  Uiso   1.00
C15    C     0.18459   0.39150   0.09399   0.00000  Uiso   1.00
C16    C     0.21012   0.40277   0.00686   0.00000  Uiso   1.00
C17    C     0.22706   0.48776   0.01476   0.00000  Uiso   1.00
C18    C     0.12886   0.34120   0.08246   0.00000  Uiso   1.00
C19    C     0.10753   0.31018   0.98564   0.00000  Uiso   1.00
C20    C     0.07755   0.35281   0.98383   0.00000  Uiso   1.00
C21    C     0.16462   0.27009   0.24660   0.00000  Uiso   1.00
C22    C     0.17335   0.17927   0.28779   0.00000  Uiso   1.00
C23    C     0.17347   0.16202   0.42418   0.00000  Uiso   1.00
H24    H     0.14107   0.49059   0.34285   0.00000  Uiso   1.00
H25    H     0.18673   0.60258   0.26484   0.00000  Uiso   1.00
H26    H     0.08415   0.50998   0.24363   0.00000  Uiso   1.00
H27    H     0.14997   0.37910   0.54573   0.00000  Uiso   1.00
H28    H     0.24102   0.69539   0.13784   0.00000  Uiso   1.00
H29    H     0.02473   0.50013   0.09315   0.00000  Uiso   1.00
H30    H     0.16350   0.22414   0.73020   0.00000  Uiso   1.00
H31    H     0.16933   0.24902   0.03097   0.00000  Uiso   1.00
H32    H     0.21655   0.34775   0.93584   0.00000  Uiso   1.00
H33    H     0.11397   0.25516   0.91463   0.00000  Uiso   1.00
H34    H     0.17979   0.12427   0.21674   0.00000  Uiso   1.00
H35    H     0.26522   0.48857   0.87081   0.00000  Uiso   1.00
H36    H     0.04893   0.29331   0.82612   0.00000  Uiso   1.00
H37    H     0.18771   0.01731   0.46317   0.00000  Uiso   1.00
O38    O     0.28367   0.66130   0.94734   0.00000  Uiso   1.00
O39    O     0.99990   0.40511   0.88873   0.00000  Uiso   1.00
O40    O     0.18197   0.04302   0.72453   0.00000  Uiso   1.00
N41    N     0.24024   0.63316   0.08807   0.00000  Uiso   1.00
N42    N     0.03802   0.45062   0.04627   0.00000  Uiso   1.00
N43    N     0.16776   0.19257   0.64186   0.00000  Uiso   1.00
N44    N     0.25327   0.52187   0.94438   0.00000  Uiso   1.00
N45    N     0.05104   0.33932   0.90259   0.00000  Uiso   1.00
N46    N     0.18078   0.08128   0.49817   0.00000  Uiso   1.00
C47    C     0.35245   0.06475   0.77140   0.00000  Uiso   1.00
C48    C     0.32372   0.03741   0.68577   0.00000  Uiso   1.00
C49    C     0.30682   0.95242   0.69380   0.00000  Uiso   1.00
C50    C     0.28128   0.94102   0.60670   0.00000  Uiso   1.00
C51    C     0.23794   0.88774   0.48766   0.00000  Uiso   1.00
C52    C     0.37946   0.08771   0.67423   0.00000  Uiso   1.00
C53    C     0.40941   0.04502   0.67258   0.00000  Uiso   1.00
C54    C     0.43079   0.07597   0.57577   0.00000  Uiso   1.00
C55    C     0.47398   0.10083   0.43889   0.00000  Uiso   1.00
C56    C     0.34369   0.15882   0.83838   0.00000  Uiso   1.00
C57    C     0.34359   0.17593   0.97474   0.00000  Uiso   1.00
C58    C     0.33486   0.26676   0.01613   0.00000  Uiso   1.00
C59    C     0.32254   0.40202   0.13410   0.00000  Uiso   1.00
C60    C     0.33714   0.19563   0.60243   0.00000  Uiso   1.00
C61    C     0.31541   0.10850   0.59399   0.00000  Uiso   1.00
C62    C     0.28988   0.09723   0.50686   0.00000  Uiso   1.00
C63    C     0.27294   0.01224   0.51476   0.00000  Uiso   1.00
C64    C     0.37114   0.15880   0.58246   0.00000  Uiso   1.00
C65    C     0.39247   0.18982   0.48564   0.00000  Uiso   1.00
C66    C     0.42245   0.14719   0.48383   0.00000  Uiso   1.00
C67    C     0.33538   0.22991   0.74660   0.00000  Uiso   1.00
C68    C     0.32665   0.32073   0.78779   0.00000  Uiso   1.00
C69    C     0.32653   0.33798   0.92418   0.00000  Uiso   1.00
H70    H     0.35893   0.00941   0.84285   0.00000  Uiso   1.00
H71    H     0.31327   0.89742   0.76484   0.00000  Uiso   1.00
H72    H     0.41585   0.99002   0.74363   0.00000  Uiso   1.00
H73    H     0.35003   0.12090   0.04573   0.00000  Uiso   1.00
H74    H     0.25898   0.80461   0.63784   0.00000  Uiso   1.00
H75    H     0.47527   0.99987   0.59315   0.00000  Uiso   1.00
H76    H     0.33650   0.27586   0.23020   0.00000  Uiso   1.00
H77    H     0.33067   0.25098   0.53097   0.00000  Uiso   1.00
H78    H     0.28345   0.15225   0.43584   0.00000  Uiso   1.00
H79    H     0.38603   0.24484   0.41463   0.00000  Uiso   1.00
H80    H     0.32021   0.37573   0.71674   0.00000  Uiso   1.00
H81    H     0.23478   0.01143   0.37081   0.00000  Uiso   1.00
H82    H     0.45107   0.20669   0.32612   0.00000  Uiso   1.00
H83    H     0.31229   0.48269   0.96317   0.00000  Uiso   1.00
O84    O     0.21633   0.83870   0.44734   0.00000  Uiso   1.00
O85    O     0.50010   0.09489   0.38873   0.00000  Uiso   1.00
O86    O     0.31803   0.45698   0.22453   0.00000  Uiso   1.00
N87    N     0.25976   0.86684   0.58807   0.00000  Uiso   1.00
N88    N     0.46198   0.04938   0.54627   0.00000  Uiso   1.00
N89    N     0.33224   0.30743   0.14186   0.00000  Uiso   1.00
N90    N     0.24673   0.97813   0.44438   0.00000  Uiso   1.00
N91    N     0.44896   0.16068   0.40259   0.00000  Uiso   1.00
N92    N     0.31922   0.41872   0.99817   0.00000  Uiso   1.00
C93    C     0.85245   0.43525   0.22860   0.00000  Uiso   1.00
C94    C     0.82372   0.46259   0.31423   0.00000  Uiso   1.00
C95    C     0.80682   0.54758   0.30620   0.00000  Uiso   1.00
C96    C     0.78128   0.55898   0.39330   0.00000  Uiso   1.00
C97    C     0.73794   0.61226   0.51234   0.00000  Uiso   1.00
C98    C     0.87946   0.41229   0.32577   0.00000  Uiso   1.00
C99    C     0.90941   0.45498   0.32742   0.00000  Uiso   1.00
C100   C     0.93079   0.42403   0.42423   0.00000  Uiso   1.00
C101   C     0.97398   0.39917   0.56111   0.00000  Uiso   1.00
C102   C     0.84369   0.34118   0.16162   0.00000  Uiso   1.00
C103   C     0.84359   0.32407   0.02526   0.00000  Uiso   1.00
C104   C     0.83486   0.23324   0.98387   0.00000  Uiso   1.00
C105   C     0.82254   0.09798   0.86590   0.00000  Uiso   1.00
C106   C     0.83714   0.30437   0.39757   0.00000  Uiso   1.00
C107   C     0.81541   0.39150   0.40601   0.00000  Uiso   1.00
C108   C     0.78988   0.40277   0.49314   0.00000  Uiso   1.00
C109   C     0.77294   0.48776   0.48524   0.00000  Uiso   1.00
C110   C     0.87114   0.34120   0.41754   0.00000  Uiso   1.00
C111   C     0.89247   0.31018   0.51436   0.00000  Uiso   1.00
C112   C     0.92245   0.35281   0.51617   0.00000  Uiso   1.00
C113   C     0.83538   0.27009   0.25340   0.00000  Uiso   1.00
C114   C     0.82665   0.17927   0.21221   0.00000  Uiso   1.00
C115   C     0.82653   0.16202   0.07582   0.00000  Uiso   1.00
H116   H     0.85893   0.49059   0.15715   0.00000  Uiso   1.00
H117   H     0.81327   0.60258   0.23516   0.00000  Uiso   1.00
H118   H     0.91585   0.50998   0.25637   0.00000  Uiso   1.00
H119   H     0.85003   0.37910   0.95427   0.00000  Uiso   1.00
H120   H     0.75898   0.69539   0.36216   0.00000  Uiso   1.00
H121   H     0.97527   0.50013   0.40685   0.00000  Uiso   1.00
H122   H     0.83650   0.22414   0.76980   0.00000  Uiso   1.00
H123   H     0.83067   0.24902   0.46903   0.00000  Uiso   1.00
H124   H     0.78345   0.34775   0.56416   0.00000  Uiso   1.00
H125   H     0.88603   0.25516   0.58537   0.00000  Uiso   1.00
H126   H     0.82021   0.12427   0.28326   0.00000  Uiso   1.00
H127   H     0.73478   0.48857   0.62919   0.00000  Uiso   1.00
H128   H     0.95107   0.29331   0.67388   0.00000  Uiso   1.00
H129   H     0.81229   0.01731   0.03683   0.00000  Uiso   1.00
O130   O     0.71633   0.66130   0.55266   0.00000  Uiso   1.00
O131   O     0.00010   0.40511   0.61127   0.00000  Uiso   1.00
O132   O     0.81803   0.04302   0.77547   0.00000  Uiso   1.00
N133   N     0.75976   0.63316   0.41193   0.00000  Uiso   1.00
N134   N     0.96198   0.45062   0.45373   0.00000  Uiso   1.00
N135   N     0.83224   0.19257   0.85814   0.00000  Uiso   1.00
N136   N     0.74673   0.52187   0.55562   0.00000  Uiso   1.00
N137   N     0.94896   0.33932   0.59741   0.00000  Uiso   1.00
N138   N     0.81922   0.08128   0.00183   0.00000  Uiso   1.00
C139   C     0.64755   0.06475   0.72860   0.00000  Uiso   1.00
C140   C     0.67628   0.03741   0.81423   0.00000  Uiso   1.00
C141   C     0.69318   0.95242   0.80620   0.00000  Uiso   1.00
C142   C     0.71872   0.94102   0.89330   0.00000  Uiso   1.00
C143   C     0.76206   0.88774   0.01234   0.00000  Uiso   1.00
C144   C     0.62054   0.08771   0.82577   0.00000  Uiso   1.00
C145   C     0.59059   0.04502   0.82742   0.00000  Uiso   1.00
C146   C     0.56921   0.07597   0.92423   0.00000  Uiso   1.00
C147   C     0.52602   0.10083   0.06111   0.00000  Uiso   1.00
C148   C     0.65631   0.15882   0.66162   0.00000  Uiso   1.00
C149   C     0.65641   0.17593   0.52526   0.00000  Uiso   1.00
C150   C     0.66514   0.26676   0.48387   0.00000  Uiso   1.00
C151   C     0.67746   0.40202   0.36590   0.00000  Uiso   1.00
C152   C     0.66286   0.19563   0.89757   0.00000  Uiso   1.00
C153   C     0.68459   0.10850   0.90601   0.00000  Uiso   1.00
C154   C     0.71012   0.09723   0.99314   0.00000  Uiso   1.00
C155   C     0.72706   0.01224   0.98524   0.00000  Uiso   1.00
C156   C     0.62886   0.15880   0.91754   0.00000  Uiso   1.00
C157   C     0.60753   0.18982   0.01436   0.00000  Uiso   1.00
C158   C     0.57755   0.14719   0.01617   0.00000  Uiso   1.00
C159   C     0.66462   0.22991   0.75340   0.00000  Uiso   1.00
C160   C     0.67335   0.32073   0.71221   0.00000  Uiso   1.00
C161   C     0.67347   0.33798   0.57582   0.00000  Uiso   1.00
H162   H     0.64107   0.00941   0.65715   0.00000  Uiso   1.00
H163   H     0.68673   0.89742   0.73516   0.00000  Uiso   1.00
H164   H     0.58415   0.99002   0.75637   0.00000  Uiso   1.00
H165   H     0.64997   0.12090   0.45427   0.00000  Uiso   1.00
H166   H     0.74102   0.80461   0.86216   0.00000  Uiso   1.00
H167   H     0.52473   0.99987   0.90685   0.00000  Uiso   1.00
H168   H     0.66350   0.27586   0.26980   0.00000  Uiso   1.00
H169   H     0.66933   0.25098   0.96903   0.00000  Uiso   1.00
H170   H     0.71655   0.15225   0.06416   0.00000  Uiso   1.00
H171   H     0.61397   0.24484   0.08537   0.00000  Uiso   1.00
H172   H     0.67979   0.37573   0.78326   0.00000  Uiso   1.00
H173   H     0.76522   0.01143   0.12919   0.00000  Uiso   1.00
H174   H     0.54893   0.20669   0.17388   0.00000  Uiso   1.00
H175   H     0.68771   0.48269   0.53683   0.00000  Uiso   1.00
O176   O     0.78367   0.83870   0.05266   0.00000  Uiso   1.00
O177   O     0.49990   0.09489   0.11127   0.00000  Uiso   1.00
O178   O     0.68197   0.45698   0.27547   0.00000  Uiso   1.00
N179   N     0.74024   0.86684   0.91193   0.00000  Uiso   1.00
N180   N     0.53802   0.04938   0.95373   0.00000  Uiso   1.00
N181   N     0.66776   0.30743   0.35814   0.00000  Uiso   1.00
N182   N     0.75327   0.97813   0.05562   0.00000  Uiso   1.00
N183   N     0.55104   0.16068   0.09741   0.00000  Uiso   1.00
N184   N     0.68078   0.41872   0.50183   0.00000  Uiso   1.00
C185   C     0.85245   0.56475   0.72860   0.00000  Uiso   1.00
C186   C     0.82372   0.53741   0.81423   0.00000  Uiso   1.00
C187   C     0.80682   0.45242   0.80620   0.00000  Uiso   1.00
C188   C     0.78128   0.44102   0.89330   0.00000  Uiso   1.00
C189   C     0.73794   0.38774   0.01234   0.00000  Uiso   1.00
C190   C     0.87946   0.58771   0.82577   0.00000  Uiso   1.00
C191   C     0.90941   0.54502   0.82742   0.00000  Uiso   1.00
C192   C     0.93079   0.57597   0.92423   0.00000  Uiso   1.00
C193   C     0.97398   0.60083   0.06111   0.00000  Uiso   1.00
C194   C     0.84369   0.65882   0.66162   0.00000  Uiso   1.00
C195   C     0.84359   0.67593   0.52526   0.00000  Uiso   1.00
C196   C     0.83486   0.76676   0.48387   0.00000  Uiso   1.00
C197   C     0.82254   0.90202   0.36590   0.00000  Uiso   1.00
C198   C     0.83714   0.69563   0.89757   0.00000  Uiso   1.00
C199   C     0.81541   0.60850   0.90601   0.00000  Uiso   1.00
C200   C     0.78988   0.59723   0.99314   0.00000  Uiso   1.00
C201   C     0.77294   0.51224   0.98524   0.00000  Uiso   1.00
C202   C     0.87114   0.65880   0.91754   0.00000  Uiso   1.00
C203   C     0.89247   0.68982   0.01436   0.00000  Uiso   1.00
C204   C     0.92245   0.64719   0.01617   0.00000  Uiso   1.00
C205   C     0.83538   0.72991   0.75340   0.00000  Uiso   1.00
C206   C     0.82665   0.82073   0.71221   0.00000  Uiso   1.00
C207   C     0.82653   0.83798   0.57582   0.00000  Uiso   1.00
H208   H     0.85893   0.50941   0.65715   0.00000  Uiso   1.00
H209   H     0.81327   0.39742   0.73516   0.00000  Uiso   1.00
H210   H     0.91585   0.49002   0.75637   0.00000  Uiso   1.00
H211   H     0.85003   0.62090   0.45427   0.00000  Uiso   1.00
H212   H     0.75898   0.30461   0.86216   0.00000  Uiso   1.00
H213   H     0.97527   0.49987   0.90685   0.00000  Uiso   1.00
H214   H     0.83650   0.77586   0.26980   0.00000  Uiso   1.00
H215   H     0.83067   0.75098   0.96903   0.00000  Uiso   1.00
H216   H     0.78345   0.65225   0.06416   0.00000  Uiso   1.00
H217   H     0.88603   0.74484   0.08537   0.00000  Uiso   1.00
H218   H     0.82021   0.87573   0.78326   0.00000  Uiso   1.00
H219   H     0.73478   0.51143   0.12919   0.00000  Uiso   1.00
H220   H     0.95107   0.70669   0.17388   0.00000  Uiso   1.00
H221   H     0.81229   0.98269   0.53683   0.00000  Uiso   1.00
O222   O     0.71633   0.33870   0.05266   0.00000  Uiso   1.00
O223   O     0.00010   0.59489   0.11127   0.00000  Uiso   1.00
O224   O     0.81803   0.95698   0.27547   0.00000  Uiso   1.00
N225   N     0.75976   0.36684   0.91193   0.00000  Uiso   1.00
N226   N     0.96198   0.54938   0.95373   0.00000  Uiso   1.00
N227   N     0.83224   0.80743   0.35814   0.00000  Uiso   1.00
N228   N     0.74673   0.47813   0.05562   0.00000  Uiso   1.00
N229   N     0.94896   0.66068   0.09741   0.00000  Uiso   1.00
N230   N     0.81922   0.91872   0.50183   0.00000  Uiso   1.00
C231   C     0.64755   0.93525   0.22860   0.00000  Uiso   1.00
C232   C     0.67628   0.96259   0.31423   0.00000  Uiso   1.00
C233   C     0.69318   0.04758   0.30620   0.00000  Uiso   1.00
C234   C     0.71872   0.05898   0.39330   0.00000  Uiso   1.00
C235   C     0.76206   0.11226   0.51234   0.00000  Uiso   1.00
C236   C     0.62054   0.91229   0.32577   0.00000  Uiso   1.00
C237   C     0.59059   0.95498   0.32742   0.00000  Uiso   1.00
C238   C     0.56921   0.92403   0.42423   0.00000  Uiso   1.00
C239   C     0.52602   0.89917   0.56111   0.00000  Uiso   1.00
C240   C     0.65631   0.84118   0.16162   0.00000  Uiso   1.00
C241   C     0.65641   0.82407   0.02526   0.00000  Uiso   1.00
C242   C     0.66514   0.73324   0.98387   0.00000  Uiso   1.00
C243   C     0.67746   0.59798   0.86590   0.00000  Uiso   1.00
C244   C     0.66286   0.80437   0.39757   0.00000  Uiso   1.00
C245   C     0.68459   0.89150   0.40601   0.00000  Uiso   1.00
C246   C     0.71012   0.90277   0.49314   0.00000  Uiso   1.00
C247   C     0.72706   0.98776   0.48524   0.00000  Uiso   1.00
C248   C     0.62886   0.84120   0.41754   0.00000  Uiso   1.00
C249   C     0.60753   0.81018   0.51436   0.00000  Uiso   1.00
C250   C     0.57755   0.85281   0.51617   0.00000  Uiso   1.00
C251   C     0.66462   0.77009   0.25340   0.00000  Uiso   1.00
C252   C     0.67335   0.67927   0.21221   0.00000  Uiso   1.00
C253   C     0.67347   0.66202   0.07582   0.00000  Uiso   1.00
H254   H     0.64107   0.99059   0.15715   0.00000  Uiso   1.00
H255   H     0.68673   0.10258   0.23516   0.00000  Uiso   1.00
H256   H     0.58415   0.00998   0.25637   0.00000  Uiso   1.00
H257   H     0.64997   0.87910   0.95427   0.00000  Uiso   1.00
H258   H     0.74102   0.19539   0.36216   0.00000  Uiso   1.00
H259   H     0.52473   0.00013   0.40685   0.00000  Uiso   1.00
H260   H     0.66350   0.72414   0.76980   0.00000  Uiso   1.00
H261   H     0.66933   0.74902   0.46903   0.00000  Uiso   1.00
H262   H     0.71655   0.84775   0.56416   0.00000  Uiso   1.00
H263   H     0.61397   0.75516   0.58537   0.00000  Uiso   1.00
H264   H     0.67979   0.62427   0.28326   0.00000  Uiso   1.00
H265   H     0.76522   0.98857   0.62919   0.00000  Uiso   1.00
H266   H     0.54893   0.79331   0.67388   0.00000  Uiso   1.00
H267   H     0.68771   0.51731   0.03683   0.00000  Uiso   1.00
O268   O     0.78367   0.16130   0.55266   0.00000  Uiso   1.00
O269   O     0.49990   0.90511   0.61127   0.00000  Uiso   1.00
O270   O     0.68197   0.54302   0.77547   0.00000  Uiso   1.00
N271   N     0.74024   0.13316   0.41193   0.00000  Uiso   1.00
N272   N     0.53802   0.95062   0.45373   0.00000  Uiso   1.00
N273   N     0.66776   0.69257   0.85814   0.00000  Uiso   1.00
N274   N     0.75327   0.02187   0.55562   0.00000  Uiso   1.00
N275   N     0.55104   0.83932   0.59741   0.00000  Uiso   1.00
N276   N     0.68078   0.58128   0.00183   0.00000  Uiso   1.00
C277   C     0.14755   0.56475   0.77140   0.00000  Uiso   1.00
C278   C     0.17628   0.53741   0.68577   0.00000  Uiso   1.00
C279   C     0.19318   0.45242   0.69380   0.00000  Uiso   1.00
C280   C     0.21872   0.44102   0.60670   0.00000  Uiso   1.00
C281   C     0.26206   0.38774   0.48766   0.00000  Uiso   1.00
C282   C     0.12054   0.58771   0.67423   0.00000  Uiso   1.00
C283   C     0.09059   0.54502   0.67258   0.00000  Uiso   1.00
C284   C     0.06921   0.57597   0.57577   0.00000  Uiso   1.00
C285   C     0.02602   0.60083   0.43889   0.00000  Uiso   1.00
C286   C     0.15631   0.65882   0.83838   0.00000  Uiso   1.00
C287   C     0.15641   0.67593   0.97474   0.00000  Uiso   1.00
C288   C     0.16514   0.76676   0.01613   0.00000  Uiso   1.00
C289   C     0.17746   0.90202   0.13410   0.00000  Uiso   1.00
C290   C     0.16286   0.69563   0.60243   0.00000  Uiso   1.00
C291   C     0.18459   0.60850   0.59399   0.00000  Uiso   1.00
C292   C     0.21012   0.59723   0.50686   0.00000  Uiso   1.00
C293   C     0.22706   0.51224   0.51476   0.00000  Uiso   1.00
C294   C     0.12886   0.65880   0.58246   0.00000  Uiso   1.00
C295   C     0.10753   0.68982   0.48564   0.00000  Uiso   1.00
C296   C     0.07755   0.64719   0.48383   0.00000  Uiso   1.00
C297   C     0.16462   0.72991   0.74660   0.00000  Uiso   1.00
C298   C     0.17335   0.82073   0.78779   0.00000  Uiso   1.00
C299   C     0.17347   0.83798   0.92418   0.00000  Uiso   1.00
H300   H     0.14107   0.50941   0.84285   0.00000  Uiso   1.00
H301   H     0.18673   0.39742   0.76484   0.00000  Uiso   1.00
H302   H     0.08415   0.49002   0.74363   0.00000  Uiso   1.00
H303   H     0.14997   0.62090   0.04573   0.00000  Uiso   1.00
H304   H     0.24102   0.30461   0.63784   0.00000  Uiso   1.00
H305   H     0.02473   0.49987   0.59315   0.00000  Uiso   1.00
H306   H     0.16350   0.77586   0.23020   0.00000  Uiso   1.00
H307   H     0.16933   0.75098   0.53097   0.00000  Uiso   1.00
H308   H     0.21655   0.65225   0.43584   0.00000  Uiso   1.00
H309   H     0.11397   0.74484   0.41463   0.00000  Uiso   1.00
H310   H     0.17979   0.87573   0.71674   0.00000  Uiso   1.00
H311   H     0.26522   0.51143   0.37081   0.00000  Uiso   1.00
H312   H     0.04893   0.70669   0.32612   0.00000  Uiso   1.00
H313   H     0.18771   0.98269   0.96317   0.00000  Uiso   1.00
O314   O     0.28367   0.33870   0.44734   0.00000  Uiso   1.00
O315   O     0.99990   0.59489   0.38873   0.00000  Uiso   1.00
O316   O     0.18197   0.95698   0.22453   0.00000  Uiso   1.00
N317   N     0.24024   0.36684   0.58807   0.00000  Uiso   1.00
N318   N     0.03802   0.54938   0.54627   0.00000  Uiso   1.00
N319   N     0.16776   0.80743   0.14186   0.00000  Uiso   1.00
N320   N     0.25327   0.47813   0.44438   0.00000  Uiso   1.00
N321   N     0.05104   0.66068   0.40259   0.00000  Uiso   1.00
N322   N     0.18078   0.91872   0.99817   0.00000  Uiso   1.00
C323   C     0.35245   0.93525   0.27140   0.00000  Uiso   1.00
C324   C     0.32372   0.96259   0.18577   0.00000  Uiso   1.00
C325   C     0.30682   0.04758   0.19380   0.00000  Uiso   1.00
C326   C     0.28128   0.05898   0.10670   0.00000  Uiso   1.00
C327   C     0.23794   0.11226   0.98766   0.00000  Uiso   1.00
C328   C     0.37946   0.91229   0.17423   0.00000  Uiso   1.00
C329   C     0.40941   0.95498   0.17258   0.00000  Uiso   1.00
C330   C     0.43079   0.92403   0.07577   0.00000  Uiso   1.00
C331   C     0.47398   0.89917   0.93889   0.00000  Uiso   1.00
C332   C     0.34369   0.84118   0.33838   0.00000  Uiso   1.00
C333   C     0.34359   0.82407   0.47474   0.00000  Uiso   1.00
C334   C     0.33486   0.73324   0.51613   0.00000  Uiso   1.00
C335   C     0.32254   0.59798   0.63410   0.00000  Uiso   1.00
C336   C     0.33714   0.80437   0.10243   0.00000  Uiso   1.00
C337   C     0.31541   0.89150   0.09399   0.00000  Uiso   1.00
C338   C     0.28988   0.90277   0.00686   0.00000  Uiso   1.00
C339   C     0.27294   0.98776   0.01476   0.00000  Uiso   1.00
C340   C     0.37114   0.84120   0.08246   0.00000  Uiso   1.00
C341   C     0.39247   0.81018   0.98564   0.00000  Uiso   1.00
C342   C     0.42245   0.85281   0.98383   0.00000  Uiso   1.00
C343   C     0.33538   0.77009   0.24660   0.00000  Uiso   1.00
C344   C     0.32665   0.67927   0.28779   0.00000  Uiso   1.00
C345   C     0.32653   0.66202   0.42418   0.00000  Uiso   1.00
H346   H     0.35893   0.99059   0.34285   0.00000  Uiso   1.00
H347   H     0.31327   0.10258   0.26484   0.00000  Uiso   1.00
H348   H     0.41585   0.00998   0.24363   0.00000  Uiso   1.00
H349   H     0.35003   0.87910   0.54573   0.00000  Uiso   1.00
H350   H     0.25898   0.19539   0.13784   0.00000  Uiso   1.00
H351   H     0.47527   0.00013   0.09315   0.00000  Uiso   1.00
H352   H     0.33650   0.72414   0.73020   0.00000  Uiso   1.00
H353   H     0.33067   0.74902   0.03097   0.00000  Uiso   1.00
H354   H     0.28345   0.84775   0.93584   0.00000  Uiso   1.00
H355   H     0.38603   0.75516   0.91463   0.00000  Uiso   1.00
H356   H     0.32021   0.62427   0.21674   0.00000  Uiso   1.00
H357   H     0.23478   0.98857   0.87081   0.00000  Uiso   1.00
H358   H     0.45107   0.79331   0.82612   0.00000  Uiso   1.00
H359   H     0.31229   0.51731   0.46317   0.00000  Uiso   1.00
O360   O     0.21633   0.16130   0.94734   0.00000  Uiso   1.00
O361   O     0.50010   0.90511   0.88873   0.00000  Uiso   1.00
O362   O     0.31803   0.54302   0.72453   0.00000  Uiso   1.00
N363   N     0.25976   0.13316   0.08807   0.00000  Uiso   1.00
N364   N     0.46198   0.95062   0.04627   0.00000  Uiso   1.00
N365   N     0.33224   0.69257   0.64186   0.00000  Uiso   1.00
N366   N     0.24673   0.02187   0.94438   0.00000  Uiso   1.00
N367   N     0.44896   0.83932   0.90259   0.00000  Uiso   1.00
N368   N     0.31922   0.58128   0.49817   0.00000  Uiso   1.00
