data_job_00156
_audit_creation_date              2018-12-19
_audit_creation_method            'Materials Studio'
_symmetry_space_group_name_H-M    'P1'
_symmetry_Int_Tables_number       1
_symmetry_cell_setting            triclinic
loop_
_symmetry_equiv_pos_as_xyz
  x,y,z
_cell_length_a                    25.7540
_cell_length_b                    10.5138
_cell_length_c                    16.1627
_cell_angle_alpha                 90.0000
_cell_angle_beta                  92.0291
_cell_angle_gamma                 90.0000
loop_
_atom_site_label
_atom_site_type_symbol
_atom_site_fract_x
_atom_site_fract_y
_atom_site_fract_z
_atom_site_U_iso_or_equiv
_atom_site_adp_type
_atom_site_occupancy
C1     C     0.57519   0.15886   0.34791   0.00000  Uiso   1.00
C2     C     0.61064   0.18142   0.27575   0.00000  Uiso   1.00
C3     C     0.59987   0.26020   0.20843   0.00000  Uiso   1.00
C4     C     0.63731   0.26797   0.14892   0.00000  Uiso   1.00
C5     C     0.68527   0.31339   0.03569   0.00000  Uiso   1.00
C6     C     0.56652   0.01553   0.35160   0.00000  Uiso   1.00
C7     C     0.51863   0.95483   0.34806   0.00000  Uiso   1.00
C8     C     0.51894   0.82294   0.35242   0.00000  Uiso   1.00
C9     C     0.49838   0.61081   0.35701   0.00000  Uiso   1.00
C10    C     0.60713   0.19306   0.42600   0.00000  Uiso   1.00
C11    C     0.59339   0.28162   0.48503   0.00000  Uiso   1.00
C12    C     0.62789   0.29918   0.55203   0.00000  Uiso   1.00
C13    C     0.67039   0.36271   0.67214   0.00000  Uiso   1.00
C14    C     0.66087   0.03256   0.36196   0.00000  Uiso   1.00
C15    C     0.65718   0.11282   0.28338   0.00000  Uiso   1.00
C16    C     0.69465   0.12047   0.22396   0.00000  Uiso   1.00
C17    C     0.68393   0.19925   0.15656   0.00000  Uiso   1.00
C18    C     0.61305   0.94692   0.35923   0.00000  Uiso   1.00
C19    C     0.61342   0.81510   0.36360   0.00000  Uiso   1.00
C20    C     0.56556   0.75421   0.36006   0.00000  Uiso   1.00
C21    C     0.65367   0.12447   0.43363   0.00000  Uiso   1.00
C22    C     0.68818   0.14189   0.50056   0.00000  Uiso   1.00
C23    C     0.67450   0.23046   0.55967   0.00000  Uiso   1.00
H24    H     0.53896   0.21226   0.34198   0.00000  Uiso   1.00
H25    H     0.56385   0.31327   0.20254   0.00000  Uiso   1.00
H26    H     0.48263   0.00794   0.34217   0.00000  Uiso   1.00
H27    H     0.55738   0.33469   0.47910   0.00000  Uiso   1.00
H28    H     0.61195   0.39496   0.05130   0.00000  Uiso   1.00
H29    H     0.44070   0.75117   0.34574   0.00000  Uiso   1.00
H30    H     0.59832   0.44018   0.63450   0.00000  Uiso   1.00
H31    H     0.69710   0.97915   0.36790   0.00000  Uiso   1.00
H32    H     0.73066   0.06737   0.22988   0.00000  Uiso   1.00
H33    H     0.64944   0.76204   0.36951   0.00000  Uiso   1.00
H34    H     0.72419   0.08879   0.50644   0.00000  Uiso   1.00
H35    H     0.74734   0.19538   0.07349   0.00000  Uiso   1.00
H36    H     0.57608   0.55159   0.36793   0.00000  Uiso   1.00
H37    H     0.73371   0.24059   0.65669   0.00000  Uiso   1.00
O38    O     0.69886   0.35738   0.97113   0.00000  Uiso   1.00
O39    O     0.47418   0.51276   0.35743   0.00000  Uiso   1.00
O40    O     0.68098   0.41671   0.73627   0.00000  Uiso   1.00
N41    N     0.63921   0.33591   0.07547   0.00000  Uiso   1.00
N42    N     0.47910   0.73400   0.35074   0.00000  Uiso   1.00
N43    N     0.62646   0.37813   0.62072   0.00000  Uiso   1.00
N44    N     0.71206   0.22851   0.08741   0.00000  Uiso   1.00
N45    N     0.55195   0.62660   0.36268   0.00000  Uiso   1.00
N46    N     0.69931   0.27074   0.63266   0.00000  Uiso   1.00
C47    C     0.07519   0.65886   0.34791   0.00000  Uiso   1.00
C48    C     0.11064   0.68142   0.27575   0.00000  Uiso   1.00
C49    C     0.09987   0.76020   0.20843   0.00000  Uiso   1.00
C50    C     0.13731   0.76797   0.14892   0.00000  Uiso   1.00
C51    C     0.18527   0.81339   0.03569   0.00000  Uiso   1.00
C52    C     0.06652   0.51553   0.35160   0.00000  Uiso   1.00
C53    C     0.01863   0.45483   0.34806   0.00000  Uiso   1.00
C54    C     0.01894   0.32294   0.35242   0.00000  Uiso   1.00
C55    C     0.99838   0.11081   0.35701   0.00000  Uiso   1.00
C56    C     0.10713   0.69306   0.42600   0.00000  Uiso   1.00
C57    C     0.09339   0.78162   0.48503   0.00000  Uiso   1.00
C58    C     0.12789   0.79918   0.55203   0.00000  Uiso   1.00
C59    C     0.17039   0.86271   0.67214   0.00000  Uiso   1.00
C60    C     0.16087   0.53256   0.36196   0.00000  Uiso   1.00
C61    C     0.15718   0.61282   0.28338   0.00000  Uiso   1.00
C62    C     0.19465   0.62047   0.22396   0.00000  Uiso   1.00
C63    C     0.18393   0.69925   0.15656   0.00000  Uiso   1.00
C64    C     0.11305   0.44692   0.35923   0.00000  Uiso   1.00
C65    C     0.11342   0.31510   0.36360   0.00000  Uiso   1.00
C66    C     0.06556   0.25421   0.36006   0.00000  Uiso   1.00
C67    C     0.15367   0.62447   0.43363   0.00000  Uiso   1.00
C68    C     0.18818   0.64189   0.50056   0.00000  Uiso   1.00
C69    C     0.17450   0.73046   0.55967   0.00000  Uiso   1.00
H70    H     0.03896   0.71226   0.34198   0.00000  Uiso   1.00
H71    H     0.06385   0.81327   0.20254   0.00000  Uiso   1.00
H72    H     0.98263   0.50794   0.34217   0.00000  Uiso   1.00
H73    H     0.05738   0.83469   0.47910   0.00000  Uiso   1.00
H74    H     0.11195   0.89496   0.05130   0.00000  Uiso   1.00
H75    H     0.94070   0.25117   0.34574   0.00000  Uiso   1.00
H76    H     0.09832   0.94018   0.63450   0.00000  Uiso   1.00
H77    H     0.19710   0.47915   0.36790   0.00000  Uiso   1.00
H78    H     0.23066   0.56737   0.22988   0.00000  Uiso   1.00
H79    H     0.14944   0.26204   0.36951   0.00000  Uiso   1.00
H80    H     0.22419   0.58879   0.50644   0.00000  Uiso   1.00
H81    H     0.24734   0.69538   0.07349   0.00000  Uiso   1.00
H82    H     0.07608   0.05159   0.36793   0.00000  Uiso   1.00
H83    H     0.23371   0.74059   0.65669   0.00000  Uiso   1.00
O84    O     0.19886   0.85738   0.97113   0.00000  Uiso   1.00
O85    O     0.97418   0.01276   0.35743   0.00000  Uiso   1.00
O86    O     0.18098   0.91671   0.73627   0.00000  Uiso   1.00
N87    N     0.13921   0.83591   0.07547   0.00000  Uiso   1.00
N88    N     0.97910   0.23400   0.35074   0.00000  Uiso   1.00
N89    N     0.12646   0.87813   0.62072   0.00000  Uiso   1.00
N90    N     0.21206   0.72851   0.08741   0.00000  Uiso   1.00
N91    N     0.05195   0.12660   0.36268   0.00000  Uiso   1.00
N92    N     0.19931   0.77074   0.63266   0.00000  Uiso   1.00
C93    C     0.42481   0.15886   0.15209   0.00000  Uiso   1.00
C94    C     0.38936   0.18142   0.22425   0.00000  Uiso   1.00
C95    C     0.40013   0.26020   0.29157   0.00000  Uiso   1.00
C96    C     0.36269   0.26797   0.35108   0.00000  Uiso   1.00
C97    C     0.31473   0.31339   0.46431   0.00000  Uiso   1.00
C98    C     0.43348   0.01553   0.14840   0.00000  Uiso   1.00
C99    C     0.48137   0.95483   0.15194   0.00000  Uiso   1.00
C100   C     0.48106   0.82294   0.14758   0.00000  Uiso   1.00
C101   C     0.50162   0.61081   0.14299   0.00000  Uiso   1.00
C102   C     0.39287   0.19306   0.07400   0.00000  Uiso   1.00
C103   C     0.40661   0.28162   0.01497   0.00000  Uiso   1.00
C104   C     0.37211   0.29918   0.94797   0.00000  Uiso   1.00
C105   C     0.32961   0.36271   0.82786   0.00000  Uiso   1.00
C106   C     0.33913   0.03256   0.13804   0.00000  Uiso   1.00
C107   C     0.34282   0.11282   0.21662   0.00000  Uiso   1.00
C108   C     0.30535   0.12047   0.27604   0.00000  Uiso   1.00
C109   C     0.31607   0.19925   0.34344   0.00000  Uiso   1.00
C110   C     0.38695   0.94692   0.14077   0.00000  Uiso   1.00
C111   C     0.38658   0.81510   0.13640   0.00000  Uiso   1.00
C112   C     0.43444   0.75421   0.13994   0.00000  Uiso   1.00
C113   C     0.34633   0.12447   0.06637   0.00000  Uiso   1.00
C114   C     0.31182   0.14189   0.99944   0.00000  Uiso   1.00
C115   C     0.32550   0.23046   0.94033   0.00000  Uiso   1.00
H116   H     0.46104   0.21226   0.15802   0.00000  Uiso   1.00
H117   H     0.43615   0.31327   0.29746   0.00000  Uiso   1.00
H118   H     0.51737   0.00794   0.15783   0.00000  Uiso   1.00
H119   H     0.44262   0.33469   0.02090   0.00000  Uiso   1.00
H120   H     0.38805   0.39496   0.44870   0.00000  Uiso   1.00
H121   H     0.55930   0.75117   0.15426   0.00000  Uiso   1.00
H122   H     0.40168   0.44018   0.86550   0.00000  Uiso   1.00
H123   H     0.30290   0.97915   0.13210   0.00000  Uiso   1.00
H124   H     0.26934   0.06737   0.27012   0.00000  Uiso   1.00
H125   H     0.35056   0.76204   0.13049   0.00000  Uiso   1.00
H126   H     0.27581   0.08879   0.99356   0.00000  Uiso   1.00
H127   H     0.25266   0.19538   0.42651   0.00000  Uiso   1.00
H128   H     0.42392   0.55159   0.13207   0.00000  Uiso   1.00
H129   H     0.26629   0.24059   0.84331   0.00000  Uiso   1.00
O130   O     0.30114   0.35738   0.52887   0.00000  Uiso   1.00
O131   O     0.52582   0.51276   0.14257   0.00000  Uiso   1.00
O132   O     0.31902   0.41671   0.76373   0.00000  Uiso   1.00
N133   N     0.36079   0.33591   0.42453   0.00000  Uiso   1.00
N134   N     0.52090   0.73400   0.14926   0.00000  Uiso   1.00
N135   N     0.37354   0.37813   0.87928   0.00000  Uiso   1.00
N136   N     0.28794   0.22851   0.41259   0.00000  Uiso   1.00
N137   N     0.44805   0.62660   0.13732   0.00000  Uiso   1.00
N138   N     0.30069   0.27074   0.86734   0.00000  Uiso   1.00
C139   C     0.92481   0.65886   0.15209   0.00000  Uiso   1.00
C140   C     0.88936   0.68142   0.22425   0.00000  Uiso   1.00
C141   C     0.90013   0.76020   0.29157   0.00000  Uiso   1.00
C142   C     0.86269   0.76797   0.35108   0.00000  Uiso   1.00
C143   C     0.81473   0.81339   0.46431   0.00000  Uiso   1.00
C144   C     0.93348   0.51553   0.14840   0.00000  Uiso   1.00
C145   C     0.98137   0.45483   0.15194   0.00000  Uiso   1.00
C146   C     0.98106   0.32294   0.14758   0.00000  Uiso   1.00
C147   C     0.00162   0.11081   0.14299   0.00000  Uiso   1.00
C148   C     0.89287   0.69306   0.07400   0.00000  Uiso   1.00
C149   C     0.90661   0.78162   0.01497   0.00000  Uiso   1.00
C150   C     0.87211   0.79918   0.94797   0.00000  Uiso   1.00
C151   C     0.82961   0.86271   0.82786   0.00000  Uiso   1.00
C152   C     0.83913   0.53256   0.13804   0.00000  Uiso   1.00
C153   C     0.84282   0.61282   0.21662   0.00000  Uiso   1.00
C154   C     0.80535   0.62047   0.27604   0.00000  Uiso   1.00
C155   C     0.81607   0.69925   0.34344   0.00000  Uiso   1.00
C156   C     0.88695   0.44692   0.14077   0.00000  Uiso   1.00
C157   C     0.88658   0.31510   0.13640   0.00000  Uiso   1.00
C158   C     0.93444   0.25421   0.13994   0.00000  Uiso   1.00
C159   C     0.84633   0.62447   0.06637   0.00000  Uiso   1.00
C160   C     0.81182   0.64189   0.99944   0.00000  Uiso   1.00
C161   C     0.82550   0.73046   0.94033   0.00000  Uiso   1.00
H162   H     0.96104   0.71226   0.15802   0.00000  Uiso   1.00
H163   H     0.93615   0.81327   0.29746   0.00000  Uiso   1.00
H164   H     0.01737   0.50794   0.15783   0.00000  Uiso   1.00
H165   H     0.94262   0.83469   0.02090   0.00000  Uiso   1.00
H166   H     0.88805   0.89496   0.44870   0.00000  Uiso   1.00
H167   H     0.05930   0.25117   0.15426   0.00000  Uiso   1.00
H168   H     0.90168   0.94018   0.86550   0.00000  Uiso   1.00
H169   H     0.80290   0.47915   0.13210   0.00000  Uiso   1.00
H170   H     0.76934   0.56737   0.27012   0.00000  Uiso   1.00
H171   H     0.85056   0.26204   0.13049   0.00000  Uiso   1.00
H172   H     0.77581   0.58879   0.99356   0.00000  Uiso   1.00
H173   H     0.75266   0.69538   0.42651   0.00000  Uiso   1.00
H174   H     0.92392   0.05159   0.13207   0.00000  Uiso   1.00
H175   H     0.76629   0.74059   0.84331   0.00000  Uiso   1.00
O176   O     0.80114   0.85738   0.52887   0.00000  Uiso   1.00
O177   O     0.02582   0.01276   0.14257   0.00000  Uiso   1.00
O178   O     0.81902   0.91671   0.76373   0.00000  Uiso   1.00
N179   N     0.86079   0.83591   0.42453   0.00000  Uiso   1.00
N180   N     0.02090   0.23400   0.14926   0.00000  Uiso   1.00
N181   N     0.87354   0.87813   0.87928   0.00000  Uiso   1.00
N182   N     0.78794   0.72851   0.41259   0.00000  Uiso   1.00
N183   N     0.94805   0.12660   0.13732   0.00000  Uiso   1.00
N184   N     0.80069   0.77074   0.86734   0.00000  Uiso   1.00
C185   C     0.42481   0.84114   0.65209   0.00000  Uiso   1.00
C186   C     0.38936   0.81858   0.72425   0.00000  Uiso   1.00
C187   C     0.40013   0.73980   0.79157   0.00000  Uiso   1.00
C188   C     0.36269   0.73203   0.85108   0.00000  Uiso   1.00
C189   C     0.31473   0.68661   0.96431   0.00000  Uiso   1.00
C190   C     0.43348   0.98447   0.64840   0.00000  Uiso   1.00
C191   C     0.48137   0.04517   0.65194   0.00000  Uiso   1.00
C192   C     0.48106   0.17706   0.64758   0.00000  Uiso   1.00
C193   C     0.50162   0.38919   0.64299   0.00000  Uiso   1.00
C194   C     0.39287   0.80694   0.57400   0.00000  Uiso   1.00
C195   C     0.40661   0.71838   0.51497   0.00000  Uiso   1.00
C196   C     0.37211   0.70082   0.44797   0.00000  Uiso   1.00
C197   C     0.32961   0.63729   0.32786   0.00000  Uiso   1.00
C198   C     0.33913   0.96744   0.63804   0.00000  Uiso   1.00
C199   C     0.34282   0.88718   0.71662   0.00000  Uiso   1.00
C200   C     0.30535   0.87953   0.77604   0.00000  Uiso   1.00
C201   C     0.31607   0.80075   0.84344   0.00000  Uiso   1.00
C202   C     0.38695   0.05308   0.64077   0.00000  Uiso   1.00
C203   C     0.38658   0.18490   0.63640   0.00000  Uiso   1.00
C204   C     0.43444   0.24579   0.63994   0.00000  Uiso   1.00
C205   C     0.34633   0.87553   0.56637   0.00000  Uiso   1.00
C206   C     0.31182   0.85811   0.49944   0.00000  Uiso   1.00
C207   C     0.32550   0.76954   0.44033   0.00000  Uiso   1.00
H208   H     0.46104   0.78774   0.65802   0.00000  Uiso   1.00
H209   H     0.43615   0.68673   0.79746   0.00000  Uiso   1.00
H210   H     0.51737   0.99206   0.65783   0.00000  Uiso   1.00
H211   H     0.44262   0.66531   0.52090   0.00000  Uiso   1.00
H212   H     0.38805   0.60504   0.94870   0.00000  Uiso   1.00
H213   H     0.55930   0.24883   0.65426   0.00000  Uiso   1.00
H214   H     0.40168   0.55982   0.36550   0.00000  Uiso   1.00
H215   H     0.30290   0.02085   0.63210   0.00000  Uiso   1.00
H216   H     0.26934   0.93263   0.77012   0.00000  Uiso   1.00
H217   H     0.35056   0.23796   0.63049   0.00000  Uiso   1.00
H218   H     0.27581   0.91121   0.49356   0.00000  Uiso   1.00
H219   H     0.25266   0.80462   0.92651   0.00000  Uiso   1.00
H220   H     0.42392   0.44841   0.63207   0.00000  Uiso   1.00
H221   H     0.26629   0.75941   0.34331   0.00000  Uiso   1.00
O222   O     0.30114   0.64262   0.02887   0.00000  Uiso   1.00
O223   O     0.52582   0.48724   0.64257   0.00000  Uiso   1.00
O224   O     0.31902   0.58329   0.26373   0.00000  Uiso   1.00
N225   N     0.36079   0.66409   0.92453   0.00000  Uiso   1.00
N226   N     0.52090   0.26600   0.64926   0.00000  Uiso   1.00
N227   N     0.37354   0.62187   0.37928   0.00000  Uiso   1.00
N228   N     0.28794   0.77149   0.91259   0.00000  Uiso   1.00
N229   N     0.44805   0.37340   0.63732   0.00000  Uiso   1.00
N230   N     0.30069   0.72926   0.36734   0.00000  Uiso   1.00
C231   C     0.92481   0.34114   0.65209   0.00000  Uiso   1.00
C232   C     0.88936   0.31858   0.72425   0.00000  Uiso   1.00
C233   C     0.90013   0.23980   0.79157   0.00000  Uiso   1.00
C234   C     0.86269   0.23203   0.85108   0.00000  Uiso   1.00
C235   C     0.81473   0.18661   0.96431   0.00000  Uiso   1.00
C236   C     0.93348   0.48447   0.64840   0.00000  Uiso   1.00
C237   C     0.98137   0.54517   0.65194   0.00000  Uiso   1.00
C238   C     0.98106   0.67706   0.64758   0.00000  Uiso   1.00
C239   C     0.00162   0.88919   0.64299   0.00000  Uiso   1.00
C240   C     0.89287   0.30694   0.57400   0.00000  Uiso   1.00
C241   C     0.90661   0.21838   0.51497   0.00000  Uiso   1.00
C242   C     0.87211   0.20082   0.44797   0.00000  Uiso   1.00
C243   C     0.82961   0.13729   0.32786   0.00000  Uiso   1.00
C244   C     0.83913   0.46744   0.63804   0.00000  Uiso   1.00
C245   C     0.84282   0.38718   0.71662   0.00000  Uiso   1.00
C246   C     0.80535   0.37953   0.77604   0.00000  Uiso   1.00
C247   C     0.81607   0.30075   0.84344   0.00000  Uiso   1.00
C248   C     0.88695   0.55308   0.64077   0.00000  Uiso   1.00
C249   C     0.88658   0.68490   0.63640   0.00000  Uiso   1.00
C250   C     0.93444   0.74579   0.63994   0.00000  Uiso   1.00
C251   C     0.84633   0.37553   0.56637   0.00000  Uiso   1.00
C252   C     0.81182   0.35811   0.49944   0.00000  Uiso   1.00
C253   C     0.82550   0.26954   0.44033   0.00000  Uiso   1.00
H254   H     0.96104   0.28774   0.65802   0.00000  Uiso   1.00
H255   H     0.93615   0.18673   0.79746   0.00000  Uiso   1.00
H256   H     0.01737   0.49206   0.65783   0.00000  Uiso   1.00
H257   H     0.94262   0.16531   0.52090   0.00000  Uiso   1.00
H258   H     0.88805   0.10504   0.94870   0.00000  Uiso   1.00
H259   H     0.05930   0.74883   0.65426   0.00000  Uiso   1.00
H260   H     0.90168   0.05982   0.36550   0.00000  Uiso   1.00
H261   H     0.80290   0.52085   0.63210   0.00000  Uiso   1.00
H262   H     0.76934   0.43263   0.77012   0.00000  Uiso   1.00
H263   H     0.85056   0.73796   0.63049   0.00000  Uiso   1.00
H264   H     0.77581   0.41121   0.49356   0.00000  Uiso   1.00
H265   H     0.75266   0.30462   0.92651   0.00000  Uiso   1.00
H266   H     0.92392   0.94841   0.63207   0.00000  Uiso   1.00
H267   H     0.76629   0.25941   0.34331   0.00000  Uiso   1.00
O268   O     0.80114   0.14262   0.02887   0.00000  Uiso   1.00
O269   O     0.02582   0.98724   0.64257   0.00000  Uiso   1.00
O270   O     0.81902   0.08329   0.26373   0.00000  Uiso   1.00
N271   N     0.86079   0.16409   0.92453   0.00000  Uiso   1.00
N272   N     0.02090   0.76600   0.64926   0.00000  Uiso   1.00
N273   N     0.87354   0.12187   0.37928   0.00000  Uiso   1.00
N274   N     0.78794   0.27149   0.91259   0.00000  Uiso   1.00
N275   N     0.94805   0.87340   0.63732   0.00000  Uiso   1.00
N276   N     0.80069   0.22926   0.36734   0.00000  Uiso   1.00
C277   C     0.57519   0.84114   0.84791   0.00000  Uiso   1.00
C278   C     0.61064   0.81858   0.77575   0.00000  Uiso   1.00
C279   C     0.59987   0.73980   0.70843   0.00000  Uiso   1.00
C280   C     0.63731   0.73203   0.64892   0.00000  Uiso   1.00
C281   C     0.68527   0.68661   0.53569   0.00000  Uiso   1.00
C282   C     0.56652   0.98447   0.85160   0.00000  Uiso   1.00
C283   C     0.51863   0.04517   0.84806   0.00000  Uiso   1.00
C284   C     0.51894   0.17706   0.85242   0.00000  Uiso   1.00
C285   C     0.49838   0.38919   0.85701   0.00000  Uiso   1.00
C286   C     0.60713   0.80694   0.92600   0.00000  Uiso   1.00
C287   C     0.59339   0.71838   0.98503   0.00000  Uiso   1.00
C288   C     0.62789   0.70082   0.05203   0.00000  Uiso   1.00
C289   C     0.67039   0.63729   0.17214   0.00000  Uiso   1.00
C290   C     0.66087   0.96744   0.86196   0.00000  Uiso   1.00
C291   C     0.65718   0.88718   0.78338   0.00000  Uiso   1.00
C292   C     0.69465   0.87953   0.72396   0.00000  Uiso   1.00
C293   C     0.68393   0.80075   0.65656   0.00000  Uiso   1.00
C294   C     0.61305   0.05308   0.85923   0.00000  Uiso   1.00
C295   C     0.61342   0.18490   0.86360   0.00000  Uiso   1.00
C296   C     0.56556   0.24579   0.86006   0.00000  Uiso   1.00
C297   C     0.65367   0.87553   0.93363   0.00000  Uiso   1.00
C298   C     0.68818   0.85811   0.00056   0.00000  Uiso   1.00
C299   C     0.67450   0.76954   0.05967   0.00000  Uiso   1.00
H300   H     0.53896   0.78774   0.84198   0.00000  Uiso   1.00
H301   H     0.56385   0.68673   0.70254   0.00000  Uiso   1.00
H302   H     0.48263   0.99206   0.84217   0.00000  Uiso   1.00
H303   H     0.55738   0.66531   0.97910   0.00000  Uiso   1.00
H304   H     0.61195   0.60504   0.55130   0.00000  Uiso   1.00
H305   H     0.44070   0.24883   0.84574   0.00000  Uiso   1.00
H306   H     0.59832   0.55982   0.13450   0.00000  Uiso   1.00
H307   H     0.69710   0.02085   0.86790   0.00000  Uiso   1.00
H308   H     0.73066   0.93263   0.72988   0.00000  Uiso   1.00
H309   H     0.64944   0.23796   0.86951   0.00000  Uiso   1.00
H310   H     0.72419   0.91121   0.00644   0.00000  Uiso   1.00
H311   H     0.74734   0.80462   0.57349   0.00000  Uiso   1.00
H312   H     0.57608   0.44841   0.86793   0.00000  Uiso   1.00
H313   H     0.73371   0.75941   0.15669   0.00000  Uiso   1.00
O314   O     0.69886   0.64262   0.47113   0.00000  Uiso   1.00
O315   O     0.47418   0.48724   0.85743   0.00000  Uiso   1.00
O316   O     0.68098   0.58329   0.23627   0.00000  Uiso   1.00
N317   N     0.63921   0.66409   0.57547   0.00000  Uiso   1.00
N318   N     0.47910   0.26600   0.85074   0.00000  Uiso   1.00
N319   N     0.62646   0.62187   0.12072   0.00000  Uiso   1.00
N320   N     0.71206   0.77149   0.58741   0.00000  Uiso   1.00
N321   N     0.55195   0.37340   0.86268   0.00000  Uiso   1.00
N322   N     0.69931   0.72926   0.13266   0.00000  Uiso   1.00
C323   C     0.07519   0.34114   0.84791   0.00000  Uiso   1.00
C324   C     0.11064   0.31858   0.77575   0.00000  Uiso   1.00
C325   C     0.09987   0.23980   0.70843   0.00000  Uiso   1.00
C326   C     0.13731   0.23203   0.64892   0.00000  Uiso   1.00
C327   C     0.18527   0.18661   0.53569   0.00000  Uiso   1.00
C328   C     0.06652   0.48447   0.85160   0.00000  Uiso   1.00
C329   C     0.01863   0.54517   0.84806   0.00000  Uiso   1.00
C330   C     0.01894   0.67706   0.85242   0.00000  Uiso   1.00
C331   C     0.99838   0.88919   0.85701   0.00000  Uiso   1.00
C332   C     0.10713   0.30694   0.92600   0.00000  Uiso   1.00
C333   C     0.09339   0.21838   0.98503   0.00000  Uiso   1.00
C334   C     0.12789   0.20082   0.05203   0.00000  Uiso   1.00
C335   C     0.17039   0.13729   0.17214   0.00000  Uiso   1.00
C336   C     0.16087   0.46744   0.86196   0.00000  Uiso   1.00
C337   C     0.15718   0.38718   0.78338   0.00000  Uiso   1.00
C338   C     0.19465   0.37953   0.72396   0.00000  Uiso   1.00
C339   C     0.18393   0.30075   0.65656   0.00000  Uiso   1.00
C340   C     0.11305   0.55308   0.85923   0.00000  Uiso   1.00
C341   C     0.11342   0.68490   0.86360   0.00000  Uiso   1.00
C342   C     0.06556   0.74579   0.86006   0.00000  Uiso   1.00
C343   C     0.15367   0.37553   0.93363   0.00000  Uiso   1.00
C344   C     0.18818   0.35811   0.00056   0.00000  Uiso   1.00
C345   C     0.17450   0.26954   0.05967   0.00000  Uiso   1.00
H346   H     0.03896   0.28774   0.84198   0.00000  Uiso   1.00
H347   H     0.06385   0.18673   0.70254   0.00000  Uiso   1.00
H348   H     0.98263   0.49206   0.84217   0.00000  Uiso   1.00
H349   H     0.05738   0.16531   0.97910   0.00000  Uiso   1.00
H350   H     0.11195   0.10504   0.55130   0.00000  Uiso   1.00
H351   H     0.94070   0.74883   0.84574   0.00000  Uiso   1.00
H352   H     0.09832   0.05982   0.13450   0.00000  Uiso   1.00
H353   H     0.19710   0.52085   0.86790   0.00000  Uiso   1.00
H354   H     0.23066   0.43263   0.72988   0.00000  Uiso   1.00
H355   H     0.14944   0.73796   0.86951   0.00000  Uiso   1.00
H356   H     0.22419   0.41121   0.00644   0.00000  Uiso   1.00
H357   H     0.24734   0.30462   0.57349   0.00000  Uiso   1.00
H358   H     0.07608   0.94841   0.86793   0.00000  Uiso   1.00
H359   H     0.23371   0.25941   0.15669   0.00000  Uiso   1.00
O360   O     0.19886   0.14262   0.47113   0.00000  Uiso   1.00
O361   O     0.97418   0.98724   0.85743   0.00000  Uiso   1.00
O362   O     0.18098   0.08329   0.23627   0.00000  Uiso   1.00
N363   N     0.13921   0.16409   0.57547   0.00000  Uiso   1.00
N364   N     0.97910   0.76600   0.85074   0.00000  Uiso   1.00
N365   N     0.12646   0.12187   0.12072   0.00000  Uiso   1.00
N366   N     0.21206   0.27149   0.58741   0.00000  Uiso   1.00
N367   N     0.05195   0.87340   0.86268   0.00000  Uiso   1.00
N368   N     0.19931   0.22926   0.13266   0.00000  Uiso   1.00
