data_job_05765
_audit_creation_date              2018-12-19
_audit_creation_method            'Materials Studio'
_symmetry_space_group_name_H-M    'P1'
_symmetry_Int_Tables_number       1
_symmetry_cell_setting            triclinic
loop_
_symmetry_equiv_pos_as_xyz
  x,y,z
_cell_length_a                    10.8728
_cell_length_b                    22.7430
_cell_length_c                    12.4304
_cell_angle_alpha                 90.0000
_cell_angle_beta                  99.5967
_cell_angle_gamma                 90.0000
loop_
_atom_site_label
_atom_site_type_symbol
_atom_site_fract_x
_atom_site_fract_y
_atom_site_fract_z
_atom_site_U_iso_or_equiv
_atom_site_adp_type
_atom_site_occupancy
C1     C     0.59287   0.55471   0.48159   0.00000  Uiso   1.00
C2     C     0.64428   0.59655   0.40410   0.00000  Uiso   1.00
C3     C     0.58975   0.60858   0.29732   0.00000  Uiso   1.00
C4     C     0.65137   0.64813   0.23987   0.00000  Uiso   1.00
C5     C     0.71418   0.70903   0.11226   0.00000  Uiso   1.00
C6     C     0.69609   0.51016   0.51858   0.00000  Uiso   1.00
C7     C     0.68510   0.44955   0.50807   0.00000  Uiso   1.00
C8     C     0.79033   0.41638   0.54701   0.00000  Uiso   1.00
C9     C     0.93353   0.34317   0.59722   0.00000  Uiso   1.00
C10    C     0.57970   0.59090   0.58231   0.00000  Uiso   1.00
C11    C     0.47086   0.59817   0.62541   0.00000  Uiso   1.00
C12    C     0.47811   0.63297   0.71803   0.00000  Uiso   1.00
C13    C     0.44061   0.68511   0.86718   0.00000  Uiso   1.00
C14    C     0.79929   0.60357   0.56947   0.00000  Uiso   1.00
C15    C     0.75640   0.62308   0.45183   0.00000  Uiso   1.00
C16    C     0.81812   0.66263   0.39454   0.00000  Uiso   1.00
C17    C     0.76369   0.67472   0.28769   0.00000  Uiso   1.00
C18    C     0.80820   0.53670   0.56631   0.00000  Uiso   1.00
C19    C     0.91347   0.50361   0.60529   0.00000  Uiso   1.00
C20    C     0.90265   0.44297   0.59483   0.00000  Uiso   1.00
C21    C     0.69182   0.61744   0.63004   0.00000  Uiso   1.00
C22    C     0.69924   0.65223   0.72262   0.00000  Uiso   1.00
C23    C     0.59043   0.65955   0.76584   0.00000  Uiso   1.00
H24    H     0.50559   0.53404   0.44444   0.00000  Uiso   1.00
H25    H     0.50299   0.58802   0.26040   0.00000  Uiso   1.00
H26    H     0.59832   0.42903   0.47114   0.00000  Uiso   1.00
H27    H     0.38412   0.57762   0.58845   0.00000  Uiso   1.00
H28    H     0.54958   0.65956   0.07741   0.00000  Uiso   1.00
H29    H     0.75057   0.32430   0.52178   0.00000  Uiso   1.00
H30    H     0.29889   0.63765   0.76916   0.00000  Uiso   1.00
H31    H     0.88658   0.62423   0.60663   0.00000  Uiso   1.00
H32    H     0.90489   0.68316   0.43149   0.00000  Uiso   1.00
H33    H     0.00021   0.52416   0.64222   0.00000  Uiso   1.00
H34    H     0.78602   0.67276   0.75954   0.00000  Uiso   1.00
H35    H     0.87577   0.73677   0.21626   0.00000  Uiso   1.00
H36    H     0.07676   0.40152   0.66064   0.00000  Uiso   1.00
H37    H     0.62508   0.71486   0.90802   0.00000  Uiso   1.00
O38    O     0.71787   0.73529   0.02869   0.00000  Uiso   1.00
O39    O     0.98155   0.29545   0.61171   0.00000  Uiso   1.00
O40    O     0.38895   0.70655   0.93626   0.00000  Uiso   1.00
N41    N     0.62382   0.66965   0.13413   0.00000  Uiso   1.00
N42    N     0.81174   0.35621   0.54958   0.00000  Uiso   1.00
N43    N     0.38946   0.64915   0.78087   0.00000  Uiso   1.00
N44    N     0.79935   0.71120   0.20885   0.00000  Uiso   1.00
N45    N     0.98727   0.39776   0.62430   0.00000  Uiso   1.00
N46    N     0.56499   0.69070   0.85559   0.00000  Uiso   1.00
C47    C     0.38706   0.44489   0.99391   0.00000  Uiso   1.00
C48    C     0.33530   0.40313   0.07133   0.00000  Uiso   1.00
C49    C     0.38957   0.39109   0.17817   0.00000  Uiso   1.00
C50    C     0.32764   0.35161   0.23552   0.00000  Uiso   1.00
C51    C     0.26429   0.29081   0.36303   0.00000  Uiso   1.00
C52    C     0.28407   0.48953   0.95674   0.00000  Uiso   1.00
C53    C     0.29529   0.55013   0.96723   0.00000  Uiso   1.00
C54    C     0.19025   0.58338   0.92811   0.00000  Uiso   1.00
C55    C     0.04741   0.65672   0.87764   0.00000  Uiso   1.00
C56    C     0.40030   0.40865   0.89327   0.00000  Uiso   1.00
C57    C     0.50924   0.40126   0.85037   0.00000  Uiso   1.00
C58    C     0.50204   0.36643   0.75779   0.00000  Uiso   1.00
C59    C     0.53966   0.31420   0.60878   0.00000  Uiso   1.00
C60    C     0.18057   0.39619   0.90576   0.00000  Uiso   1.00
C61    C     0.22314   0.37668   0.02344   0.00000  Uiso   1.00
C62    C     0.16111   0.33721   0.08064   0.00000  Uiso   1.00
C63    C     0.21529   0.32511   0.18756   0.00000  Uiso   1.00
C64    C     0.17192   0.46308   0.90886   0.00000  Uiso   1.00
C65    C     0.06684   0.49625   0.86970   0.00000  Uiso   1.00
C66    C     0.07789   0.55688   0.88014   0.00000  Uiso   1.00
C67    C     0.28815   0.38220   0.84539   0.00000  Uiso   1.00
C68    C     0.28078   0.34738   0.75285   0.00000  Uiso   1.00
C69    C     0.38968   0.33994   0.70982   0.00000  Uiso   1.00
H70    H     0.47438   0.46548   0.03119   0.00000  Uiso   1.00
H71    H     0.47636   0.41157   0.21520   0.00000  Uiso   1.00
H72    H     0.38210   0.57058   0.00428   0.00000  Uiso   1.00
H73    H     0.59601   0.42174   0.88745   0.00000  Uiso   1.00
H74    H     0.42908   0.34015   0.39811   0.00000  Uiso   1.00
H75    H     0.23034   0.67543   0.95334   0.00000  Uiso   1.00
H76    H     0.68141   0.36157   0.70697   0.00000  Uiso   1.00
H77    H     0.09325   0.37560   0.86848   0.00000  Uiso   1.00
H78    H     0.07432   0.31675   0.04357   0.00000  Uiso   1.00
H79    H     0.98006   0.47577   0.83265   0.00000  Uiso   1.00
H80    H     0.19397   0.32692   0.71582   0.00000  Uiso   1.00
H81    H     0.10276   0.26319   0.25881   0.00000  Uiso   1.00
H82    H     0.90403   0.59848   0.81404   0.00000  Uiso   1.00
H83    H     0.35510   0.28461   0.56767   0.00000  Uiso   1.00
O84    O     0.26032   0.26459   0.44658   0.00000  Uiso   1.00
O85    O     0.99960   0.70448   0.86305   0.00000  Uiso   1.00
O86    O     0.59140   0.29269   0.53982   0.00000  Uiso   1.00
N87    N     0.35489   0.33010   0.34129   0.00000  Uiso   1.00
N88    N     0.16908   0.64358   0.92547   0.00000  Uiso   1.00
N89    N     0.59079   0.35015   0.69512   0.00000  Uiso   1.00
N90    N     0.17930   0.28869   0.26633   0.00000  Uiso   1.00
N91    N     0.99349   0.60217   0.85052   0.00000  Uiso   1.00
N92    N     0.41520   0.30874   0.62016   0.00000  Uiso   1.00
C93    C     0.40713   0.05471   0.51841   0.00000  Uiso   1.00
C94    C     0.35572   0.09655   0.59590   0.00000  Uiso   1.00
C95    C     0.41025   0.10858   0.70268   0.00000  Uiso   1.00
C96    C     0.34863   0.14813   0.76013   0.00000  Uiso   1.00
C97    C     0.28582   0.20903   0.88774   0.00000  Uiso   1.00
C98    C     0.30391   0.01016   0.48142   0.00000  Uiso   1.00
C99    C     0.31490   0.94955   0.49193   0.00000  Uiso   1.00
C100   C     0.20967   0.91638   0.45299   0.00000  Uiso   1.00
C101   C     0.06647   0.84317   0.40278   0.00000  Uiso   1.00
C102   C     0.42030   0.09090   0.41769   0.00000  Uiso   1.00
C103   C     0.52914   0.09817   0.37459   0.00000  Uiso   1.00
C104   C     0.52189   0.13297   0.28197   0.00000  Uiso   1.00
C105   C     0.55939   0.18511   0.13282   0.00000  Uiso   1.00
C106   C     0.20071   0.10357   0.43053   0.00000  Uiso   1.00
C107   C     0.24360   0.12308   0.54817   0.00000  Uiso   1.00
C108   C     0.18188   0.16263   0.60546   0.00000  Uiso   1.00
C109   C     0.23631   0.17472   0.71231   0.00000  Uiso   1.00
C110   C     0.19180   0.03670   0.43369   0.00000  Uiso   1.00
C111   C     0.08653   0.00361   0.39471   0.00000  Uiso   1.00
C112   C     0.09735   0.94297   0.40517   0.00000  Uiso   1.00
C113   C     0.30818   0.11744   0.36996   0.00000  Uiso   1.00
C114   C     0.30076   0.15223   0.27738   0.00000  Uiso   1.00
C115   C     0.40957   0.15955   0.23416   0.00000  Uiso   1.00
H116   H     0.49441   0.03404   0.55556   0.00000  Uiso   1.00
H117   H     0.49701   0.08802   0.73960   0.00000  Uiso   1.00
H118   H     0.40168   0.92903   0.52886   0.00000  Uiso   1.00
H119   H     0.61588   0.07762   0.41155   0.00000  Uiso   1.00
H120   H     0.45042   0.15956   0.92259   0.00000  Uiso   1.00
H121   H     0.24943   0.82430   0.47822   0.00000  Uiso   1.00
H122   H     0.70111   0.13765   0.23084   0.00000  Uiso   1.00
H123   H     0.11342   0.12423   0.39337   0.00000  Uiso   1.00
H124   H     0.09511   0.18316   0.56851   0.00000  Uiso   1.00
H125   H     0.99979   0.02416   0.35778   0.00000  Uiso   1.00
H126   H     0.21398   0.17276   0.24046   0.00000  Uiso   1.00
H127   H     0.12423   0.23677   0.78374   0.00000  Uiso   1.00
H128   H     0.92324   0.90152   0.33936   0.00000  Uiso   1.00
H129   H     0.37492   0.21486   0.09198   0.00000  Uiso   1.00
O130   O     0.28213   0.23529   0.97131   0.00000  Uiso   1.00
O131   O     0.01845   0.79545   0.38829   0.00000  Uiso   1.00
O132   O     0.61105   0.20655   0.06374   0.00000  Uiso   1.00
N133   N     0.37618   0.16965   0.86587   0.00000  Uiso   1.00
N134   N     0.18826   0.85621   0.45042   0.00000  Uiso   1.00
N135   N     0.61054   0.14915   0.21913   0.00000  Uiso   1.00
N136   N     0.20065   0.21120   0.79115   0.00000  Uiso   1.00
N137   N     0.01273   0.89776   0.37570   0.00000  Uiso   1.00
N138   N     0.43501   0.19070   0.14441   0.00000  Uiso   1.00
C139   C     0.61294   0.94489   0.00609   0.00000  Uiso   1.00
C140   C     0.66470   0.90313   0.92867   0.00000  Uiso   1.00
C141   C     0.61043   0.89109   0.82183   0.00000  Uiso   1.00
C142   C     0.67236   0.85161   0.76448   0.00000  Uiso   1.00
C143   C     0.73571   0.79081   0.63697   0.00000  Uiso   1.00
C144   C     0.71593   0.98953   0.04326   0.00000  Uiso   1.00
C145   C     0.70471   0.05013   0.03277   0.00000  Uiso   1.00
C146   C     0.80975   0.08338   0.07189   0.00000  Uiso   1.00
C147   C     0.95259   0.15672   0.12236   0.00000  Uiso   1.00
C148   C     0.59970   0.90865   0.10673   0.00000  Uiso   1.00
C149   C     0.49076   0.90126   0.14963   0.00000  Uiso   1.00
C150   C     0.49796   0.86643   0.24221   0.00000  Uiso   1.00
C151   C     0.46034   0.81420   0.39122   0.00000  Uiso   1.00
C152   C     0.81943   0.89619   0.09424   0.00000  Uiso   1.00
C153   C     0.77686   0.87668   0.97656   0.00000  Uiso   1.00
C154   C     0.83889   0.83721   0.91936   0.00000  Uiso   1.00
C155   C     0.78471   0.82511   0.81244   0.00000  Uiso   1.00
C156   C     0.82808   0.96308   0.09114   0.00000  Uiso   1.00
C157   C     0.93316   0.99625   0.13030   0.00000  Uiso   1.00
C158   C     0.92211   0.05688   0.11986   0.00000  Uiso   1.00
C159   C     0.71185   0.88220   0.15461   0.00000  Uiso   1.00
C160   C     0.71922   0.84738   0.24715   0.00000  Uiso   1.00
C161   C     0.61032   0.83994   0.29018   0.00000  Uiso   1.00
H162   H     0.52562   0.96548   0.96881   0.00000  Uiso   1.00
H163   H     0.52364   0.91157   0.78480   0.00000  Uiso   1.00
H164   H     0.61790   0.07058   0.99572   0.00000  Uiso   1.00
H165   H     0.40399   0.92174   0.11255   0.00000  Uiso   1.00
H166   H     0.57092   0.84015   0.60189   0.00000  Uiso   1.00
H167   H     0.76966   0.17543   0.04666   0.00000  Uiso   1.00
H168   H     0.31859   0.86157   0.29303   0.00000  Uiso   1.00
H169   H     0.90675   0.87560   0.13152   0.00000  Uiso   1.00
H170   H     0.92568   0.81675   0.95643   0.00000  Uiso   1.00
H171   H     0.01994   0.97577   0.16735   0.00000  Uiso   1.00
H172   H     0.80603   0.82692   0.28418   0.00000  Uiso   1.00
H173   H     0.89724   0.76319   0.74119   0.00000  Uiso   1.00
H174   H     0.09597   0.09848   0.18596   0.00000  Uiso   1.00
H175   H     0.64490   0.78461   0.43233   0.00000  Uiso   1.00
O176   O     0.73968   0.76459   0.55342   0.00000  Uiso   1.00
O177   O     0.00040   0.20448   0.13695   0.00000  Uiso   1.00
O178   O     0.40860   0.79269   0.46018   0.00000  Uiso   1.00
N179   N     0.64511   0.83010   0.65871   0.00000  Uiso   1.00
N180   N     0.83092   0.14358   0.07453   0.00000  Uiso   1.00
N181   N     0.40921   0.85015   0.30488   0.00000  Uiso   1.00
N182   N     0.82070   0.78869   0.73367   0.00000  Uiso   1.00
N183   N     0.00651   0.10217   0.14948   0.00000  Uiso   1.00
N184   N     0.58480   0.80874   0.37984   0.00000  Uiso   1.00
