data_job_04552
_audit_creation_date              2018-12-19
_audit_creation_method            'Materials Studio'
_symmetry_space_group_name_H-M    'P1'
_symmetry_Int_Tables_number       1
_symmetry_cell_setting            triclinic
loop_
_symmetry_equiv_pos_as_xyz
  x,y,z
_cell_length_a                    17.6772
_cell_length_b                    21.5868
_cell_length_c                    14.6088
_cell_angle_alpha                 90.0000
_cell_angle_beta                  149.6224
_cell_angle_gamma                 90.0000
loop_
_atom_site_label
_atom_site_type_symbol
_atom_site_fract_x
_atom_site_fract_y
_atom_site_fract_z
_atom_site_U_iso_or_equiv
_atom_site_adp_type
_atom_site_occupancy
C1     C     0.39930   0.59318   0.09888   0.00000  Uiso   1.00
C2     C     0.46057   0.52725   0.16251   0.00000  Uiso   1.00
C3     C     0.39517   0.47670   0.05132   0.00000  Uiso   1.00
C4     C     0.46869   0.42028   0.13577   0.00000  Uiso   1.00
C5     C     0.54348   0.31877   0.20585   0.00000  Uiso   1.00
C6     C     0.52358   0.63399   0.19019   0.00000  Uiso   1.00
C7     C     0.51113   0.67318   0.10227   0.00000  Uiso   1.00
C8     C     0.63769   0.70662   0.21003   0.00000  Uiso   1.00
C9     C     0.81026   0.77085   0.32310   0.00000  Uiso   1.00
C10    C     0.38293   0.61125   0.18220   0.00000  Uiso   1.00
C11    C     0.25224   0.63134   0.08758   0.00000  Uiso   1.00
C12    C     0.26039   0.64566   0.18861   0.00000  Uiso   1.00
C13    C     0.21458   0.67459   0.28927   0.00000  Uiso   1.00
C14    C     0.64618   0.58289   0.44658   0.00000  Uiso   1.00
C15    C     0.59468   0.52167   0.35137   0.00000  Uiso   1.00
C16    C     0.66832   0.46532   0.43601   0.00000  Uiso   1.00
C17    C     0.60303   0.41468   0.32496   0.00000  Uiso   1.00
C18    C     0.65767   0.62840   0.37904   0.00000  Uiso   1.00
C19    C     0.78428   0.66180   0.48696   0.00000  Uiso   1.00
C20    C     0.77203   0.70102   0.39923   0.00000  Uiso   1.00
C21    C     0.51703   0.60566   0.37106   0.00000  Uiso   1.00
C22    C     0.52539   0.61996   0.47226   0.00000  Uiso   1.00
C23    C     0.39473   0.64006   0.37781   0.00000  Uiso   1.00
H24    H     0.29490   0.59753   0.95185   0.00000  Uiso   1.00
H25    H     0.29139   0.48104   0.90517   0.00000  Uiso   1.00
H26    H     0.40734   0.67749   0.95613   0.00000  Uiso   1.00
H27    H     0.14849   0.63566   0.94143   0.00000  Uiso   1.00
H28    H     0.34668   0.34943   0.93671   0.00000  Uiso   1.00
H29    H     0.59113   0.76368   0.04415   0.00000  Uiso   1.00
H30    H     0.04529   0.67547   0.01316   0.00000  Uiso   1.00
H31    H     0.75059   0.57855   0.59362   0.00000  Uiso   1.00
H32    H     0.77209   0.46101   0.58216   0.00000  Uiso   1.00
H33    H     0.88803   0.65746   0.63310   0.00000  Uiso   1.00
H34    H     0.62918   0.61563   0.61841   0.00000  Uiso   1.00
H35    H     0.73683   0.33317   0.48618   0.00000  Uiso   1.00
H36    H     0.98128   0.74742   0.59361   0.00000  Uiso   1.00
H37    H     0.43544   0.65921   0.56262   0.00000  Uiso   1.00
O38    O     0.54770   0.26433   0.19233   0.00000  Uiso   1.00
O39    O     0.86841   0.80781   0.33328   0.00000  Uiso   1.00
O40    O     0.15227   0.69208   0.29262   0.00000  Uiso   1.00
N41    N     0.43553   0.36173   0.06760   0.00000  Uiso   1.00
N42    N     0.66409   0.74902   0.16805   0.00000  Uiso   1.00
N43    N     0.15378   0.66657   0.13908   0.00000  Uiso   1.00
N44    N     0.64547   0.35298   0.36326   0.00000  Uiso   1.00
N45    N     0.87403   0.74027   0.46371   0.00000  Uiso   1.00
N46    N     0.36372   0.65782   0.43474   0.00000  Uiso   1.00
C47    C     0.60070   0.09318   0.40112   0.00000  Uiso   1.00
C48    C     0.53943   0.02725   0.33749   0.00000  Uiso   1.00
C49    C     0.60483   0.97670   0.44868   0.00000  Uiso   1.00
C50    C     0.53131   0.92028   0.36423   0.00000  Uiso   1.00
C51    C     0.45652   0.81877   0.29415   0.00000  Uiso   1.00
C52    C     0.47642   0.13399   0.30981   0.00000  Uiso   1.00
C53    C     0.48887   0.17318   0.39773   0.00000  Uiso   1.00
C54    C     0.36231   0.20662   0.28997   0.00000  Uiso   1.00
C55    C     0.18974   0.27085   0.17690   0.00000  Uiso   1.00
C56    C     0.61707   0.11125   0.31780   0.00000  Uiso   1.00
C57    C     0.74776   0.13134   0.41242   0.00000  Uiso   1.00
C58    C     0.73961   0.14566   0.31139   0.00000  Uiso   1.00
C59    C     0.78542   0.17459   0.21073   0.00000  Uiso   1.00
C60    C     0.35382   0.08289   0.05342   0.00000  Uiso   1.00
C61    C     0.40532   0.02167   0.14863   0.00000  Uiso   1.00
C62    C     0.33168   0.96532   0.06399   0.00000  Uiso   1.00
C63    C     0.39697   0.91468   0.17504   0.00000  Uiso   1.00
C64    C     0.34233   0.12840   0.12096   0.00000  Uiso   1.00
C65    C     0.21572   0.16180   0.01304   0.00000  Uiso   1.00
C66    C     0.22797   0.20102   0.10077   0.00000  Uiso   1.00
C67    C     0.48297   0.10566   0.12894   0.00000  Uiso   1.00
C68    C     0.47461   0.11996   0.02774   0.00000  Uiso   1.00
C69    C     0.60527   0.14006   0.12219   0.00000  Uiso   1.00
H70    H     0.70510   0.09753   0.54815   0.00000  Uiso   1.00
H71    H     0.70861   0.98104   0.59483   0.00000  Uiso   1.00
H72    H     0.59266   0.17749   0.54387   0.00000  Uiso   1.00
H73    H     0.85151   0.13566   0.55857   0.00000  Uiso   1.00
H74    H     0.65332   0.84943   0.56329   0.00000  Uiso   1.00
H75    H     0.40887   0.26368   0.45585   0.00000  Uiso   1.00
H76    H     0.95471   0.17547   0.48684   0.00000  Uiso   1.00
H77    H     0.24941   0.07855   0.90638   0.00000  Uiso   1.00
H78    H     0.22791   0.96101   0.91784   0.00000  Uiso   1.00
H79    H     0.11197   0.15746   0.86690   0.00000  Uiso   1.00
H80    H     0.37082   0.11563   0.88159   0.00000  Uiso   1.00
H81    H     0.26317   0.83317   0.01382   0.00000  Uiso   1.00
H82    H     0.01872   0.24742   0.90639   0.00000  Uiso   1.00
H83    H     0.56456   0.15921   0.93738   0.00000  Uiso   1.00
O84    O     0.45230   0.76433   0.30767   0.00000  Uiso   1.00
O85    O     0.13159   0.30781   0.16672   0.00000  Uiso   1.00
O86    O     0.84773   0.19208   0.20738   0.00000  Uiso   1.00
N87    N     0.56447   0.86173   0.43240   0.00000  Uiso   1.00
N88    N     0.33591   0.24902   0.33195   0.00000  Uiso   1.00
N89    N     0.84622   0.16657   0.36092   0.00000  Uiso   1.00
N90    N     0.35453   0.85298   0.13674   0.00000  Uiso   1.00
N91    N     0.12597   0.24027   0.03629   0.00000  Uiso   1.00
N92    N     0.63628   0.15782   0.06526   0.00000  Uiso   1.00
C93    C     0.60070   0.40682   0.90112   0.00000  Uiso   1.00
C94    C     0.53943   0.47275   0.83749   0.00000  Uiso   1.00
C95    C     0.60483   0.52330   0.94868   0.00000  Uiso   1.00
C96    C     0.53131   0.57972   0.86423   0.00000  Uiso   1.00
C97    C     0.45652   0.68123   0.79415   0.00000  Uiso   1.00
C98    C     0.47642   0.36601   0.80981   0.00000  Uiso   1.00
C99    C     0.48887   0.32682   0.89773   0.00000  Uiso   1.00
C100   C     0.36231   0.29338   0.78997   0.00000  Uiso   1.00
C101   C     0.18974   0.22915   0.67690   0.00000  Uiso   1.00
C102   C     0.61707   0.38875   0.81780   0.00000  Uiso   1.00
C103   C     0.74776   0.36866   0.91242   0.00000  Uiso   1.00
C104   C     0.73961   0.35434   0.81139   0.00000  Uiso   1.00
C105   C     0.78542   0.32541   0.71073   0.00000  Uiso   1.00
C106   C     0.35382   0.41711   0.55342   0.00000  Uiso   1.00
C107   C     0.40532   0.47833   0.64863   0.00000  Uiso   1.00
C108   C     0.33168   0.53468   0.56399   0.00000  Uiso   1.00
C109   C     0.39697   0.58532   0.67504   0.00000  Uiso   1.00
C110   C     0.34233   0.37160   0.62096   0.00000  Uiso   1.00
C111   C     0.21572   0.33820   0.51304   0.00000  Uiso   1.00
C112   C     0.22797   0.29898   0.60077   0.00000  Uiso   1.00
C113   C     0.48297   0.39434   0.62894   0.00000  Uiso   1.00
C114   C     0.47461   0.38004   0.52774   0.00000  Uiso   1.00
C115   C     0.60527   0.35994   0.62219   0.00000  Uiso   1.00
H116   H     0.70510   0.40247   0.04815   0.00000  Uiso   1.00
H117   H     0.70861   0.51896   0.09483   0.00000  Uiso   1.00
H118   H     0.59266   0.32251   0.04387   0.00000  Uiso   1.00
H119   H     0.85151   0.36434   0.05857   0.00000  Uiso   1.00
H120   H     0.65332   0.65057   0.06329   0.00000  Uiso   1.00
H121   H     0.40887   0.23632   0.95585   0.00000  Uiso   1.00
H122   H     0.95471   0.32453   0.98684   0.00000  Uiso   1.00
H123   H     0.24941   0.42145   0.40638   0.00000  Uiso   1.00
H124   H     0.22791   0.53899   0.41784   0.00000  Uiso   1.00
H125   H     0.11197   0.34254   0.36690   0.00000  Uiso   1.00
H126   H     0.37082   0.38437   0.38159   0.00000  Uiso   1.00
H127   H     0.26317   0.66683   0.51382   0.00000  Uiso   1.00
H128   H     0.01872   0.25258   0.40639   0.00000  Uiso   1.00
H129   H     0.56456   0.34079   0.43738   0.00000  Uiso   1.00
O130   O     0.45230   0.73567   0.80767   0.00000  Uiso   1.00
O131   O     0.13159   0.19219   0.66672   0.00000  Uiso   1.00
O132   O     0.84773   0.30792   0.70738   0.00000  Uiso   1.00
N133   N     0.56447   0.63827   0.93240   0.00000  Uiso   1.00
N134   N     0.33591   0.25098   0.83195   0.00000  Uiso   1.00
N135   N     0.84622   0.33343   0.86092   0.00000  Uiso   1.00
N136   N     0.35453   0.64702   0.63674   0.00000  Uiso   1.00
N137   N     0.12597   0.25973   0.53629   0.00000  Uiso   1.00
N138   N     0.63628   0.34218   0.56526   0.00000  Uiso   1.00
C139   C     0.39930   0.90682   0.59888   0.00000  Uiso   1.00
C140   C     0.46057   0.97275   0.66251   0.00000  Uiso   1.00
C141   C     0.39517   0.02330   0.55132   0.00000  Uiso   1.00
C142   C     0.46869   0.07972   0.63577   0.00000  Uiso   1.00
C143   C     0.54348   0.18123   0.70585   0.00000  Uiso   1.00
C144   C     0.52358   0.86601   0.69019   0.00000  Uiso   1.00
C145   C     0.51113   0.82682   0.60227   0.00000  Uiso   1.00
C146   C     0.63769   0.79338   0.71003   0.00000  Uiso   1.00
C147   C     0.81026   0.72915   0.82310   0.00000  Uiso   1.00
C148   C     0.38293   0.88875   0.68220   0.00000  Uiso   1.00
C149   C     0.25224   0.86866   0.58758   0.00000  Uiso   1.00
C150   C     0.26039   0.85434   0.68861   0.00000  Uiso   1.00
C151   C     0.21458   0.82541   0.78927   0.00000  Uiso   1.00
C152   C     0.64618   0.91711   0.94658   0.00000  Uiso   1.00
C153   C     0.59468   0.97833   0.85137   0.00000  Uiso   1.00
C154   C     0.66832   0.03468   0.93601   0.00000  Uiso   1.00
C155   C     0.60303   0.08532   0.82496   0.00000  Uiso   1.00
C156   C     0.65767   0.87160   0.87904   0.00000  Uiso   1.00
C157   C     0.78428   0.83820   0.98696   0.00000  Uiso   1.00
C158   C     0.77203   0.79898   0.89923   0.00000  Uiso   1.00
C159   C     0.51703   0.89434   0.87106   0.00000  Uiso   1.00
C160   C     0.52539   0.88004   0.97226   0.00000  Uiso   1.00
C161   C     0.39473   0.85994   0.87781   0.00000  Uiso   1.00
H162   H     0.29490   0.90247   0.45185   0.00000  Uiso   1.00
H163   H     0.29139   0.01896   0.40517   0.00000  Uiso   1.00
H164   H     0.40734   0.82251   0.45613   0.00000  Uiso   1.00
H165   H     0.14849   0.86434   0.44143   0.00000  Uiso   1.00
H166   H     0.34668   0.15057   0.43671   0.00000  Uiso   1.00
H167   H     0.59113   0.73632   0.54415   0.00000  Uiso   1.00
H168   H     0.04529   0.82453   0.51316   0.00000  Uiso   1.00
H169   H     0.75059   0.92145   0.09362   0.00000  Uiso   1.00
H170   H     0.77209   0.03899   0.08216   0.00000  Uiso   1.00
H171   H     0.88803   0.84254   0.13310   0.00000  Uiso   1.00
H172   H     0.62918   0.88437   0.11841   0.00000  Uiso   1.00
H173   H     0.73683   0.16683   0.98618   0.00000  Uiso   1.00
H174   H     0.98128   0.75258   0.09361   0.00000  Uiso   1.00
H175   H     0.43544   0.84079   0.06262   0.00000  Uiso   1.00
O176   O     0.54770   0.23567   0.69233   0.00000  Uiso   1.00
O177   O     0.86841   0.69219   0.83328   0.00000  Uiso   1.00
O178   O     0.15227   0.80792   0.79262   0.00000  Uiso   1.00
N179   N     0.43553   0.13827   0.56760   0.00000  Uiso   1.00
N180   N     0.66409   0.75098   0.66805   0.00000  Uiso   1.00
N181   N     0.15378   0.83343   0.63908   0.00000  Uiso   1.00
N182   N     0.64547   0.14702   0.86326   0.00000  Uiso   1.00
N183   N     0.87403   0.75973   0.96371   0.00000  Uiso   1.00
N184   N     0.36372   0.84218   0.93474   0.00000  Uiso   1.00
