data_job_05518
_audit_creation_date              2018-12-19
_audit_creation_method            'Materials Studio'
_symmetry_space_group_name_H-M    'P1'
_symmetry_Int_Tables_number       1
_symmetry_cell_setting            triclinic
loop_
_symmetry_equiv_pos_as_xyz
  x,y,z
_cell_length_a                    15.7541
_cell_length_b                    17.1354
_cell_length_c                    18.1414
_cell_angle_alpha                 90.0000
_cell_angle_beta                  90.0000
_cell_angle_gamma                 90.0000
loop_
_atom_site_label
_atom_site_type_symbol
_atom_site_fract_x
_atom_site_fract_y
_atom_site_fract_z
_atom_site_U_iso_or_equiv
_atom_site_adp_type
_atom_site_occupancy
C1     C     0.26468   0.88741   0.93771   0.00000  Uiso   1.00
C2     C     0.31007   0.96598   0.93992   0.00000  Uiso   1.00
C3     C     0.36040   0.99317   0.99721   0.00000  Uiso   1.00
C4     C     0.39631   0.06661   0.98868   0.00000  Uiso   1.00
C5     C     0.46888   0.18184   0.00180   0.00000  Uiso   1.00
C6     C     0.17104   0.90569   0.92522   0.00000  Uiso   1.00
C7     C     0.10448   0.88218   0.97015   0.00000  Uiso   1.00
C8     C     0.02337   0.90486   0.94924   0.00000  Uiso   1.00
C9     C     0.88009   0.92643   0.93951   0.00000  Uiso   1.00
C10    C     0.29530   0.84681   0.86780   0.00000  Uiso   1.00
C11    C     0.33320   0.77378   0.86444   0.00000  Uiso   1.00
C12    C     0.35669   0.74687   0.79519   0.00000  Uiso   1.00
C13    C     0.40634   0.67703   0.69631   0.00000  Uiso   1.00
C14    C     0.23898   0.96947   0.82069   0.00000  Uiso   1.00
C15    C     0.29610   0.01055   0.87636   0.00000  Uiso   1.00
C16    C     0.33196   0.08397   0.86774   0.00000  Uiso   1.00
C17    C     0.38233   0.11126   0.92501   0.00000  Uiso   1.00
C18    C     0.15708   0.95026   0.86166   0.00000  Uiso   1.00
C19    C     0.07605   0.97297   0.84068   0.00000  Uiso   1.00
C20    C     0.00938   0.94951   0.88557   0.00000  Uiso   1.00
C21    C     0.28134   0.89138   0.80424   0.00000  Uiso   1.00
C22    C     0.30477   0.86458   0.73498   0.00000  Uiso   1.00
C23    C     0.34270   0.79153   0.73152   0.00000  Uiso   1.00
H24    H     0.27554   0.85271   0.98719   0.00000  Uiso   1.00
H25    H     0.37118   0.95866   0.04639   0.00000  Uiso   1.00
H26    H     0.11530   0.84768   0.01932   0.00000  Uiso   1.00
H27    H     0.34399   0.73931   0.91364   0.00000  Uiso   1.00
H28    H     0.47103   0.09580   0.08400   0.00000  Uiso   1.00
H29    H     0.93150   0.86177   0.02692   0.00000  Uiso   1.00
H30    H     0.41373   0.63323   0.80407   0.00000  Uiso   1.00
H31    H     0.22811   0.00418   0.77121   0.00000  Uiso   1.00
H32    H     0.32115   0.11845   0.81855   0.00000  Uiso   1.00
H33    H     0.06527   0.00746   0.79149   0.00000  Uiso   1.00
H34    H     0.29396   0.89908   0.68581   0.00000  Uiso   1.00
H35    H     0.43041   0.22549   0.89908   0.00000  Uiso   1.00
H36    H     0.89089   0.99145   0.84200   0.00000  Uiso   1.00
H37    H     0.37312   0.76291   0.61915   0.00000  Uiso   1.00
O38    O     0.51276   0.23309   0.02660   0.00000  Uiso   1.00
O39    O     0.80492   0.92603   0.95170   0.00000  Uiso   1.00
O40    O     0.43760   0.62620   0.65932   0.00000  Uiso   1.00
N41    N     0.44871   0.11064   0.03398   0.00000  Uiso   1.00
N42    N     0.94429   0.89184   0.98062   0.00000  Uiso   1.00
N43    N     0.39511   0.67816   0.77227   0.00000  Uiso   1.00
N44    N     0.42686   0.18042   0.93447   0.00000  Uiso   1.00
N45    N     0.92244   0.96162   0.88112   0.00000  Uiso   1.00
N46    N     0.37326   0.74795   0.67276   0.00000  Uiso   1.00
C47    C     0.23532   0.61259   0.43771   0.00000  Uiso   1.00
C48    C     0.18993   0.53402   0.43992   0.00000  Uiso   1.00
C49    C     0.13960   0.50683   0.49721   0.00000  Uiso   1.00
C50    C     0.10369   0.43339   0.48868   0.00000  Uiso   1.00
C51    C     0.03112   0.31816   0.50180   0.00000  Uiso   1.00
C52    C     0.32896   0.59431   0.42522   0.00000  Uiso   1.00
C53    C     0.39552   0.61782   0.47015   0.00000  Uiso   1.00
C54    C     0.47663   0.59514   0.44924   0.00000  Uiso   1.00
C55    C     0.61991   0.57357   0.43951   0.00000  Uiso   1.00
C56    C     0.20470   0.65319   0.36780   0.00000  Uiso   1.00
C57    C     0.16680   0.72622   0.36444   0.00000  Uiso   1.00
C58    C     0.14331   0.75313   0.29519   0.00000  Uiso   1.00
C59    C     0.09366   0.82297   0.19631   0.00000  Uiso   1.00
C60    C     0.26102   0.53053   0.32069   0.00000  Uiso   1.00
C61    C     0.20390   0.48945   0.37636   0.00000  Uiso   1.00
C62    C     0.16804   0.41603   0.36774   0.00000  Uiso   1.00
C63    C     0.11767   0.38874   0.42501   0.00000  Uiso   1.00
C64    C     0.34292   0.54974   0.36166   0.00000  Uiso   1.00
C65    C     0.42395   0.52703   0.34068   0.00000  Uiso   1.00
C66    C     0.49062   0.55049   0.38557   0.00000  Uiso   1.00
C67    C     0.21866   0.60862   0.30424   0.00000  Uiso   1.00
C68    C     0.19523   0.63542   0.23498   0.00000  Uiso   1.00
C69    C     0.15730   0.70847   0.23152   0.00000  Uiso   1.00
H70    H     0.22446   0.64729   0.48719   0.00000  Uiso   1.00
H71    H     0.12882   0.54134   0.54639   0.00000  Uiso   1.00
H72    H     0.38470   0.65232   0.51932   0.00000  Uiso   1.00
H73    H     0.15601   0.76069   0.41364   0.00000  Uiso   1.00
H74    H     0.02897   0.40420   0.58400   0.00000  Uiso   1.00
H75    H     0.56850   0.63823   0.52692   0.00000  Uiso   1.00
H76    H     0.08627   0.86677   0.30407   0.00000  Uiso   1.00
H77    H     0.27189   0.49582   0.27121   0.00000  Uiso   1.00
H78    H     0.17885   0.38155   0.31855   0.00000  Uiso   1.00
H79    H     0.43473   0.49254   0.29149   0.00000  Uiso   1.00
H80    H     0.20604   0.60092   0.18581   0.00000  Uiso   1.00
H81    H     0.06959   0.27451   0.39908   0.00000  Uiso   1.00
H82    H     0.60911   0.50855   0.34200   0.00000  Uiso   1.00
H83    H     0.12688   0.73709   0.11915   0.00000  Uiso   1.00
O84    O     0.98724   0.26691   0.52660   0.00000  Uiso   1.00
O85    O     0.69508   0.57397   0.45170   0.00000  Uiso   1.00
O86    O     0.06240   0.87380   0.15932   0.00000  Uiso   1.00
N87    N     0.05129   0.38936   0.53398   0.00000  Uiso   1.00
N88    N     0.55571   0.60816   0.48062   0.00000  Uiso   1.00
N89    N     0.10489   0.82184   0.27227   0.00000  Uiso   1.00
N90    N     0.07314   0.31958   0.43447   0.00000  Uiso   1.00
N91    N     0.57756   0.53838   0.38112   0.00000  Uiso   1.00
N92    N     0.12674   0.75205   0.17276   0.00000  Uiso   1.00
C93    C     0.73532   0.88741   0.56229   0.00000  Uiso   1.00
C94    C     0.68993   0.96598   0.56008   0.00000  Uiso   1.00
C95    C     0.63960   0.99317   0.50279   0.00000  Uiso   1.00
C96    C     0.60369   0.06661   0.51132   0.00000  Uiso   1.00
C97    C     0.53112   0.18184   0.49820   0.00000  Uiso   1.00
C98    C     0.82896   0.90569   0.57478   0.00000  Uiso   1.00
C99    C     0.89552   0.88218   0.52985   0.00000  Uiso   1.00
C100   C     0.97663   0.90486   0.55076   0.00000  Uiso   1.00
C101   C     0.11991   0.92643   0.56049   0.00000  Uiso   1.00
C102   C     0.70470   0.84681   0.63220   0.00000  Uiso   1.00
C103   C     0.66680   0.77378   0.63556   0.00000  Uiso   1.00
C104   C     0.64331   0.74687   0.70481   0.00000  Uiso   1.00
C105   C     0.59366   0.67703   0.80369   0.00000  Uiso   1.00
C106   C     0.76102   0.96947   0.67931   0.00000  Uiso   1.00
C107   C     0.70390   0.01055   0.62364   0.00000  Uiso   1.00
C108   C     0.66804   0.08397   0.63226   0.00000  Uiso   1.00
C109   C     0.61767   0.11126   0.57499   0.00000  Uiso   1.00
C110   C     0.84292   0.95026   0.63834   0.00000  Uiso   1.00
C111   C     0.92395   0.97297   0.65932   0.00000  Uiso   1.00
C112   C     0.99062   0.94951   0.61443   0.00000  Uiso   1.00
C113   C     0.71866   0.89138   0.69576   0.00000  Uiso   1.00
C114   C     0.69523   0.86458   0.76502   0.00000  Uiso   1.00
C115   C     0.65730   0.79153   0.76848   0.00000  Uiso   1.00
H116   H     0.72446   0.85271   0.51281   0.00000  Uiso   1.00
H117   H     0.62882   0.95866   0.45361   0.00000  Uiso   1.00
H118   H     0.88470   0.84768   0.48068   0.00000  Uiso   1.00
H119   H     0.65601   0.73931   0.58636   0.00000  Uiso   1.00
H120   H     0.52897   0.09580   0.41600   0.00000  Uiso   1.00
H121   H     0.06850   0.86177   0.47308   0.00000  Uiso   1.00
H122   H     0.58627   0.63323   0.69593   0.00000  Uiso   1.00
H123   H     0.77189   0.00418   0.72879   0.00000  Uiso   1.00
H124   H     0.67885   0.11845   0.68145   0.00000  Uiso   1.00
H125   H     0.93473   0.00746   0.70851   0.00000  Uiso   1.00
H126   H     0.70604   0.89908   0.81419   0.00000  Uiso   1.00
H127   H     0.56959   0.22549   0.60092   0.00000  Uiso   1.00
H128   H     0.10911   0.99145   0.65800   0.00000  Uiso   1.00
H129   H     0.62688   0.76291   0.88085   0.00000  Uiso   1.00
O130   O     0.48724   0.23309   0.47340   0.00000  Uiso   1.00
O131   O     0.19508   0.92603   0.54830   0.00000  Uiso   1.00
O132   O     0.56240   0.62620   0.84068   0.00000  Uiso   1.00
N133   N     0.55129   0.11064   0.46602   0.00000  Uiso   1.00
N134   N     0.05571   0.89184   0.51938   0.00000  Uiso   1.00
N135   N     0.60489   0.67816   0.72773   0.00000  Uiso   1.00
N136   N     0.57314   0.18042   0.56553   0.00000  Uiso   1.00
N137   N     0.07756   0.96162   0.61888   0.00000  Uiso   1.00
N138   N     0.62674   0.74795   0.82724   0.00000  Uiso   1.00
C139   C     0.76468   0.61259   0.06229   0.00000  Uiso   1.00
C140   C     0.81007   0.53402   0.06008   0.00000  Uiso   1.00
C141   C     0.86040   0.50683   0.00279   0.00000  Uiso   1.00
C142   C     0.89631   0.43339   0.01132   0.00000  Uiso   1.00
C143   C     0.96888   0.31816   0.99820   0.00000  Uiso   1.00
C144   C     0.67104   0.59431   0.07478   0.00000  Uiso   1.00
C145   C     0.60448   0.61782   0.02985   0.00000  Uiso   1.00
C146   C     0.52337   0.59514   0.05076   0.00000  Uiso   1.00
C147   C     0.38009   0.57357   0.06049   0.00000  Uiso   1.00
C148   C     0.79530   0.65319   0.13220   0.00000  Uiso   1.00
C149   C     0.83320   0.72622   0.13556   0.00000  Uiso   1.00
C150   C     0.85669   0.75313   0.20481   0.00000  Uiso   1.00
C151   C     0.90634   0.82297   0.30369   0.00000  Uiso   1.00
C152   C     0.73898   0.53053   0.17931   0.00000  Uiso   1.00
C153   C     0.79610   0.48945   0.12364   0.00000  Uiso   1.00
C154   C     0.83196   0.41603   0.13226   0.00000  Uiso   1.00
C155   C     0.88233   0.38874   0.07499   0.00000  Uiso   1.00
C156   C     0.65708   0.54974   0.13834   0.00000  Uiso   1.00
C157   C     0.57605   0.52703   0.15932   0.00000  Uiso   1.00
C158   C     0.50938   0.55049   0.11443   0.00000  Uiso   1.00
C159   C     0.78134   0.60862   0.19576   0.00000  Uiso   1.00
C160   C     0.80477   0.63542   0.26502   0.00000  Uiso   1.00
C161   C     0.84270   0.70847   0.26848   0.00000  Uiso   1.00
H162   H     0.77554   0.64729   0.01281   0.00000  Uiso   1.00
H163   H     0.87118   0.54134   0.95361   0.00000  Uiso   1.00
H164   H     0.61530   0.65232   0.98068   0.00000  Uiso   1.00
H165   H     0.84399   0.76069   0.08636   0.00000  Uiso   1.00
H166   H     0.97103   0.40420   0.91600   0.00000  Uiso   1.00
H167   H     0.43150   0.63823   0.97308   0.00000  Uiso   1.00
H168   H     0.91373   0.86677   0.19593   0.00000  Uiso   1.00
H169   H     0.72811   0.49582   0.22879   0.00000  Uiso   1.00
H170   H     0.82115   0.38155   0.18145   0.00000  Uiso   1.00
H171   H     0.56527   0.49254   0.20851   0.00000  Uiso   1.00
H172   H     0.79396   0.60092   0.31419   0.00000  Uiso   1.00
H173   H     0.93041   0.27451   0.10092   0.00000  Uiso   1.00
H174   H     0.39089   0.50855   0.15800   0.00000  Uiso   1.00
H175   H     0.87312   0.73709   0.38085   0.00000  Uiso   1.00
O176   O     0.01276   0.26691   0.97340   0.00000  Uiso   1.00
O177   O     0.30492   0.57397   0.04830   0.00000  Uiso   1.00
O178   O     0.93760   0.87380   0.34068   0.00000  Uiso   1.00
N179   N     0.94871   0.38936   0.96602   0.00000  Uiso   1.00
N180   N     0.44429   0.60816   0.01938   0.00000  Uiso   1.00
N181   N     0.89511   0.82184   0.22773   0.00000  Uiso   1.00
N182   N     0.92686   0.31958   0.06553   0.00000  Uiso   1.00
N183   N     0.42244   0.53838   0.11888   0.00000  Uiso   1.00
N184   N     0.87326   0.75205   0.32724   0.00000  Uiso   1.00
C185   C     0.73532   0.11259   0.06229   0.00000  Uiso   1.00
C186   C     0.68993   0.03402   0.06008   0.00000  Uiso   1.00
C187   C     0.63960   0.00683   0.00279   0.00000  Uiso   1.00
C188   C     0.60369   0.93339   0.01132   0.00000  Uiso   1.00
C189   C     0.53112   0.81816   0.99820   0.00000  Uiso   1.00
C190   C     0.82896   0.09431   0.07478   0.00000  Uiso   1.00
C191   C     0.89552   0.11782   0.02985   0.00000  Uiso   1.00
C192   C     0.97663   0.09514   0.05076   0.00000  Uiso   1.00
C193   C     0.11991   0.07357   0.06049   0.00000  Uiso   1.00
C194   C     0.70470   0.15319   0.13220   0.00000  Uiso   1.00
C195   C     0.66680   0.22622   0.13556   0.00000  Uiso   1.00
C196   C     0.64331   0.25313   0.20481   0.00000  Uiso   1.00
C197   C     0.59366   0.32297   0.30369   0.00000  Uiso   1.00
C198   C     0.76102   0.03053   0.17931   0.00000  Uiso   1.00
C199   C     0.70390   0.98945   0.12364   0.00000  Uiso   1.00
C200   C     0.66804   0.91603   0.13226   0.00000  Uiso   1.00
C201   C     0.61767   0.88874   0.07499   0.00000  Uiso   1.00
C202   C     0.84292   0.04974   0.13834   0.00000  Uiso   1.00
C203   C     0.92395   0.02703   0.15932   0.00000  Uiso   1.00
C204   C     0.99062   0.05049   0.11443   0.00000  Uiso   1.00
C205   C     0.71866   0.10862   0.19576   0.00000  Uiso   1.00
C206   C     0.69523   0.13542   0.26502   0.00000  Uiso   1.00
C207   C     0.65730   0.20847   0.26848   0.00000  Uiso   1.00
H208   H     0.72446   0.14729   0.01281   0.00000  Uiso   1.00
H209   H     0.62882   0.04134   0.95361   0.00000  Uiso   1.00
H210   H     0.88470   0.15232   0.98068   0.00000  Uiso   1.00
H211   H     0.65601   0.26069   0.08636   0.00000  Uiso   1.00
H212   H     0.52897   0.90420   0.91600   0.00000  Uiso   1.00
H213   H     0.06850   0.13823   0.97308   0.00000  Uiso   1.00
H214   H     0.58627   0.36677   0.19593   0.00000  Uiso   1.00
H215   H     0.77189   0.99582   0.22879   0.00000  Uiso   1.00
H216   H     0.67885   0.88155   0.18145   0.00000  Uiso   1.00
H217   H     0.93473   0.99254   0.20851   0.00000  Uiso   1.00
H218   H     0.70604   0.10092   0.31419   0.00000  Uiso   1.00
H219   H     0.56959   0.77451   0.10092   0.00000  Uiso   1.00
H220   H     0.10911   0.00855   0.15800   0.00000  Uiso   1.00
H221   H     0.62688   0.23709   0.38085   0.00000  Uiso   1.00
O222   O     0.48724   0.76691   0.97340   0.00000  Uiso   1.00
O223   O     0.19508   0.07397   0.04830   0.00000  Uiso   1.00
O224   O     0.56240   0.37380   0.34068   0.00000  Uiso   1.00
N225   N     0.55129   0.88936   0.96602   0.00000  Uiso   1.00
N226   N     0.05571   0.10816   0.01938   0.00000  Uiso   1.00
N227   N     0.60489   0.32184   0.22773   0.00000  Uiso   1.00
N228   N     0.57314   0.81958   0.06553   0.00000  Uiso   1.00
N229   N     0.07756   0.03838   0.11888   0.00000  Uiso   1.00
N230   N     0.62674   0.25205   0.32724   0.00000  Uiso   1.00
C231   C     0.76468   0.38741   0.56229   0.00000  Uiso   1.00
C232   C     0.81007   0.46598   0.56008   0.00000  Uiso   1.00
C233   C     0.86040   0.49317   0.50279   0.00000  Uiso   1.00
C234   C     0.89631   0.56661   0.51132   0.00000  Uiso   1.00
C235   C     0.96888   0.68184   0.49820   0.00000  Uiso   1.00
C236   C     0.67104   0.40569   0.57478   0.00000  Uiso   1.00
C237   C     0.60448   0.38218   0.52985   0.00000  Uiso   1.00
C238   C     0.52337   0.40486   0.55076   0.00000  Uiso   1.00
C239   C     0.38009   0.42643   0.56049   0.00000  Uiso   1.00
C240   C     0.79530   0.34681   0.63220   0.00000  Uiso   1.00
C241   C     0.83320   0.27378   0.63556   0.00000  Uiso   1.00
C242   C     0.85669   0.24687   0.70481   0.00000  Uiso   1.00
C243   C     0.90634   0.17703   0.80369   0.00000  Uiso   1.00
C244   C     0.73898   0.46947   0.67931   0.00000  Uiso   1.00
C245   C     0.79610   0.51055   0.62364   0.00000  Uiso   1.00
C246   C     0.83196   0.58397   0.63226   0.00000  Uiso   1.00
C247   C     0.88233   0.61126   0.57499   0.00000  Uiso   1.00
C248   C     0.65708   0.45026   0.63834   0.00000  Uiso   1.00
C249   C     0.57605   0.47297   0.65932   0.00000  Uiso   1.00
C250   C     0.50938   0.44951   0.61443   0.00000  Uiso   1.00
C251   C     0.78134   0.39138   0.69576   0.00000  Uiso   1.00
C252   C     0.80477   0.36458   0.76502   0.00000  Uiso   1.00
C253   C     0.84270   0.29153   0.76848   0.00000  Uiso   1.00
H254   H     0.77554   0.35271   0.51281   0.00000  Uiso   1.00
H255   H     0.87118   0.45866   0.45361   0.00000  Uiso   1.00
H256   H     0.61530   0.34768   0.48068   0.00000  Uiso   1.00
H257   H     0.84399   0.23931   0.58636   0.00000  Uiso   1.00
H258   H     0.97103   0.59580   0.41600   0.00000  Uiso   1.00
H259   H     0.43150   0.36177   0.47308   0.00000  Uiso   1.00
H260   H     0.91373   0.13323   0.69593   0.00000  Uiso   1.00
H261   H     0.72811   0.50418   0.72879   0.00000  Uiso   1.00
H262   H     0.82115   0.61845   0.68145   0.00000  Uiso   1.00
H263   H     0.56527   0.50746   0.70851   0.00000  Uiso   1.00
H264   H     0.79396   0.39908   0.81419   0.00000  Uiso   1.00
H265   H     0.93041   0.72549   0.60092   0.00000  Uiso   1.00
H266   H     0.39089   0.49145   0.65800   0.00000  Uiso   1.00
H267   H     0.87312   0.26291   0.88085   0.00000  Uiso   1.00
O268   O     0.01276   0.73309   0.47340   0.00000  Uiso   1.00
O269   O     0.30492   0.42603   0.54830   0.00000  Uiso   1.00
O270   O     0.93760   0.12620   0.84068   0.00000  Uiso   1.00
N271   N     0.94871   0.61064   0.46602   0.00000  Uiso   1.00
N272   N     0.44429   0.39184   0.51938   0.00000  Uiso   1.00
N273   N     0.89511   0.17816   0.72773   0.00000  Uiso   1.00
N274   N     0.92686   0.68042   0.56553   0.00000  Uiso   1.00
N275   N     0.42244   0.46162   0.61888   0.00000  Uiso   1.00
N276   N     0.87326   0.24795   0.82724   0.00000  Uiso   1.00
C277   C     0.26468   0.11259   0.43771   0.00000  Uiso   1.00
C278   C     0.31007   0.03402   0.43992   0.00000  Uiso   1.00
C279   C     0.36040   0.00683   0.49721   0.00000  Uiso   1.00
C280   C     0.39631   0.93339   0.48868   0.00000  Uiso   1.00
C281   C     0.46888   0.81816   0.50180   0.00000  Uiso   1.00
C282   C     0.17104   0.09431   0.42522   0.00000  Uiso   1.00
C283   C     0.10448   0.11782   0.47015   0.00000  Uiso   1.00
C284   C     0.02337   0.09514   0.44924   0.00000  Uiso   1.00
C285   C     0.88009   0.07357   0.43951   0.00000  Uiso   1.00
C286   C     0.29530   0.15319   0.36780   0.00000  Uiso   1.00
C287   C     0.33320   0.22622   0.36444   0.00000  Uiso   1.00
C288   C     0.35669   0.25313   0.29519   0.00000  Uiso   1.00
C289   C     0.40634   0.32297   0.19631   0.00000  Uiso   1.00
C290   C     0.23898   0.03053   0.32069   0.00000  Uiso   1.00
C291   C     0.29610   0.98945   0.37636   0.00000  Uiso   1.00
C292   C     0.33196   0.91603   0.36774   0.00000  Uiso   1.00
C293   C     0.38233   0.88874   0.42501   0.00000  Uiso   1.00
C294   C     0.15708   0.04974   0.36166   0.00000  Uiso   1.00
C295   C     0.07605   0.02703   0.34068   0.00000  Uiso   1.00
C296   C     0.00938   0.05049   0.38557   0.00000  Uiso   1.00
C297   C     0.28134   0.10862   0.30424   0.00000  Uiso   1.00
C298   C     0.30477   0.13542   0.23498   0.00000  Uiso   1.00
C299   C     0.34270   0.20847   0.23152   0.00000  Uiso   1.00
H300   H     0.27554   0.14729   0.48719   0.00000  Uiso   1.00
H301   H     0.37118   0.04134   0.54639   0.00000  Uiso   1.00
H302   H     0.11530   0.15232   0.51932   0.00000  Uiso   1.00
H303   H     0.34399   0.26069   0.41364   0.00000  Uiso   1.00
H304   H     0.47103   0.90420   0.58400   0.00000  Uiso   1.00
H305   H     0.93150   0.13823   0.52692   0.00000  Uiso   1.00
H306   H     0.41373   0.36677   0.30407   0.00000  Uiso   1.00
H307   H     0.22811   0.99582   0.27121   0.00000  Uiso   1.00
H308   H     0.32115   0.88155   0.31855   0.00000  Uiso   1.00
H309   H     0.06527   0.99254   0.29149   0.00000  Uiso   1.00
H310   H     0.29396   0.10092   0.18581   0.00000  Uiso   1.00
H311   H     0.43041   0.77451   0.39908   0.00000  Uiso   1.00
H312   H     0.89089   0.00855   0.34200   0.00000  Uiso   1.00
H313   H     0.37312   0.23709   0.11915   0.00000  Uiso   1.00
O314   O     0.51276   0.76691   0.52660   0.00000  Uiso   1.00
O315   O     0.80492   0.07397   0.45170   0.00000  Uiso   1.00
O316   O     0.43760   0.37380   0.15932   0.00000  Uiso   1.00
N317   N     0.44871   0.88936   0.53398   0.00000  Uiso   1.00
N318   N     0.94429   0.10816   0.48062   0.00000  Uiso   1.00
N319   N     0.39511   0.32184   0.27227   0.00000  Uiso   1.00
N320   N     0.42686   0.81958   0.43447   0.00000  Uiso   1.00
N321   N     0.92244   0.03838   0.38112   0.00000  Uiso   1.00
N322   N     0.37326   0.25205   0.17276   0.00000  Uiso   1.00
C323   C     0.23532   0.38741   0.93771   0.00000  Uiso   1.00
C324   C     0.18993   0.46598   0.93992   0.00000  Uiso   1.00
C325   C     0.13960   0.49317   0.99721   0.00000  Uiso   1.00
C326   C     0.10369   0.56661   0.98868   0.00000  Uiso   1.00
C327   C     0.03112   0.68184   0.00180   0.00000  Uiso   1.00
C328   C     0.32896   0.40569   0.92522   0.00000  Uiso   1.00
C329   C     0.39552   0.38218   0.97015   0.00000  Uiso   1.00
C330   C     0.47663   0.40486   0.94924   0.00000  Uiso   1.00
C331   C     0.61991   0.42643   0.93951   0.00000  Uiso   1.00
C332   C     0.20470   0.34681   0.86780   0.00000  Uiso   1.00
C333   C     0.16680   0.27378   0.86444   0.00000  Uiso   1.00
C334   C     0.14331   0.24687   0.79519   0.00000  Uiso   1.00
C335   C     0.09366   0.17703   0.69631   0.00000  Uiso   1.00
C336   C     0.26102   0.46947   0.82069   0.00000  Uiso   1.00
C337   C     0.20390   0.51055   0.87636   0.00000  Uiso   1.00
C338   C     0.16804   0.58397   0.86774   0.00000  Uiso   1.00
C339   C     0.11767   0.61126   0.92501   0.00000  Uiso   1.00
C340   C     0.34292   0.45026   0.86166   0.00000  Uiso   1.00
C341   C     0.42395   0.47297   0.84068   0.00000  Uiso   1.00
C342   C     0.49062   0.44951   0.88557   0.00000  Uiso   1.00
C343   C     0.21866   0.39138   0.80424   0.00000  Uiso   1.00
C344   C     0.19523   0.36458   0.73498   0.00000  Uiso   1.00
C345   C     0.15730   0.29153   0.73152   0.00000  Uiso   1.00
H346   H     0.22446   0.35271   0.98719   0.00000  Uiso   1.00
H347   H     0.12882   0.45866   0.04639   0.00000  Uiso   1.00
H348   H     0.38470   0.34768   0.01932   0.00000  Uiso   1.00
H349   H     0.15601   0.23931   0.91364   0.00000  Uiso   1.00
H350   H     0.02897   0.59580   0.08400   0.00000  Uiso   1.00
H351   H     0.56850   0.36177   0.02692   0.00000  Uiso   1.00
H352   H     0.08627   0.13323   0.80407   0.00000  Uiso   1.00
H353   H     0.27189   0.50418   0.77121   0.00000  Uiso   1.00
H354   H     0.17885   0.61845   0.81855   0.00000  Uiso   1.00
H355   H     0.43473   0.50746   0.79149   0.00000  Uiso   1.00
H356   H     0.20604   0.39908   0.68581   0.00000  Uiso   1.00
H357   H     0.06959   0.72549   0.89908   0.00000  Uiso   1.00
H358   H     0.60911   0.49145   0.84200   0.00000  Uiso   1.00
H359   H     0.12688   0.26291   0.61915   0.00000  Uiso   1.00
O360   O     0.98724   0.73309   0.02660   0.00000  Uiso   1.00
O361   O     0.69508   0.42603   0.95170   0.00000  Uiso   1.00
O362   O     0.06240   0.12620   0.65932   0.00000  Uiso   1.00
N363   N     0.05129   0.61064   0.03398   0.00000  Uiso   1.00
N364   N     0.55571   0.39184   0.98062   0.00000  Uiso   1.00
N365   N     0.10489   0.17816   0.77227   0.00000  Uiso   1.00
N366   N     0.07314   0.68042   0.93447   0.00000  Uiso   1.00
N367   N     0.57756   0.46162   0.88112   0.00000  Uiso   1.00
N368   N     0.12674   0.24795   0.67276   0.00000  Uiso   1.00
