data_job_00122
_audit_creation_date              2018-12-19
_audit_creation_method            'Materials Studio'
_symmetry_space_group_name_H-M    'P1'
_symmetry_Int_Tables_number       1
_symmetry_cell_setting            triclinic
loop_
_symmetry_equiv_pos_as_xyz
  x,y,z
_cell_length_a                    7.1832
_cell_length_b                    46.4866
_cell_length_c                    40.2644
_cell_angle_alpha                 90.0000
_cell_angle_beta                  90.0000
_cell_angle_gamma                 90.0000
loop_
_atom_site_label
_atom_site_type_symbol
_atom_site_fract_x
_atom_site_fract_y
_atom_site_fract_z
_atom_site_U_iso_or_equiv
_atom_site_adp_type
_atom_site_occupancy
C1     C     0.57048   0.37500   0.08335   0.00000  Uiso   1.00
C2     C     0.65248   0.37500   0.11828   0.00000  Uiso   1.00
C3     C     0.55142   0.37501   0.14766   0.00000  Uiso   1.00
C4     C     0.65232   0.37502   0.17707   0.00000  Uiso   1.00
C5     C     0.75000   0.37504   0.23131   0.00000  Uiso   1.00
C6     C     0.65248   0.40120   0.06588   0.00000  Uiso   1.00
C7     C     0.55141   0.42324   0.05119   0.00000  Uiso   1.00
C8     C     0.65233   0.44530   0.03648   0.00000  Uiso   1.00
C9     C     0.75000   0.48598   0.00935   0.00000  Uiso   1.00
C10    C     0.65245   0.34880   0.06588   0.00000  Uiso   1.00
C11    C     0.55135   0.32677   0.05118   0.00000  Uiso   1.00
C12    C     0.65224   0.30471   0.03647   0.00000  Uiso   1.00
C13    C     0.74985   0.26402   0.00934   0.00000  Uiso   1.00
C14    C     0.92942   0.37500   0.08334   0.00000  Uiso   1.00
C15    C     0.84744   0.37500   0.11828   0.00000  Uiso   1.00
C16    C     0.94854   0.37501   0.14765   0.00000  Uiso   1.00
C17    C     0.84763   0.37501   0.17706   0.00000  Uiso   1.00
C18    C     0.84744   0.40120   0.06588   0.00000  Uiso   1.00
C19    C     0.94853   0.42323   0.05118   0.00000  Uiso   1.00
C20    C     0.84764   0.44530   0.03648   0.00000  Uiso   1.00
C21    C     0.84741   0.34879   0.06588   0.00000  Uiso   1.00
C22    C     0.94847   0.32676   0.05118   0.00000  Uiso   1.00
C23    C     0.84755   0.30471   0.03647   0.00000  Uiso   1.00
H24    H     0.41870   0.37500   0.08335   0.00000  Uiso   1.00
H25    H     0.40054   0.37502   0.14765   0.00000  Uiso   1.00
H26    H     0.40054   0.42323   0.05119   0.00000  Uiso   1.00
H27    H     0.40048   0.32678   0.05119   0.00000  Uiso   1.00
H28    H     0.46639   0.37504   0.21893   0.00000  Uiso   1.00
H29    H     0.46638   0.47670   0.01554   0.00000  Uiso   1.00
H30    H     0.46626   0.27331   0.01554   0.00000  Uiso   1.00
H31    H     0.08121   0.37499   0.08334   0.00000  Uiso   1.00
H32    H     0.09941   0.37500   0.14764   0.00000  Uiso   1.00
H33    H     0.09940   0.42322   0.05119   0.00000  Uiso   1.00
H34    H     0.09934   0.32677   0.05118   0.00000  Uiso   1.00
H35    H     0.03361   0.37503   0.21893   0.00000  Uiso   1.00
H36    H     0.03360   0.47669   0.01554   0.00000  Uiso   1.00
H37    H     0.03348   0.27330   0.01553   0.00000  Uiso   1.00
O38    O     0.75002   0.37505   0.26123   0.00000  Uiso   1.00
O39    O     0.75001   0.50842   0.99438   0.00000  Uiso   1.00
O40    O     0.74984   0.24158   0.99438   0.00000  Uiso   1.00
N41    N     0.59739   0.37503   0.21011   0.00000  Uiso   1.00
N42    N     0.59738   0.47008   0.01996   0.00000  Uiso   1.00
N43    N     0.59726   0.27993   0.01994   0.00000  Uiso   1.00
N44    N     0.90260   0.37502   0.21010   0.00000  Uiso   1.00
N45    N     0.90260   0.47008   0.01995   0.00000  Uiso   1.00
N46    N     0.90248   0.27993   0.01994   0.00000  Uiso   1.00
C47    C     0.92952   0.12500   0.58335   0.00000  Uiso   1.00
C48    C     0.84752   0.12500   0.61828   0.00000  Uiso   1.00
C49    C     0.94858   0.12499   0.64766   0.00000  Uiso   1.00
C50    C     0.84768   0.12498   0.67707   0.00000  Uiso   1.00
C51    C     0.75000   0.12496   0.73131   0.00000  Uiso   1.00
C52    C     0.84752   0.09880   0.56588   0.00000  Uiso   1.00
C53    C     0.94859   0.07676   0.55119   0.00000  Uiso   1.00
C54    C     0.84767   0.05470   0.53648   0.00000  Uiso   1.00
C55    C     0.75000   0.01402   0.50935   0.00000  Uiso   1.00
C56    C     0.84755   0.15120   0.56588   0.00000  Uiso   1.00
C57    C     0.94865   0.17323   0.55118   0.00000  Uiso   1.00
C58    C     0.84776   0.19529   0.53647   0.00000  Uiso   1.00
C59    C     0.75015   0.23598   0.50934   0.00000  Uiso   1.00
C60    C     0.57058   0.12500   0.58334   0.00000  Uiso   1.00
C61    C     0.65256   0.12500   0.61828   0.00000  Uiso   1.00
C62    C     0.55146   0.12499   0.64765   0.00000  Uiso   1.00
C63    C     0.65237   0.12499   0.67706   0.00000  Uiso   1.00
C64    C     0.65256   0.09880   0.56588   0.00000  Uiso   1.00
C65    C     0.55147   0.07677   0.55118   0.00000  Uiso   1.00
C66    C     0.65236   0.05470   0.53648   0.00000  Uiso   1.00
C67    C     0.65259   0.15121   0.56588   0.00000  Uiso   1.00
C68    C     0.55153   0.17324   0.55118   0.00000  Uiso   1.00
C69    C     0.65245   0.19529   0.53647   0.00000  Uiso   1.00
H70    H     0.08130   0.12500   0.58335   0.00000  Uiso   1.00
H71    H     0.09946   0.12498   0.64765   0.00000  Uiso   1.00
H72    H     0.09946   0.07677   0.55119   0.00000  Uiso   1.00
H73    H     0.09952   0.17322   0.55119   0.00000  Uiso   1.00
H74    H     0.03361   0.12496   0.71893   0.00000  Uiso   1.00
H75    H     0.03362   0.02330   0.51554   0.00000  Uiso   1.00
H76    H     0.03374   0.22669   0.51554   0.00000  Uiso   1.00
H77    H     0.41879   0.12501   0.58334   0.00000  Uiso   1.00
H78    H     0.40059   0.12500   0.64764   0.00000  Uiso   1.00
H79    H     0.40060   0.07678   0.55119   0.00000  Uiso   1.00
H80    H     0.40066   0.17323   0.55118   0.00000  Uiso   1.00
H81    H     0.46639   0.12497   0.71893   0.00000  Uiso   1.00
H82    H     0.46640   0.02331   0.51554   0.00000  Uiso   1.00
H83    H     0.46652   0.22670   0.51553   0.00000  Uiso   1.00
O84    O     0.74998   0.12495   0.76123   0.00000  Uiso   1.00
O85    O     0.74999   0.99158   0.49438   0.00000  Uiso   1.00
O86    O     0.75016   0.25842   0.49438   0.00000  Uiso   1.00
N87    N     0.90261   0.12497   0.71011   0.00000  Uiso   1.00
N88    N     0.90262   0.02992   0.51996   0.00000  Uiso   1.00
N89    N     0.90274   0.22007   0.51994   0.00000  Uiso   1.00
N90    N     0.59740   0.12498   0.71010   0.00000  Uiso   1.00
N91    N     0.59740   0.02992   0.51995   0.00000  Uiso   1.00
N92    N     0.59752   0.22007   0.51994   0.00000  Uiso   1.00
C93    C     0.42952   0.37500   0.41665   0.00000  Uiso   1.00
C94    C     0.34752   0.37500   0.38172   0.00000  Uiso   1.00
C95    C     0.44858   0.37501   0.35234   0.00000  Uiso   1.00
C96    C     0.34768   0.37502   0.32293   0.00000  Uiso   1.00
C97    C     0.25000   0.37504   0.26869   0.00000  Uiso   1.00
C98    C     0.34752   0.40120   0.43412   0.00000  Uiso   1.00
C99    C     0.44859   0.42324   0.44881   0.00000  Uiso   1.00
C100   C     0.34767   0.44530   0.46352   0.00000  Uiso   1.00
C101   C     0.25000   0.48598   0.49065   0.00000  Uiso   1.00
C102   C     0.34755   0.34880   0.43412   0.00000  Uiso   1.00
C103   C     0.44865   0.32677   0.44882   0.00000  Uiso   1.00
C104   C     0.34776   0.30471   0.46353   0.00000  Uiso   1.00
C105   C     0.25015   0.26402   0.49066   0.00000  Uiso   1.00
C106   C     0.07058   0.37500   0.41666   0.00000  Uiso   1.00
C107   C     0.15256   0.37500   0.38172   0.00000  Uiso   1.00
C108   C     0.05146   0.37501   0.35235   0.00000  Uiso   1.00
C109   C     0.15237   0.37501   0.32294   0.00000  Uiso   1.00
C110   C     0.15256   0.40120   0.43412   0.00000  Uiso   1.00
C111   C     0.05147   0.42323   0.44882   0.00000  Uiso   1.00
C112   C     0.15236   0.44530   0.46352   0.00000  Uiso   1.00
C113   C     0.15259   0.34879   0.43412   0.00000  Uiso   1.00
C114   C     0.05153   0.32676   0.44882   0.00000  Uiso   1.00
C115   C     0.15245   0.30471   0.46353   0.00000  Uiso   1.00
H116   H     0.58130   0.37500   0.41665   0.00000  Uiso   1.00
H117   H     0.59946   0.37502   0.35235   0.00000  Uiso   1.00
H118   H     0.59946   0.42323   0.44881   0.00000  Uiso   1.00
H119   H     0.59952   0.32678   0.44881   0.00000  Uiso   1.00
H120   H     0.53361   0.37504   0.28107   0.00000  Uiso   1.00
H121   H     0.53362   0.47670   0.48446   0.00000  Uiso   1.00
H122   H     0.53374   0.27331   0.48446   0.00000  Uiso   1.00
H123   H     0.91879   0.37499   0.41666   0.00000  Uiso   1.00
H124   H     0.90059   0.37500   0.35236   0.00000  Uiso   1.00
H125   H     0.90060   0.42322   0.44881   0.00000  Uiso   1.00
H126   H     0.90066   0.32677   0.44882   0.00000  Uiso   1.00
H127   H     0.96639   0.37503   0.28107   0.00000  Uiso   1.00
H128   H     0.96640   0.47669   0.48446   0.00000  Uiso   1.00
H129   H     0.96652   0.27330   0.48447   0.00000  Uiso   1.00
O130   O     0.24998   0.37505   0.23877   0.00000  Uiso   1.00
O131   O     0.24999   0.50842   0.50562   0.00000  Uiso   1.00
O132   O     0.25016   0.24158   0.50562   0.00000  Uiso   1.00
N133   N     0.40261   0.37503   0.28989   0.00000  Uiso   1.00
N134   N     0.40262   0.47008   0.48004   0.00000  Uiso   1.00
N135   N     0.40274   0.27993   0.48006   0.00000  Uiso   1.00
N136   N     0.09740   0.37502   0.28990   0.00000  Uiso   1.00
N137   N     0.09740   0.47008   0.48005   0.00000  Uiso   1.00
N138   N     0.09752   0.27993   0.48006   0.00000  Uiso   1.00
C139   C     0.07048   0.12500   0.91665   0.00000  Uiso   1.00
C140   C     0.15248   0.12500   0.88172   0.00000  Uiso   1.00
C141   C     0.05142   0.12499   0.85234   0.00000  Uiso   1.00
C142   C     0.15232   0.12498   0.82293   0.00000  Uiso   1.00
C143   C     0.25000   0.12496   0.76869   0.00000  Uiso   1.00
C144   C     0.15248   0.09880   0.93412   0.00000  Uiso   1.00
C145   C     0.05141   0.07676   0.94881   0.00000  Uiso   1.00
C146   C     0.15233   0.05470   0.96352   0.00000  Uiso   1.00
C147   C     0.25000   0.01402   0.99065   0.00000  Uiso   1.00
C148   C     0.15245   0.15120   0.93412   0.00000  Uiso   1.00
C149   C     0.05135   0.17323   0.94882   0.00000  Uiso   1.00
C150   C     0.15224   0.19529   0.96353   0.00000  Uiso   1.00
C151   C     0.24985   0.23598   0.99066   0.00000  Uiso   1.00
C152   C     0.42942   0.12500   0.91666   0.00000  Uiso   1.00
C153   C     0.34744   0.12500   0.88172   0.00000  Uiso   1.00
C154   C     0.44854   0.12499   0.85235   0.00000  Uiso   1.00
C155   C     0.34763   0.12499   0.82294   0.00000  Uiso   1.00
C156   C     0.34744   0.09880   0.93412   0.00000  Uiso   1.00
C157   C     0.44853   0.07677   0.94882   0.00000  Uiso   1.00
C158   C     0.34764   0.05470   0.96352   0.00000  Uiso   1.00
C159   C     0.34741   0.15121   0.93412   0.00000  Uiso   1.00
C160   C     0.44847   0.17324   0.94882   0.00000  Uiso   1.00
C161   C     0.34755   0.19529   0.96353   0.00000  Uiso   1.00
H162   H     0.91870   0.12500   0.91665   0.00000  Uiso   1.00
H163   H     0.90054   0.12498   0.85235   0.00000  Uiso   1.00
H164   H     0.90054   0.07677   0.94881   0.00000  Uiso   1.00
H165   H     0.90048   0.17322   0.94881   0.00000  Uiso   1.00
H166   H     0.96639   0.12496   0.78107   0.00000  Uiso   1.00
H167   H     0.96638   0.02330   0.98446   0.00000  Uiso   1.00
H168   H     0.96626   0.22669   0.98446   0.00000  Uiso   1.00
H169   H     0.58121   0.12501   0.91666   0.00000  Uiso   1.00
H170   H     0.59941   0.12500   0.85236   0.00000  Uiso   1.00
H171   H     0.59940   0.07678   0.94881   0.00000  Uiso   1.00
H172   H     0.59934   0.17323   0.94882   0.00000  Uiso   1.00
H173   H     0.53361   0.12497   0.78107   0.00000  Uiso   1.00
H174   H     0.53360   0.02331   0.98446   0.00000  Uiso   1.00
H175   H     0.53348   0.22670   0.98447   0.00000  Uiso   1.00
O176   O     0.25002   0.12495   0.73877   0.00000  Uiso   1.00
O177   O     0.25001   0.99158   0.00562   0.00000  Uiso   1.00
O178   O     0.24984   0.25842   0.00562   0.00000  Uiso   1.00
N179   N     0.09739   0.12497   0.78989   0.00000  Uiso   1.00
N180   N     0.09738   0.02992   0.98004   0.00000  Uiso   1.00
N181   N     0.09726   0.22007   0.98006   0.00000  Uiso   1.00
N182   N     0.40260   0.12498   0.78990   0.00000  Uiso   1.00
N183   N     0.40260   0.02992   0.98005   0.00000  Uiso   1.00
N184   N     0.40248   0.22007   0.98006   0.00000  Uiso   1.00
C185   C     0.42952   0.62500   0.91665   0.00000  Uiso   1.00
C186   C     0.34752   0.62500   0.88172   0.00000  Uiso   1.00
C187   C     0.44858   0.62499   0.85234   0.00000  Uiso   1.00
C188   C     0.34768   0.62498   0.82293   0.00000  Uiso   1.00
C189   C     0.25000   0.62496   0.76869   0.00000  Uiso   1.00
C190   C     0.34752   0.59880   0.93412   0.00000  Uiso   1.00
C191   C     0.44859   0.57676   0.94881   0.00000  Uiso   1.00
C192   C     0.34767   0.55470   0.96352   0.00000  Uiso   1.00
C193   C     0.25000   0.51402   0.99065   0.00000  Uiso   1.00
C194   C     0.34755   0.65120   0.93412   0.00000  Uiso   1.00
C195   C     0.44865   0.67323   0.94882   0.00000  Uiso   1.00
C196   C     0.34776   0.69529   0.96353   0.00000  Uiso   1.00
C197   C     0.25015   0.73598   0.99066   0.00000  Uiso   1.00
C198   C     0.07058   0.62500   0.91666   0.00000  Uiso   1.00
C199   C     0.15256   0.62500   0.88172   0.00000  Uiso   1.00
C200   C     0.05146   0.62499   0.85235   0.00000  Uiso   1.00
C201   C     0.15237   0.62499   0.82294   0.00000  Uiso   1.00
C202   C     0.15256   0.59880   0.93412   0.00000  Uiso   1.00
C203   C     0.05147   0.57677   0.94882   0.00000  Uiso   1.00
C204   C     0.15236   0.55470   0.96352   0.00000  Uiso   1.00
C205   C     0.15259   0.65121   0.93412   0.00000  Uiso   1.00
C206   C     0.05153   0.67324   0.94882   0.00000  Uiso   1.00
C207   C     0.15245   0.69529   0.96353   0.00000  Uiso   1.00
H208   H     0.58130   0.62500   0.91665   0.00000  Uiso   1.00
H209   H     0.59946   0.62498   0.85235   0.00000  Uiso   1.00
H210   H     0.59946   0.57677   0.94881   0.00000  Uiso   1.00
H211   H     0.59952   0.67322   0.94881   0.00000  Uiso   1.00
H212   H     0.53361   0.62496   0.78107   0.00000  Uiso   1.00
H213   H     0.53362   0.52330   0.98446   0.00000  Uiso   1.00
H214   H     0.53374   0.72669   0.98446   0.00000  Uiso   1.00
H215   H     0.91879   0.62501   0.91666   0.00000  Uiso   1.00
H216   H     0.90059   0.62500   0.85236   0.00000  Uiso   1.00
H217   H     0.90060   0.57678   0.94881   0.00000  Uiso   1.00
H218   H     0.90066   0.67323   0.94882   0.00000  Uiso   1.00
H219   H     0.96639   0.62497   0.78107   0.00000  Uiso   1.00
H220   H     0.96640   0.52331   0.98446   0.00000  Uiso   1.00
H221   H     0.96652   0.72670   0.98447   0.00000  Uiso   1.00
O222   O     0.24998   0.62495   0.73877   0.00000  Uiso   1.00
O223   O     0.24999   0.49158   0.00562   0.00000  Uiso   1.00
O224   O     0.25016   0.75842   0.00562   0.00000  Uiso   1.00
N225   N     0.40261   0.62497   0.78989   0.00000  Uiso   1.00
N226   N     0.40262   0.52992   0.98004   0.00000  Uiso   1.00
N227   N     0.40274   0.72007   0.98006   0.00000  Uiso   1.00
N228   N     0.09740   0.62498   0.78990   0.00000  Uiso   1.00
N229   N     0.09740   0.52992   0.98005   0.00000  Uiso   1.00
N230   N     0.09752   0.72007   0.98006   0.00000  Uiso   1.00
C231   C     0.07048   0.87500   0.41665   0.00000  Uiso   1.00
C232   C     0.15248   0.87500   0.38172   0.00000  Uiso   1.00
C233   C     0.05142   0.87501   0.35234   0.00000  Uiso   1.00
C234   C     0.15232   0.87502   0.32293   0.00000  Uiso   1.00
C235   C     0.25000   0.87504   0.26869   0.00000  Uiso   1.00
C236   C     0.15248   0.90120   0.43412   0.00000  Uiso   1.00
C237   C     0.05141   0.92324   0.44881   0.00000  Uiso   1.00
C238   C     0.15233   0.94530   0.46352   0.00000  Uiso   1.00
C239   C     0.25000   0.98598   0.49065   0.00000  Uiso   1.00
C240   C     0.15245   0.84880   0.43412   0.00000  Uiso   1.00
C241   C     0.05135   0.82677   0.44882   0.00000  Uiso   1.00
C242   C     0.15224   0.80471   0.46353   0.00000  Uiso   1.00
C243   C     0.24985   0.76402   0.49066   0.00000  Uiso   1.00
C244   C     0.42942   0.87500   0.41666   0.00000  Uiso   1.00
C245   C     0.34744   0.87500   0.38172   0.00000  Uiso   1.00
C246   C     0.44854   0.87501   0.35235   0.00000  Uiso   1.00
C247   C     0.34763   0.87501   0.32294   0.00000  Uiso   1.00
C248   C     0.34744   0.90120   0.43412   0.00000  Uiso   1.00
C249   C     0.44853   0.92323   0.44882   0.00000  Uiso   1.00
C250   C     0.34764   0.94530   0.46352   0.00000  Uiso   1.00
C251   C     0.34741   0.84879   0.43412   0.00000  Uiso   1.00
C252   C     0.44847   0.82676   0.44882   0.00000  Uiso   1.00
C253   C     0.34755   0.80471   0.46353   0.00000  Uiso   1.00
H254   H     0.91870   0.87500   0.41665   0.00000  Uiso   1.00
H255   H     0.90054   0.87502   0.35235   0.00000  Uiso   1.00
H256   H     0.90054   0.92323   0.44881   0.00000  Uiso   1.00
H257   H     0.90048   0.82678   0.44881   0.00000  Uiso   1.00
H258   H     0.96639   0.87504   0.28107   0.00000  Uiso   1.00
H259   H     0.96638   0.97670   0.48446   0.00000  Uiso   1.00
H260   H     0.96626   0.77331   0.48446   0.00000  Uiso   1.00
H261   H     0.58121   0.87499   0.41666   0.00000  Uiso   1.00
H262   H     0.59941   0.87500   0.35236   0.00000  Uiso   1.00
H263   H     0.59940   0.92322   0.44881   0.00000  Uiso   1.00
H264   H     0.59934   0.82677   0.44882   0.00000  Uiso   1.00
H265   H     0.53361   0.87503   0.28107   0.00000  Uiso   1.00
H266   H     0.53360   0.97669   0.48446   0.00000  Uiso   1.00
H267   H     0.53348   0.77330   0.48447   0.00000  Uiso   1.00
O268   O     0.25002   0.87505   0.23877   0.00000  Uiso   1.00
O269   O     0.25001   0.00842   0.50562   0.00000  Uiso   1.00
O270   O     0.24984   0.74158   0.50562   0.00000  Uiso   1.00
N271   N     0.09739   0.87503   0.28989   0.00000  Uiso   1.00
N272   N     0.09738   0.97008   0.48004   0.00000  Uiso   1.00
N273   N     0.09726   0.77993   0.48006   0.00000  Uiso   1.00
N274   N     0.40260   0.87502   0.28990   0.00000  Uiso   1.00
N275   N     0.40260   0.97008   0.48005   0.00000  Uiso   1.00
N276   N     0.40248   0.77993   0.48006   0.00000  Uiso   1.00
C277   C     0.57048   0.62500   0.58335   0.00000  Uiso   1.00
C278   C     0.65248   0.62500   0.61828   0.00000  Uiso   1.00
C279   C     0.55142   0.62499   0.64766   0.00000  Uiso   1.00
C280   C     0.65232   0.62498   0.67707   0.00000  Uiso   1.00
C281   C     0.75000   0.62496   0.73131   0.00000  Uiso   1.00
C282   C     0.65248   0.59880   0.56588   0.00000  Uiso   1.00
C283   C     0.55141   0.57676   0.55119   0.00000  Uiso   1.00
C284   C     0.65233   0.55470   0.53648   0.00000  Uiso   1.00
C285   C     0.75000   0.51402   0.50935   0.00000  Uiso   1.00
C286   C     0.65245   0.65120   0.56588   0.00000  Uiso   1.00
C287   C     0.55135   0.67323   0.55118   0.00000  Uiso   1.00
C288   C     0.65224   0.69529   0.53647   0.00000  Uiso   1.00
C289   C     0.74985   0.73598   0.50934   0.00000  Uiso   1.00
C290   C     0.92942   0.62500   0.58334   0.00000  Uiso   1.00
C291   C     0.84744   0.62500   0.61828   0.00000  Uiso   1.00
C292   C     0.94854   0.62499   0.64765   0.00000  Uiso   1.00
C293   C     0.84763   0.62499   0.67706   0.00000  Uiso   1.00
C294   C     0.84744   0.59880   0.56588   0.00000  Uiso   1.00
C295   C     0.94853   0.57677   0.55118   0.00000  Uiso   1.00
C296   C     0.84764   0.55470   0.53648   0.00000  Uiso   1.00
C297   C     0.84741   0.65121   0.56588   0.00000  Uiso   1.00
C298   C     0.94847   0.67324   0.55118   0.00000  Uiso   1.00
C299   C     0.84755   0.69529   0.53647   0.00000  Uiso   1.00
H300   H     0.41870   0.62500   0.58335   0.00000  Uiso   1.00
H301   H     0.40054   0.62498   0.64765   0.00000  Uiso   1.00
H302   H     0.40054   0.57677   0.55119   0.00000  Uiso   1.00
H303   H     0.40048   0.67322   0.55119   0.00000  Uiso   1.00
H304   H     0.46639   0.62496   0.71893   0.00000  Uiso   1.00
H305   H     0.46638   0.52330   0.51554   0.00000  Uiso   1.00
H306   H     0.46626   0.72669   0.51554   0.00000  Uiso   1.00
H307   H     0.08121   0.62501   0.58334   0.00000  Uiso   1.00
H308   H     0.09941   0.62500   0.64764   0.00000  Uiso   1.00
H309   H     0.09940   0.57678   0.55119   0.00000  Uiso   1.00
H310   H     0.09934   0.67323   0.55118   0.00000  Uiso   1.00
H311   H     0.03361   0.62497   0.71893   0.00000  Uiso   1.00
H312   H     0.03360   0.52331   0.51554   0.00000  Uiso   1.00
H313   H     0.03348   0.72670   0.51553   0.00000  Uiso   1.00
O314   O     0.75002   0.62495   0.76123   0.00000  Uiso   1.00
O315   O     0.75001   0.49158   0.49438   0.00000  Uiso   1.00
O316   O     0.74984   0.75842   0.49438   0.00000  Uiso   1.00
N317   N     0.59739   0.62497   0.71011   0.00000  Uiso   1.00
N318   N     0.59738   0.52992   0.51996   0.00000  Uiso   1.00
N319   N     0.59726   0.72007   0.51994   0.00000  Uiso   1.00
N320   N     0.90260   0.62498   0.71010   0.00000  Uiso   1.00
N321   N     0.90260   0.52992   0.51995   0.00000  Uiso   1.00
N322   N     0.90248   0.72007   0.51994   0.00000  Uiso   1.00
C323   C     0.92952   0.87500   0.08335   0.00000  Uiso   1.00
C324   C     0.84752   0.87500   0.11828   0.00000  Uiso   1.00
C325   C     0.94858   0.87501   0.14766   0.00000  Uiso   1.00
C326   C     0.84768   0.87502   0.17707   0.00000  Uiso   1.00
C327   C     0.75000   0.87504   0.23131   0.00000  Uiso   1.00
C328   C     0.84752   0.90120   0.06588   0.00000  Uiso   1.00
C329   C     0.94859   0.92324   0.05119   0.00000  Uiso   1.00
C330   C     0.84767   0.94530   0.03648   0.00000  Uiso   1.00
C331   C     0.75000   0.98598   0.00935   0.00000  Uiso   1.00
C332   C     0.84755   0.84880   0.06588   0.00000  Uiso   1.00
C333   C     0.94865   0.82677   0.05118   0.00000  Uiso   1.00
C334   C     0.84776   0.80471   0.03647   0.00000  Uiso   1.00
C335   C     0.75015   0.76402   0.00934   0.00000  Uiso   1.00
C336   C     0.57058   0.87500   0.08334   0.00000  Uiso   1.00
C337   C     0.65256   0.87500   0.11828   0.00000  Uiso   1.00
C338   C     0.55146   0.87501   0.14765   0.00000  Uiso   1.00
C339   C     0.65237   0.87501   0.17706   0.00000  Uiso   1.00
C340   C     0.65256   0.90120   0.06588   0.00000  Uiso   1.00
C341   C     0.55147   0.92323   0.05118   0.00000  Uiso   1.00
C342   C     0.65236   0.94530   0.03648   0.00000  Uiso   1.00
C343   C     0.65259   0.84879   0.06588   0.00000  Uiso   1.00
C344   C     0.55153   0.82676   0.05118   0.00000  Uiso   1.00
C345   C     0.65245   0.80471   0.03647   0.00000  Uiso   1.00
H346   H     0.08130   0.87500   0.08335   0.00000  Uiso   1.00
H347   H     0.09946   0.87502   0.14765   0.00000  Uiso   1.00
H348   H     0.09946   0.92323   0.05119   0.00000  Uiso   1.00
H349   H     0.09952   0.82678   0.05119   0.00000  Uiso   1.00
H350   H     0.03361   0.87504   0.21893   0.00000  Uiso   1.00
H351   H     0.03362   0.97670   0.01554   0.00000  Uiso   1.00
H352   H     0.03374   0.77331   0.01554   0.00000  Uiso   1.00
H353   H     0.41879   0.87499   0.08334   0.00000  Uiso   1.00
H354   H     0.40059   0.87500   0.14764   0.00000  Uiso   1.00
H355   H     0.40060   0.92322   0.05119   0.00000  Uiso   1.00
H356   H     0.40066   0.82677   0.05118   0.00000  Uiso   1.00
H357   H     0.46639   0.87503   0.21893   0.00000  Uiso   1.00
H358   H     0.46640   0.97669   0.01554   0.00000  Uiso   1.00
H359   H     0.46652   0.77330   0.01553   0.00000  Uiso   1.00
O360   O     0.74998   0.87505   0.26123   0.00000  Uiso   1.00
O361   O     0.74999   0.00842   0.99438   0.00000  Uiso   1.00
O362   O     0.75016   0.74158   0.99438   0.00000  Uiso   1.00
N363   N     0.90261   0.87503   0.21011   0.00000  Uiso   1.00
N364   N     0.90262   0.97008   0.01996   0.00000  Uiso   1.00
N365   N     0.90274   0.77993   0.01994   0.00000  Uiso   1.00
N366   N     0.59740   0.87502   0.21010   0.00000  Uiso   1.00
N367   N     0.59740   0.97008   0.01995   0.00000  Uiso   1.00
N368   N     0.59752   0.77993   0.01994   0.00000  Uiso   1.00
