data_job_03645
_audit_creation_date              2018-12-19
_audit_creation_method            'Materials Studio'
_symmetry_space_group_name_H-M    'P1'
_symmetry_Int_Tables_number       1
_symmetry_cell_setting            triclinic
loop_
_symmetry_equiv_pos_as_xyz
  x,y,z
_cell_length_a                    16.0115
_cell_length_b                    16.0115
_cell_length_c                    21.2551
_cell_angle_alpha                 90.0000
_cell_angle_beta                  90.0000
_cell_angle_gamma                 90.0000
loop_
_atom_site_label
_atom_site_type_symbol
_atom_site_fract_x
_atom_site_fract_y
_atom_site_fract_z
_atom_site_U_iso_or_equiv
_atom_site_adp_type
_atom_site_occupancy
C1     C     0.77985   0.50412   0.70674   0.00000  Uiso   1.00
C2     C     0.77526   0.45463   0.76794   0.00000  Uiso   1.00
C3     C     0.84298   0.42326   0.80113   0.00000  Uiso   1.00
C4     C     0.82569   0.37966   0.85607   0.00000  Uiso   1.00
C5     C     0.83104   0.30457   0.94790   0.00000  Uiso   1.00
C6     C     0.72619   0.45668   0.65945   0.00000  Uiso   1.00
C7     C     0.75265   0.42703   0.60143   0.00000  Uiso   1.00
C8     C     0.69405   0.38517   0.56504   0.00000  Uiso   1.00
C9     C     0.62321   0.31331   0.48842   0.00000  Uiso   1.00
C10    C     0.73453   0.58622   0.71924   0.00000  Uiso   1.00
C11    C     0.76801   0.66550   0.71147   0.00000  Uiso   1.00
C12    C     0.71643   0.73271   0.72540   0.00000  Uiso   1.00
C13    C     0.65855   0.86199   0.74161   0.00000  Uiso   1.00
C14    C     0.62871   0.48250   0.74530   0.00000  Uiso   1.00
C15    C     0.69316   0.44289   0.78888   0.00000  Uiso   1.00
C16    C     0.67577   0.39933   0.84379   0.00000  Uiso   1.00
C17    C     0.74345   0.36790   0.87705   0.00000  Uiso   1.00
C18    C     0.64410   0.44493   0.68039   0.00000  Uiso   1.00
C19    C     0.58544   0.40311   0.64409   0.00000  Uiso   1.00
C20    C     0.61181   0.37340   0.58602   0.00000  Uiso   1.00
C21    C     0.65244   0.57448   0.74018   0.00000  Uiso   1.00
C22    C     0.60080   0.64158   0.75413   0.00000  Uiso   1.00
C23    C     0.63419   0.72095   0.74638   0.00000  Uiso   1.00
H24    H     0.84376   0.51326   0.69043   0.00000  Uiso   1.00
H25    H     0.90650   0.43235   0.78490   0.00000  Uiso   1.00
H26    H     0.81618   0.43614   0.58523   0.00000  Uiso   1.00
H27    H     0.83154   0.67457   0.69526   0.00000  Uiso   1.00
H28    H     0.93986   0.33745   0.89887   0.00000  Uiso   1.00
H29    H     0.74941   0.34545   0.47784   0.00000  Uiso   1.00
H30    H     0.78179   0.84823   0.70985   0.00000  Uiso   1.00
H31    H     0.56480   0.47335   0.76160   0.00000  Uiso   1.00
H32    H     0.61223   0.39025   0.85998   0.00000  Uiso   1.00
H33    H     0.52192   0.39404   0.66031   0.00000  Uiso   1.00
H34    H     0.53727   0.63247   0.77034   0.00000  Uiso   1.00
H35    H     0.70102   0.30327   0.95980   0.00000  Uiso   1.00
H36    H     0.51057   0.31128   0.53877   0.00000  Uiso   1.00
H37    H     0.54295   0.81406   0.77079   0.00000  Uiso   1.00
O38    O     0.85667   0.26639   0.99276   0.00000  Uiso   1.00
O39    O     0.60681   0.27690   0.44038   0.00000  Uiso   1.00
O40    O     0.64930   0.93654   0.74478   0.00000  Uiso   1.00
N41    N     0.87714   0.34082   0.89971   0.00000  Uiso   1.00
N42    N     0.69909   0.34829   0.50608   0.00000  Uiso   1.00
N43    N     0.72935   0.81835   0.72298   0.00000  Uiso   1.00
N44    N     0.74862   0.32243   0.93250   0.00000  Uiso   1.00
N45    N     0.57057   0.32990   0.53887   0.00000  Uiso   1.00
N46    N     0.60084   0.79996   0.75577   0.00000  Uiso   1.00
C47    C     0.22015   0.49588   0.70674   0.00000  Uiso   1.00
C48    C     0.22474   0.54537   0.76794   0.00000  Uiso   1.00
C49    C     0.15702   0.57674   0.80113   0.00000  Uiso   1.00
C50    C     0.17431   0.62034   0.85607   0.00000  Uiso   1.00
C51    C     0.16896   0.69543   0.94790   0.00000  Uiso   1.00
C52    C     0.27381   0.54332   0.65945   0.00000  Uiso   1.00
C53    C     0.24735   0.57297   0.60143   0.00000  Uiso   1.00
C54    C     0.30595   0.61483   0.56504   0.00000  Uiso   1.00
C55    C     0.37679   0.68669   0.48842   0.00000  Uiso   1.00
C56    C     0.26547   0.41378   0.71924   0.00000  Uiso   1.00
C57    C     0.23199   0.33450   0.71147   0.00000  Uiso   1.00
C58    C     0.28357   0.26729   0.72540   0.00000  Uiso   1.00
C59    C     0.34145   0.13801   0.74161   0.00000  Uiso   1.00
C60    C     0.37129   0.51750   0.74530   0.00000  Uiso   1.00
C61    C     0.30684   0.55711   0.78888   0.00000  Uiso   1.00
C62    C     0.32423   0.60067   0.84379   0.00000  Uiso   1.00
C63    C     0.25655   0.63210   0.87705   0.00000  Uiso   1.00
C64    C     0.35590   0.55507   0.68039   0.00000  Uiso   1.00
C65    C     0.41456   0.59689   0.64409   0.00000  Uiso   1.00
C66    C     0.38819   0.62660   0.58602   0.00000  Uiso   1.00
C67    C     0.34756   0.42552   0.74018   0.00000  Uiso   1.00
C68    C     0.39920   0.35842   0.75413   0.00000  Uiso   1.00
C69    C     0.36581   0.27905   0.74638   0.00000  Uiso   1.00
H70    H     0.15624   0.48674   0.69043   0.00000  Uiso   1.00
H71    H     0.09350   0.56765   0.78490   0.00000  Uiso   1.00
H72    H     0.18382   0.56386   0.58523   0.00000  Uiso   1.00
H73    H     0.16846   0.32543   0.69526   0.00000  Uiso   1.00
H74    H     0.06014   0.66255   0.89887   0.00000  Uiso   1.00
H75    H     0.25059   0.65455   0.47784   0.00000  Uiso   1.00
H76    H     0.21821   0.15177   0.70985   0.00000  Uiso   1.00
H77    H     0.43520   0.52665   0.76160   0.00000  Uiso   1.00
H78    H     0.38777   0.60975   0.85998   0.00000  Uiso   1.00
H79    H     0.47808   0.60596   0.66031   0.00000  Uiso   1.00
H80    H     0.46273   0.36753   0.77034   0.00000  Uiso   1.00
H81    H     0.29898   0.69673   0.95980   0.00000  Uiso   1.00
H82    H     0.48943   0.68872   0.53877   0.00000  Uiso   1.00
H83    H     0.45705   0.18594   0.77079   0.00000  Uiso   1.00
O84    O     0.14333   0.73361   0.99276   0.00000  Uiso   1.00
O85    O     0.39319   0.72310   0.44038   0.00000  Uiso   1.00
O86    O     0.35070   0.06346   0.74478   0.00000  Uiso   1.00
N87    N     0.12286   0.65918   0.89971   0.00000  Uiso   1.00
N88    N     0.30091   0.65171   0.50608   0.00000  Uiso   1.00
N89    N     0.27065   0.18165   0.72298   0.00000  Uiso   1.00
N90    N     0.25138   0.67757   0.93250   0.00000  Uiso   1.00
N91    N     0.42943   0.67010   0.53887   0.00000  Uiso   1.00
N92    N     0.39916   0.20004   0.75577   0.00000  Uiso   1.00
C93    C     0.99588   0.27985   0.70674   0.00000  Uiso   1.00
C94    C     0.04537   0.27526   0.76794   0.00000  Uiso   1.00
C95    C     0.07674   0.34298   0.80113   0.00000  Uiso   1.00
C96    C     0.12034   0.32569   0.85607   0.00000  Uiso   1.00
C97    C     0.19543   0.33104   0.94790   0.00000  Uiso   1.00
C98    C     0.04332   0.22619   0.65945   0.00000  Uiso   1.00
C99    C     0.07297   0.25265   0.60143   0.00000  Uiso   1.00
C100   C     0.11483   0.19405   0.56504   0.00000  Uiso   1.00
C101   C     0.18669   0.12321   0.48842   0.00000  Uiso   1.00
C102   C     0.91378   0.23453   0.71924   0.00000  Uiso   1.00
C103   C     0.83450   0.26801   0.71147   0.00000  Uiso   1.00
C104   C     0.76729   0.21643   0.72540   0.00000  Uiso   1.00
C105   C     0.63801   0.15855   0.74161   0.00000  Uiso   1.00
C106   C     0.01750   0.12871   0.74530   0.00000  Uiso   1.00
C107   C     0.05711   0.19316   0.78888   0.00000  Uiso   1.00
C108   C     0.10067   0.17577   0.84379   0.00000  Uiso   1.00
C109   C     0.13210   0.24345   0.87705   0.00000  Uiso   1.00
C110   C     0.05507   0.14410   0.68039   0.00000  Uiso   1.00
C111   C     0.09689   0.08544   0.64409   0.00000  Uiso   1.00
C112   C     0.12660   0.11181   0.58602   0.00000  Uiso   1.00
C113   C     0.92552   0.15244   0.74018   0.00000  Uiso   1.00
C114   C     0.85842   0.10080   0.75413   0.00000  Uiso   1.00
C115   C     0.77905   0.13419   0.74638   0.00000  Uiso   1.00
H116   H     0.98674   0.34376   0.69043   0.00000  Uiso   1.00
H117   H     0.06765   0.40650   0.78490   0.00000  Uiso   1.00
H118   H     0.06386   0.31618   0.58523   0.00000  Uiso   1.00
H119   H     0.82543   0.33154   0.69526   0.00000  Uiso   1.00
H120   H     0.16255   0.43986   0.89887   0.00000  Uiso   1.00
H121   H     0.15455   0.24941   0.47784   0.00000  Uiso   1.00
H122   H     0.65177   0.28179   0.70985   0.00000  Uiso   1.00
H123   H     0.02665   0.06480   0.76160   0.00000  Uiso   1.00
H124   H     0.10975   0.11223   0.85998   0.00000  Uiso   1.00
H125   H     0.10596   0.02192   0.66031   0.00000  Uiso   1.00
H126   H     0.86753   0.03727   0.77034   0.00000  Uiso   1.00
H127   H     0.19673   0.20102   0.95980   0.00000  Uiso   1.00
H128   H     0.18872   0.01057   0.53877   0.00000  Uiso   1.00
H129   H     0.68594   0.04295   0.77079   0.00000  Uiso   1.00
O130   O     0.23361   0.35667   0.99276   0.00000  Uiso   1.00
O131   O     0.22310   0.10681   0.44038   0.00000  Uiso   1.00
O132   O     0.56346   0.14930   0.74478   0.00000  Uiso   1.00
N133   N     0.15918   0.37714   0.89971   0.00000  Uiso   1.00
N134   N     0.15171   0.19909   0.50608   0.00000  Uiso   1.00
N135   N     0.68165   0.22935   0.72298   0.00000  Uiso   1.00
N136   N     0.17757   0.24862   0.93250   0.00000  Uiso   1.00
N137   N     0.17010   0.07057   0.53887   0.00000  Uiso   1.00
N138   N     0.70004   0.10084   0.75577   0.00000  Uiso   1.00
C139   C     0.00412   0.72015   0.70674   0.00000  Uiso   1.00
C140   C     0.95463   0.72474   0.76794   0.00000  Uiso   1.00
C141   C     0.92326   0.65702   0.80113   0.00000  Uiso   1.00
C142   C     0.87966   0.67431   0.85607   0.00000  Uiso   1.00
C143   C     0.80457   0.66896   0.94790   0.00000  Uiso   1.00
C144   C     0.95668   0.77381   0.65945   0.00000  Uiso   1.00
C145   C     0.92703   0.74735   0.60143   0.00000  Uiso   1.00
C146   C     0.88517   0.80595   0.56504   0.00000  Uiso   1.00
C147   C     0.81331   0.87679   0.48842   0.00000  Uiso   1.00
C148   C     0.08622   0.76547   0.71924   0.00000  Uiso   1.00
C149   C     0.16550   0.73199   0.71147   0.00000  Uiso   1.00
C150   C     0.23271   0.78357   0.72540   0.00000  Uiso   1.00
C151   C     0.36199   0.84145   0.74161   0.00000  Uiso   1.00
C152   C     0.98250   0.87129   0.74530   0.00000  Uiso   1.00
C153   C     0.94289   0.80684   0.78888   0.00000  Uiso   1.00
C154   C     0.89933   0.82423   0.84379   0.00000  Uiso   1.00
C155   C     0.86790   0.75655   0.87705   0.00000  Uiso   1.00
C156   C     0.94493   0.85590   0.68039   0.00000  Uiso   1.00
C157   C     0.90311   0.91456   0.64409   0.00000  Uiso   1.00
C158   C     0.87340   0.88819   0.58602   0.00000  Uiso   1.00
C159   C     0.07448   0.84756   0.74018   0.00000  Uiso   1.00
C160   C     0.14158   0.89920   0.75413   0.00000  Uiso   1.00
C161   C     0.22095   0.86581   0.74638   0.00000  Uiso   1.00
H162   H     0.01326   0.65624   0.69043   0.00000  Uiso   1.00
H163   H     0.93235   0.59350   0.78490   0.00000  Uiso   1.00
H164   H     0.93614   0.68382   0.58523   0.00000  Uiso   1.00
H165   H     0.17457   0.66846   0.69526   0.00000  Uiso   1.00
H166   H     0.83745   0.56014   0.89887   0.00000  Uiso   1.00
H167   H     0.84545   0.75059   0.47784   0.00000  Uiso   1.00
H168   H     0.34823   0.71821   0.70985   0.00000  Uiso   1.00
H169   H     0.97335   0.93520   0.76160   0.00000  Uiso   1.00
H170   H     0.89025   0.88777   0.85998   0.00000  Uiso   1.00
H171   H     0.89404   0.97808   0.66031   0.00000  Uiso   1.00
H172   H     0.13247   0.96273   0.77034   0.00000  Uiso   1.00
H173   H     0.80327   0.79898   0.95980   0.00000  Uiso   1.00
H174   H     0.81128   0.98943   0.53877   0.00000  Uiso   1.00
H175   H     0.31406   0.95705   0.77079   0.00000  Uiso   1.00
O176   O     0.76639   0.64333   0.99276   0.00000  Uiso   1.00
O177   O     0.77690   0.89319   0.44038   0.00000  Uiso   1.00
O178   O     0.43654   0.85070   0.74478   0.00000  Uiso   1.00
N179   N     0.84082   0.62286   0.89971   0.00000  Uiso   1.00
N180   N     0.84829   0.80091   0.50608   0.00000  Uiso   1.00
N181   N     0.31835   0.77065   0.72298   0.00000  Uiso   1.00
N182   N     0.82243   0.75138   0.93250   0.00000  Uiso   1.00
N183   N     0.82990   0.92943   0.53887   0.00000  Uiso   1.00
N184   N     0.29996   0.89916   0.75577   0.00000  Uiso   1.00
C185   C     0.72015   0.99588   0.29326   0.00000  Uiso   1.00
C186   C     0.72474   0.04537   0.23206   0.00000  Uiso   1.00
C187   C     0.65702   0.07674   0.19887   0.00000  Uiso   1.00
C188   C     0.67431   0.12034   0.14393   0.00000  Uiso   1.00
C189   C     0.66896   0.19543   0.05210   0.00000  Uiso   1.00
C190   C     0.77381   0.04332   0.34055   0.00000  Uiso   1.00
C191   C     0.74735   0.07297   0.39857   0.00000  Uiso   1.00
C192   C     0.80595   0.11483   0.43496   0.00000  Uiso   1.00
C193   C     0.87679   0.18669   0.51158   0.00000  Uiso   1.00
C194   C     0.76547   0.91378   0.28076   0.00000  Uiso   1.00
C195   C     0.73199   0.83450   0.28853   0.00000  Uiso   1.00
C196   C     0.78357   0.76729   0.27460   0.00000  Uiso   1.00
C197   C     0.84145   0.63801   0.25839   0.00000  Uiso   1.00
C198   C     0.87129   0.01750   0.25470   0.00000  Uiso   1.00
C199   C     0.80684   0.05711   0.21112   0.00000  Uiso   1.00
C200   C     0.82423   0.10067   0.15621   0.00000  Uiso   1.00
C201   C     0.75655   0.13210   0.12295   0.00000  Uiso   1.00
C202   C     0.85590   0.05507   0.31961   0.00000  Uiso   1.00
C203   C     0.91456   0.09689   0.35591   0.00000  Uiso   1.00
C204   C     0.88819   0.12660   0.41398   0.00000  Uiso   1.00
C205   C     0.84756   0.92552   0.25982   0.00000  Uiso   1.00
C206   C     0.89920   0.85842   0.24587   0.00000  Uiso   1.00
C207   C     0.86581   0.77905   0.25362   0.00000  Uiso   1.00
H208   H     0.65624   0.98674   0.30957   0.00000  Uiso   1.00
H209   H     0.59350   0.06765   0.21510   0.00000  Uiso   1.00
H210   H     0.68382   0.06386   0.41477   0.00000  Uiso   1.00
H211   H     0.66846   0.82543   0.30474   0.00000  Uiso   1.00
H212   H     0.56014   0.16255   0.10113   0.00000  Uiso   1.00
H213   H     0.75059   0.15455   0.52216   0.00000  Uiso   1.00
H214   H     0.71821   0.65177   0.29015   0.00000  Uiso   1.00
H215   H     0.93520   0.02665   0.23840   0.00000  Uiso   1.00
H216   H     0.88777   0.10975   0.14002   0.00000  Uiso   1.00
H217   H     0.97808   0.10596   0.33969   0.00000  Uiso   1.00
H218   H     0.96273   0.86753   0.22966   0.00000  Uiso   1.00
H219   H     0.79898   0.19673   0.04020   0.00000  Uiso   1.00
H220   H     0.98943   0.18872   0.46123   0.00000  Uiso   1.00
H221   H     0.95705   0.68594   0.22921   0.00000  Uiso   1.00
O222   O     0.64333   0.23361   0.00724   0.00000  Uiso   1.00
O223   O     0.89319   0.22310   0.55962   0.00000  Uiso   1.00
O224   O     0.85070   0.56346   0.25522   0.00000  Uiso   1.00
N225   N     0.62286   0.15918   0.10029   0.00000  Uiso   1.00
N226   N     0.80091   0.15171   0.49392   0.00000  Uiso   1.00
N227   N     0.77065   0.68165   0.27702   0.00000  Uiso   1.00
N228   N     0.75138   0.17757   0.06750   0.00000  Uiso   1.00
N229   N     0.92943   0.17010   0.46113   0.00000  Uiso   1.00
N230   N     0.89916   0.70004   0.24423   0.00000  Uiso   1.00
C231   C     0.27985   0.00412   0.29326   0.00000  Uiso   1.00
C232   C     0.27526   0.95463   0.23206   0.00000  Uiso   1.00
C233   C     0.34298   0.92326   0.19887   0.00000  Uiso   1.00
C234   C     0.32569   0.87966   0.14393   0.00000  Uiso   1.00
C235   C     0.33104   0.80457   0.05210   0.00000  Uiso   1.00
C236   C     0.22619   0.95668   0.34055   0.00000  Uiso   1.00
C237   C     0.25265   0.92703   0.39857   0.00000  Uiso   1.00
C238   C     0.19405   0.88517   0.43496   0.00000  Uiso   1.00
C239   C     0.12321   0.81331   0.51158   0.00000  Uiso   1.00
C240   C     0.23453   0.08622   0.28076   0.00000  Uiso   1.00
C241   C     0.26801   0.16550   0.28853   0.00000  Uiso   1.00
C242   C     0.21643   0.23271   0.27460   0.00000  Uiso   1.00
C243   C     0.15855   0.36199   0.25839   0.00000  Uiso   1.00
C244   C     0.12871   0.98250   0.25470   0.00000  Uiso   1.00
C245   C     0.19316   0.94289   0.21112   0.00000  Uiso   1.00
C246   C     0.17577   0.89933   0.15621   0.00000  Uiso   1.00
C247   C     0.24345   0.86790   0.12295   0.00000  Uiso   1.00
C248   C     0.14410   0.94493   0.31961   0.00000  Uiso   1.00
C249   C     0.08544   0.90311   0.35591   0.00000  Uiso   1.00
C250   C     0.11181   0.87340   0.41398   0.00000  Uiso   1.00
C251   C     0.15244   0.07448   0.25982   0.00000  Uiso   1.00
C252   C     0.10080   0.14158   0.24587   0.00000  Uiso   1.00
C253   C     0.13419   0.22095   0.25362   0.00000  Uiso   1.00
H254   H     0.34376   0.01326   0.30957   0.00000  Uiso   1.00
H255   H     0.40650   0.93235   0.21510   0.00000  Uiso   1.00
H256   H     0.31618   0.93614   0.41477   0.00000  Uiso   1.00
H257   H     0.33154   0.17457   0.30474   0.00000  Uiso   1.00
H258   H     0.43986   0.83745   0.10113   0.00000  Uiso   1.00
H259   H     0.24941   0.84545   0.52216   0.00000  Uiso   1.00
H260   H     0.28179   0.34823   0.29015   0.00000  Uiso   1.00
H261   H     0.06480   0.97335   0.23840   0.00000  Uiso   1.00
H262   H     0.11223   0.89025   0.14002   0.00000  Uiso   1.00
H263   H     0.02192   0.89404   0.33969   0.00000  Uiso   1.00
H264   H     0.03727   0.13247   0.22966   0.00000  Uiso   1.00
H265   H     0.20102   0.80327   0.04020   0.00000  Uiso   1.00
H266   H     0.01057   0.81128   0.46123   0.00000  Uiso   1.00
H267   H     0.04295   0.31406   0.22921   0.00000  Uiso   1.00
O268   O     0.35667   0.76639   0.00724   0.00000  Uiso   1.00
O269   O     0.10681   0.77690   0.55962   0.00000  Uiso   1.00
O270   O     0.14930   0.43654   0.25522   0.00000  Uiso   1.00
N271   N     0.37714   0.84082   0.10029   0.00000  Uiso   1.00
N272   N     0.19909   0.84829   0.49392   0.00000  Uiso   1.00
N273   N     0.22935   0.31835   0.27702   0.00000  Uiso   1.00
N274   N     0.24862   0.82243   0.06750   0.00000  Uiso   1.00
N275   N     0.07057   0.82990   0.46113   0.00000  Uiso   1.00
N276   N     0.10084   0.29996   0.24423   0.00000  Uiso   1.00
C277   C     0.50412   0.22015   0.29326   0.00000  Uiso   1.00
C278   C     0.45463   0.22474   0.23206   0.00000  Uiso   1.00
C279   C     0.42326   0.15702   0.19887   0.00000  Uiso   1.00
C280   C     0.37966   0.17431   0.14393   0.00000  Uiso   1.00
C281   C     0.30457   0.16896   0.05210   0.00000  Uiso   1.00
C282   C     0.45668   0.27381   0.34055   0.00000  Uiso   1.00
C283   C     0.42703   0.24735   0.39857   0.00000  Uiso   1.00
C284   C     0.38517   0.30595   0.43496   0.00000  Uiso   1.00
C285   C     0.31331   0.37679   0.51158   0.00000  Uiso   1.00
C286   C     0.58622   0.26547   0.28076   0.00000  Uiso   1.00
C287   C     0.66550   0.23199   0.28853   0.00000  Uiso   1.00
C288   C     0.73271   0.28357   0.27460   0.00000  Uiso   1.00
C289   C     0.86199   0.34145   0.25839   0.00000  Uiso   1.00
C290   C     0.48250   0.37129   0.25470   0.00000  Uiso   1.00
C291   C     0.44289   0.30684   0.21112   0.00000  Uiso   1.00
C292   C     0.39933   0.32423   0.15621   0.00000  Uiso   1.00
C293   C     0.36790   0.25655   0.12295   0.00000  Uiso   1.00
C294   C     0.44493   0.35590   0.31961   0.00000  Uiso   1.00
C295   C     0.40311   0.41456   0.35591   0.00000  Uiso   1.00
C296   C     0.37340   0.38819   0.41398   0.00000  Uiso   1.00
C297   C     0.57448   0.34756   0.25982   0.00000  Uiso   1.00
C298   C     0.64158   0.39920   0.24587   0.00000  Uiso   1.00
C299   C     0.72095   0.36581   0.25362   0.00000  Uiso   1.00
H300   H     0.51326   0.15624   0.30957   0.00000  Uiso   1.00
H301   H     0.43235   0.09350   0.21510   0.00000  Uiso   1.00
H302   H     0.43614   0.18382   0.41477   0.00000  Uiso   1.00
H303   H     0.67457   0.16846   0.30474   0.00000  Uiso   1.00
H304   H     0.33745   0.06014   0.10113   0.00000  Uiso   1.00
H305   H     0.34545   0.25059   0.52216   0.00000  Uiso   1.00
H306   H     0.84823   0.21821   0.29015   0.00000  Uiso   1.00
H307   H     0.47335   0.43520   0.23840   0.00000  Uiso   1.00
H308   H     0.39025   0.38777   0.14002   0.00000  Uiso   1.00
H309   H     0.39404   0.47808   0.33969   0.00000  Uiso   1.00
H310   H     0.63247   0.46273   0.22966   0.00000  Uiso   1.00
H311   H     0.30327   0.29898   0.04020   0.00000  Uiso   1.00
H312   H     0.31128   0.48943   0.46123   0.00000  Uiso   1.00
H313   H     0.81406   0.45705   0.22921   0.00000  Uiso   1.00
O314   O     0.26639   0.14333   0.00724   0.00000  Uiso   1.00
O315   O     0.27690   0.39319   0.55962   0.00000  Uiso   1.00
O316   O     0.93654   0.35070   0.25522   0.00000  Uiso   1.00
N317   N     0.34082   0.12286   0.10029   0.00000  Uiso   1.00
N318   N     0.34829   0.30091   0.49392   0.00000  Uiso   1.00
N319   N     0.81835   0.27065   0.27702   0.00000  Uiso   1.00
N320   N     0.32243   0.25138   0.06750   0.00000  Uiso   1.00
N321   N     0.32990   0.42943   0.46113   0.00000  Uiso   1.00
N322   N     0.79996   0.39916   0.24423   0.00000  Uiso   1.00
C323   C     0.49588   0.77985   0.29326   0.00000  Uiso   1.00
C324   C     0.54537   0.77526   0.23206   0.00000  Uiso   1.00
C325   C     0.57674   0.84298   0.19887   0.00000  Uiso   1.00
C326   C     0.62034   0.82569   0.14393   0.00000  Uiso   1.00
C327   C     0.69543   0.83104   0.05210   0.00000  Uiso   1.00
C328   C     0.54332   0.72619   0.34055   0.00000  Uiso   1.00
C329   C     0.57297   0.75265   0.39857   0.00000  Uiso   1.00
C330   C     0.61483   0.69405   0.43496   0.00000  Uiso   1.00
C331   C     0.68669   0.62321   0.51158   0.00000  Uiso   1.00
C332   C     0.41378   0.73453   0.28076   0.00000  Uiso   1.00
C333   C     0.33450   0.76801   0.28853   0.00000  Uiso   1.00
C334   C     0.26729   0.71643   0.27460   0.00000  Uiso   1.00
C335   C     0.13801   0.65855   0.25839   0.00000  Uiso   1.00
C336   C     0.51750   0.62871   0.25470   0.00000  Uiso   1.00
C337   C     0.55711   0.69316   0.21112   0.00000  Uiso   1.00
C338   C     0.60067   0.67577   0.15621   0.00000  Uiso   1.00
C339   C     0.63210   0.74345   0.12295   0.00000  Uiso   1.00
C340   C     0.55507   0.64410   0.31961   0.00000  Uiso   1.00
C341   C     0.59689   0.58544   0.35591   0.00000  Uiso   1.00
C342   C     0.62660   0.61181   0.41398   0.00000  Uiso   1.00
C343   C     0.42552   0.65244   0.25982   0.00000  Uiso   1.00
C344   C     0.35842   0.60080   0.24587   0.00000  Uiso   1.00
C345   C     0.27905   0.63419   0.25362   0.00000  Uiso   1.00
H346   H     0.48674   0.84376   0.30957   0.00000  Uiso   1.00
H347   H     0.56765   0.90650   0.21510   0.00000  Uiso   1.00
H348   H     0.56386   0.81618   0.41477   0.00000  Uiso   1.00
H349   H     0.32543   0.83154   0.30474   0.00000  Uiso   1.00
H350   H     0.66255   0.93986   0.10113   0.00000  Uiso   1.00
H351   H     0.65455   0.74941   0.52216   0.00000  Uiso   1.00
H352   H     0.15177   0.78179   0.29015   0.00000  Uiso   1.00
H353   H     0.52665   0.56480   0.23840   0.00000  Uiso   1.00
H354   H     0.60975   0.61223   0.14002   0.00000  Uiso   1.00
H355   H     0.60596   0.52192   0.33969   0.00000  Uiso   1.00
H356   H     0.36753   0.53727   0.22966   0.00000  Uiso   1.00
H357   H     0.69673   0.70102   0.04020   0.00000  Uiso   1.00
H358   H     0.68872   0.51057   0.46123   0.00000  Uiso   1.00
H359   H     0.18594   0.54295   0.22921   0.00000  Uiso   1.00
O360   O     0.73361   0.85667   0.00724   0.00000  Uiso   1.00
O361   O     0.72310   0.60681   0.55962   0.00000  Uiso   1.00
O362   O     0.06346   0.64930   0.25522   0.00000  Uiso   1.00
N363   N     0.65918   0.87714   0.10029   0.00000  Uiso   1.00
N364   N     0.65171   0.69909   0.49392   0.00000  Uiso   1.00
N365   N     0.18165   0.72935   0.27702   0.00000  Uiso   1.00
N366   N     0.67757   0.74862   0.06750   0.00000  Uiso   1.00
N367   N     0.67010   0.57057   0.46113   0.00000  Uiso   1.00
N368   N     0.20004   0.60084   0.24423   0.00000  Uiso   1.00
