data_job_00427
_audit_creation_date              2018-12-19
_audit_creation_method            'Materials Studio'
_symmetry_space_group_name_H-M    'P1'
_symmetry_Int_Tables_number       1
_symmetry_cell_setting            triclinic
loop_
_symmetry_equiv_pos_as_xyz
  x,y,z
_cell_length_a                    31.2771
_cell_length_b                    11.7815
_cell_length_c                    12.8686
_cell_angle_alpha                 90.0000
_cell_angle_beta                  90.0000
_cell_angle_gamma                 90.0000
loop_
_atom_site_label
_atom_site_type_symbol
_atom_site_fract_x
_atom_site_fract_y
_atom_site_fract_z
_atom_site_U_iso_or_equiv
_atom_site_adp_type
_atom_site_occupancy
C1     C     0.91690   0.43752   0.02700   0.00000  Uiso   1.00
C2     C     0.92574   0.37620   0.92488   0.00000  Uiso   1.00
C3     C     0.96424   0.32654   0.89648   0.00000  Uiso   1.00
C4     C     0.96586   0.27458   0.79972   0.00000  Uiso   1.00
C5     C     0.98501   0.17974   0.65116   0.00000  Uiso   1.00
C6     C     0.90146   0.55598   0.99747   0.00000  Uiso   1.00
C7     C     0.91954   0.65747   0.03011   0.00000  Uiso   1.00
C8     C     0.90072   0.75685   0.99447   0.00000  Uiso   1.00
C9     C     0.88216   0.94112   0.95865   0.00000  Uiso   1.00
C10    C     0.87855   0.37767   0.07551   0.00000  Uiso   1.00
C11    C     0.87737   0.32926   0.17379   0.00000  Uiso   1.00
C12    C     0.83926   0.27853   0.20387   0.00000  Uiso   1.00
C13    C     0.78514   0.18595   0.28923   0.00000  Uiso   1.00
C14    C     0.85131   0.43354   0.90568   0.00000  Uiso   1.00
C15    C     0.89012   0.37404   0.85898   0.00000  Uiso   1.00
C16    C     0.89168   0.32214   0.76224   0.00000  Uiso   1.00
C17    C     0.93017   0.27241   0.73371   0.00000  Uiso   1.00
C18    C     0.86584   0.55382   0.93157   0.00000  Uiso   1.00
C19    C     0.84698   0.65307   0.89588   0.00000  Uiso   1.00
C20    C     0.86503   0.75469   0.92845   0.00000  Uiso   1.00
C21    C     0.84293   0.37550   0.00961   0.00000  Uiso   1.00
C22    C     0.80481   0.32485   0.03955   0.00000  Uiso   1.00
C23    C     0.80358   0.27637   0.13785   0.00000  Uiso   1.00
H24    H     0.94463   0.43921   0.07831   0.00000  Uiso   1.00
H25    H     0.99180   0.32824   0.94750   0.00000  Uiso   1.00
H26    H     0.94711   0.65912   0.08112   0.00000  Uiso   1.00
H27    H     0.90495   0.33095   0.22477   0.00000  Uiso   1.00
H28    H     0.02839   0.20429   0.77339   0.00000  Uiso   1.00
H29    H     0.93414   0.90197   0.05516   0.00000  Uiso   1.00
H30    H     0.84524   0.20996   0.35808   0.00000  Uiso   1.00
H31    H     0.82358   0.43186   0.85437   0.00000  Uiso   1.00
H32    H     0.86411   0.32048   0.71126   0.00000  Uiso   1.00
H33    H     0.81941   0.65136   0.84488   0.00000  Uiso   1.00
H34    H     0.77725   0.32320   0.98853   0.00000  Uiso   1.00
H35    H     0.92475   0.19800   0.58165   0.00000  Uiso   1.00
H36    H     0.83050   0.89568   0.86343   0.00000  Uiso   1.00
H37    H     0.74160   0.20367   0.16634   0.00000  Uiso   1.00
O38    O     0.00542   0.12804   0.58741   0.00000  Uiso   1.00
O39    O     0.88176   0.04336   0.95710   0.00000  Uiso   1.00
O40    O     0.76513   0.13547   0.35452   0.00000  Uiso   1.00
N41    N     0.99844   0.21807   0.74791   0.00000  Uiso   1.00
N42    N     0.91032   0.87036   0.01134   0.00000  Uiso   1.00
N43    N     0.82720   0.22342   0.29455   0.00000  Uiso   1.00
N44    N     0.94267   0.21469   0.64474   0.00000  Uiso   1.00
N45    N     0.85455   0.86698   0.90816   0.00000  Uiso   1.00
N46    N     0.77143   0.22004   0.19138   0.00000  Uiso   1.00
C47    C     0.41132   0.61555   0.52963   0.00000  Uiso   1.00
C48    C     0.41856   0.55637   0.42572   0.00000  Uiso   1.00
C49    C     0.45611   0.50371   0.39448   0.00000  Uiso   1.00
C50    C     0.45631   0.45445   0.29647   0.00000  Uiso   1.00
C51    C     0.47304   0.36210   0.14490   0.00000  Uiso   1.00
C52    C     0.39741   0.73630   0.50359   0.00000  Uiso   1.00
C53    C     0.41717   0.83491   0.53784   0.00000  Uiso   1.00
C54    C     0.39956   0.93712   0.50539   0.00000  Uiso   1.00
C55    C     0.38344   0.12411   0.47478   0.00000  Uiso   1.00
C56    C     0.37248   0.55822   0.57835   0.00000  Uiso   1.00
C57    C     0.37127   0.50713   0.67548   0.00000  Uiso   1.00
C58    C     0.33267   0.45943   0.70599   0.00000  Uiso   1.00
C59    C     0.27784   0.36993   0.79145   0.00000  Uiso   1.00
C60    C     0.34490   0.62173   0.41110   0.00000  Uiso   1.00
C61    C     0.38248   0.55973   0.36134   0.00000  Uiso   1.00
C62    C     0.38262   0.51053   0.26335   0.00000  Uiso   1.00
C63    C     0.42016   0.45780   0.23198   0.00000  Uiso   1.00
C64    C     0.36133   0.73966   0.43921   0.00000  Uiso   1.00
C65    C     0.34368   0.84174   0.40671   0.00000  Uiso   1.00
C66    C     0.36341   0.94048   0.44090   0.00000  Uiso   1.00
C67    C     0.33640   0.56157   0.51397   0.00000  Uiso   1.00
C68    C     0.29779   0.51396   0.54434   0.00000  Uiso   1.00
C69    C     0.29653   0.46280   0.64150   0.00000  Uiso   1.00
H70    H     0.43941   0.61295   0.57975   0.00000  Uiso   1.00
H71    H     0.48402   0.50114   0.44432   0.00000  Uiso   1.00
H72    H     0.44509   0.83229   0.58767   0.00000  Uiso   1.00
H73    H     0.39920   0.50455   0.72528   0.00000  Uiso   1.00
H74    H     0.51758   0.37869   0.26578   0.00000  Uiso   1.00
H75    H     0.43547   0.07694   0.56806   0.00000  Uiso   1.00
H76    H     0.33871   0.38585   0.85824   0.00000  Uiso   1.00
H77    H     0.31681   0.62434   0.36098   0.00000  Uiso   1.00
H78    H     0.35470   0.51314   0.21355   0.00000  Uiso   1.00
H79    H     0.31576   0.84430   0.35690   0.00000  Uiso   1.00
H80    H     0.26987   0.51657   0.49450   0.00000  Uiso   1.00
H81    H     0.41262   0.38844   0.07847   0.00000  Uiso   1.00
H82    H     0.33051   0.08670   0.38075   0.00000  Uiso   1.00
H83    H     0.23375   0.39560   0.67093   0.00000  Uiso   1.00
O84    O     0.49224   0.31025   0.07907   0.00000  Uiso   1.00
O85    O     0.38451   0.22632   0.47567   0.00000  Uiso   1.00
O86    O     0.25757   0.31963   0.85637   0.00000  Uiso   1.00
N87    N     0.48768   0.39622   0.24193   0.00000  Uiso   1.00
N88    N     0.41091   0.04905   0.52453   0.00000  Uiso   1.00
N89    N     0.32045   0.40296   0.79584   0.00000  Uiso   1.00
N90    N     0.43119   0.40147   0.14115   0.00000  Uiso   1.00
N91    N     0.35443   0.05429   0.42375   0.00000  Uiso   1.00
N92    N     0.26397   0.40821   0.69505   0.00000  Uiso   1.00
C93    C     0.08310   0.56248   0.52700   0.00000  Uiso   1.00
C94    C     0.07426   0.62380   0.42488   0.00000  Uiso   1.00
C95    C     0.03576   0.67346   0.39648   0.00000  Uiso   1.00
C96    C     0.03414   0.72542   0.29972   0.00000  Uiso   1.00
C97    C     0.01499   0.82026   0.15116   0.00000  Uiso   1.00
C98    C     0.09854   0.44402   0.49747   0.00000  Uiso   1.00
C99    C     0.08046   0.34253   0.53011   0.00000  Uiso   1.00
C100   C     0.09928   0.24315   0.49447   0.00000  Uiso   1.00
C101   C     0.11784   0.05888   0.45865   0.00000  Uiso   1.00
C102   C     0.12145   0.62233   0.57551   0.00000  Uiso   1.00
C103   C     0.12263   0.67074   0.67379   0.00000  Uiso   1.00
C104   C     0.16074   0.72147   0.70387   0.00000  Uiso   1.00
C105   C     0.21486   0.81405   0.78923   0.00000  Uiso   1.00
C106   C     0.14869   0.56646   0.40568   0.00000  Uiso   1.00
C107   C     0.10988   0.62596   0.35898   0.00000  Uiso   1.00
C108   C     0.10832   0.67786   0.26224   0.00000  Uiso   1.00
C109   C     0.06983   0.72759   0.23371   0.00000  Uiso   1.00
C110   C     0.13416   0.44618   0.43157   0.00000  Uiso   1.00
C111   C     0.15302   0.34693   0.39588   0.00000  Uiso   1.00
C112   C     0.13497   0.24531   0.42845   0.00000  Uiso   1.00
C113   C     0.15707   0.62450   0.50961   0.00000  Uiso   1.00
C114   C     0.19519   0.67515   0.53955   0.00000  Uiso   1.00
C115   C     0.19642   0.72363   0.63785   0.00000  Uiso   1.00
H116   H     0.05537   0.56079   0.57831   0.00000  Uiso   1.00
H117   H     0.00820   0.67176   0.44750   0.00000  Uiso   1.00
H118   H     0.05289   0.34088   0.58112   0.00000  Uiso   1.00
H119   H     0.09505   0.66905   0.72477   0.00000  Uiso   1.00
H120   H     0.97161   0.79571   0.27339   0.00000  Uiso   1.00
H121   H     0.06586   0.09803   0.55516   0.00000  Uiso   1.00
H122   H     0.15476   0.79004   0.85808   0.00000  Uiso   1.00
H123   H     0.17642   0.56814   0.35437   0.00000  Uiso   1.00
H124   H     0.13589   0.67952   0.21126   0.00000  Uiso   1.00
H125   H     0.18059   0.34864   0.34488   0.00000  Uiso   1.00
H126   H     0.22275   0.67680   0.48853   0.00000  Uiso   1.00
H127   H     0.07525   0.80200   0.08165   0.00000  Uiso   1.00
H128   H     0.16950   0.10432   0.36343   0.00000  Uiso   1.00
H129   H     0.25840   0.79633   0.66634   0.00000  Uiso   1.00
O130   O     0.99458   0.87196   0.08741   0.00000  Uiso   1.00
O131   O     0.11824   0.95664   0.45710   0.00000  Uiso   1.00
O132   O     0.23487   0.86453   0.85452   0.00000  Uiso   1.00
N133   N     0.00156   0.78193   0.24791   0.00000  Uiso   1.00
N134   N     0.08968   0.12964   0.51134   0.00000  Uiso   1.00
N135   N     0.17280   0.77658   0.79455   0.00000  Uiso   1.00
N136   N     0.05733   0.78531   0.14474   0.00000  Uiso   1.00
N137   N     0.14545   0.13302   0.40816   0.00000  Uiso   1.00
N138   N     0.22857   0.77996   0.69138   0.00000  Uiso   1.00
C139   C     0.58868   0.38445   0.02963   0.00000  Uiso   1.00
C140   C     0.58144   0.44363   0.92572   0.00000  Uiso   1.00
C141   C     0.54389   0.49629   0.89448   0.00000  Uiso   1.00
C142   C     0.54369   0.54555   0.79647   0.00000  Uiso   1.00
C143   C     0.52696   0.63790   0.64490   0.00000  Uiso   1.00
C144   C     0.60259   0.26370   0.00359   0.00000  Uiso   1.00
C145   C     0.58283   0.16509   0.03784   0.00000  Uiso   1.00
C146   C     0.60044   0.06288   0.00539   0.00000  Uiso   1.00
C147   C     0.61656   0.87589   0.97478   0.00000  Uiso   1.00
C148   C     0.62752   0.44178   0.07835   0.00000  Uiso   1.00
C149   C     0.62873   0.49287   0.17548   0.00000  Uiso   1.00
C150   C     0.66733   0.54057   0.20599   0.00000  Uiso   1.00
C151   C     0.72216   0.63007   0.29145   0.00000  Uiso   1.00
C152   C     0.65510   0.37827   0.91110   0.00000  Uiso   1.00
C153   C     0.61752   0.44027   0.86134   0.00000  Uiso   1.00
C154   C     0.61738   0.48947   0.76335   0.00000  Uiso   1.00
C155   C     0.57984   0.54220   0.73198   0.00000  Uiso   1.00
C156   C     0.63867   0.26034   0.93921   0.00000  Uiso   1.00
C157   C     0.65632   0.15826   0.90671   0.00000  Uiso   1.00
C158   C     0.63659   0.05952   0.94090   0.00000  Uiso   1.00
C159   C     0.66360   0.43843   0.01397   0.00000  Uiso   1.00
C160   C     0.70221   0.48604   0.04434   0.00000  Uiso   1.00
C161   C     0.70347   0.53720   0.14150   0.00000  Uiso   1.00
H162   H     0.56059   0.38705   0.07975   0.00000  Uiso   1.00
H163   H     0.51598   0.49886   0.94432   0.00000  Uiso   1.00
H164   H     0.55491   0.16771   0.08767   0.00000  Uiso   1.00
H165   H     0.60080   0.49545   0.22528   0.00000  Uiso   1.00
H166   H     0.48242   0.62131   0.76578   0.00000  Uiso   1.00
H167   H     0.56453   0.92306   0.06806   0.00000  Uiso   1.00
H168   H     0.66129   0.61415   0.35824   0.00000  Uiso   1.00
H169   H     0.68319   0.37566   0.86098   0.00000  Uiso   1.00
H170   H     0.64530   0.48686   0.71355   0.00000  Uiso   1.00
H171   H     0.68424   0.15570   0.85690   0.00000  Uiso   1.00
H172   H     0.73013   0.48343   0.99450   0.00000  Uiso   1.00
H173   H     0.58738   0.61156   0.57847   0.00000  Uiso   1.00
H174   H     0.66949   0.91330   0.88075   0.00000  Uiso   1.00
H175   H     0.76625   0.60440   0.17093   0.00000  Uiso   1.00
O176   O     0.50776   0.68975   0.57907   0.00000  Uiso   1.00
O177   O     0.61549   0.77368   0.97567   0.00000  Uiso   1.00
O178   O     0.74243   0.68037   0.35637   0.00000  Uiso   1.00
N179   N     0.51232   0.60378   0.74193   0.00000  Uiso   1.00
N180   N     0.58909   0.95095   0.02453   0.00000  Uiso   1.00
N181   N     0.67955   0.59704   0.29584   0.00000  Uiso   1.00
N182   N     0.56881   0.59853   0.64115   0.00000  Uiso   1.00
N183   N     0.64557   0.94571   0.92375   0.00000  Uiso   1.00
N184   N     0.73603   0.59179   0.19505   0.00000  Uiso   1.00
C185   C     0.41690   0.06248   0.02700   0.00000  Uiso   1.00
C186   C     0.42574   0.12380   0.92488   0.00000  Uiso   1.00
C187   C     0.46424   0.17346   0.89648   0.00000  Uiso   1.00
C188   C     0.46586   0.22542   0.79972   0.00000  Uiso   1.00
C189   C     0.48501   0.32026   0.65116   0.00000  Uiso   1.00
C190   C     0.40146   0.94402   0.99747   0.00000  Uiso   1.00
C191   C     0.41954   0.84253   0.03011   0.00000  Uiso   1.00
C192   C     0.40072   0.74315   0.99447   0.00000  Uiso   1.00
C193   C     0.38216   0.55888   0.95865   0.00000  Uiso   1.00
C194   C     0.37855   0.12233   0.07551   0.00000  Uiso   1.00
C195   C     0.37737   0.17074   0.17379   0.00000  Uiso   1.00
C196   C     0.33926   0.22147   0.20387   0.00000  Uiso   1.00
C197   C     0.28514   0.31405   0.28923   0.00000  Uiso   1.00
C198   C     0.35131   0.06646   0.90568   0.00000  Uiso   1.00
C199   C     0.39012   0.12596   0.85898   0.00000  Uiso   1.00
C200   C     0.39168   0.17786   0.76224   0.00000  Uiso   1.00
C201   C     0.43017   0.22759   0.73371   0.00000  Uiso   1.00
C202   C     0.36584   0.94618   0.93157   0.00000  Uiso   1.00
C203   C     0.34698   0.84693   0.89588   0.00000  Uiso   1.00
C204   C     0.36503   0.74531   0.92845   0.00000  Uiso   1.00
C205   C     0.34293   0.12450   0.00961   0.00000  Uiso   1.00
C206   C     0.30481   0.17515   0.03955   0.00000  Uiso   1.00
C207   C     0.30358   0.22363   0.13785   0.00000  Uiso   1.00
H208   H     0.44463   0.06079   0.07831   0.00000  Uiso   1.00
H209   H     0.49180   0.17176   0.94750   0.00000  Uiso   1.00
H210   H     0.44711   0.84088   0.08112   0.00000  Uiso   1.00
H211   H     0.40495   0.16905   0.22477   0.00000  Uiso   1.00
H212   H     0.52839   0.29571   0.77339   0.00000  Uiso   1.00
H213   H     0.43414   0.59803   0.05516   0.00000  Uiso   1.00
H214   H     0.34524   0.29004   0.35808   0.00000  Uiso   1.00
H215   H     0.32358   0.06814   0.85437   0.00000  Uiso   1.00
H216   H     0.36411   0.17952   0.71126   0.00000  Uiso   1.00
H217   H     0.31941   0.84864   0.84488   0.00000  Uiso   1.00
H218   H     0.27725   0.17680   0.98853   0.00000  Uiso   1.00
H219   H     0.42475   0.30200   0.58165   0.00000  Uiso   1.00
H220   H     0.33050   0.60432   0.86343   0.00000  Uiso   1.00
H221   H     0.24160   0.29633   0.16634   0.00000  Uiso   1.00
O222   O     0.50542   0.37196   0.58741   0.00000  Uiso   1.00
O223   O     0.38176   0.45664   0.95710   0.00000  Uiso   1.00
O224   O     0.26513   0.36453   0.35452   0.00000  Uiso   1.00
N225   N     0.49844   0.28193   0.74791   0.00000  Uiso   1.00
N226   N     0.41032   0.62964   0.01134   0.00000  Uiso   1.00
N227   N     0.32720   0.27658   0.29455   0.00000  Uiso   1.00
N228   N     0.44267   0.28531   0.64474   0.00000  Uiso   1.00
N229   N     0.35455   0.63302   0.90816   0.00000  Uiso   1.00
N230   N     0.27143   0.27996   0.19138   0.00000  Uiso   1.00
C231   C     0.91132   0.88445   0.52963   0.00000  Uiso   1.00
C232   C     0.91856   0.94363   0.42572   0.00000  Uiso   1.00
C233   C     0.95611   0.99629   0.39448   0.00000  Uiso   1.00
C234   C     0.95631   0.04555   0.29647   0.00000  Uiso   1.00
C235   C     0.97304   0.13790   0.14490   0.00000  Uiso   1.00
C236   C     0.89741   0.76370   0.50359   0.00000  Uiso   1.00
C237   C     0.91717   0.66509   0.53784   0.00000  Uiso   1.00
C238   C     0.89956   0.56288   0.50539   0.00000  Uiso   1.00
C239   C     0.88344   0.37589   0.47478   0.00000  Uiso   1.00
C240   C     0.87248   0.94178   0.57835   0.00000  Uiso   1.00
C241   C     0.87127   0.99287   0.67548   0.00000  Uiso   1.00
C242   C     0.83267   0.04057   0.70599   0.00000  Uiso   1.00
C243   C     0.77784   0.13007   0.79145   0.00000  Uiso   1.00
C244   C     0.84490   0.87827   0.41110   0.00000  Uiso   1.00
C245   C     0.88248   0.94027   0.36134   0.00000  Uiso   1.00
C246   C     0.88262   0.98947   0.26335   0.00000  Uiso   1.00
C247   C     0.92016   0.04220   0.23198   0.00000  Uiso   1.00
C248   C     0.86133   0.76034   0.43921   0.00000  Uiso   1.00
C249   C     0.84368   0.65826   0.40671   0.00000  Uiso   1.00
C250   C     0.86341   0.55952   0.44090   0.00000  Uiso   1.00
C251   C     0.83640   0.93843   0.51397   0.00000  Uiso   1.00
C252   C     0.79779   0.98604   0.54434   0.00000  Uiso   1.00
C253   C     0.79653   0.03720   0.64150   0.00000  Uiso   1.00
H254   H     0.93941   0.88705   0.57975   0.00000  Uiso   1.00
H255   H     0.98402   0.99886   0.44432   0.00000  Uiso   1.00
H256   H     0.94509   0.66771   0.58767   0.00000  Uiso   1.00
H257   H     0.89920   0.99545   0.72528   0.00000  Uiso   1.00
H258   H     0.01758   0.12131   0.26578   0.00000  Uiso   1.00
H259   H     0.93547   0.42306   0.56806   0.00000  Uiso   1.00
H260   H     0.83871   0.11415   0.85824   0.00000  Uiso   1.00
H261   H     0.81681   0.87566   0.36098   0.00000  Uiso   1.00
H262   H     0.85470   0.98686   0.21355   0.00000  Uiso   1.00
H263   H     0.81576   0.65570   0.35690   0.00000  Uiso   1.00
H264   H     0.76987   0.98343   0.49450   0.00000  Uiso   1.00
H265   H     0.91262   0.11156   0.07847   0.00000  Uiso   1.00
H266   H     0.83051   0.41330   0.38075   0.00000  Uiso   1.00
H267   H     0.73375   0.10440   0.67093   0.00000  Uiso   1.00
O268   O     0.99224   0.18975   0.07907   0.00000  Uiso   1.00
O269   O     0.88451   0.27368   0.47567   0.00000  Uiso   1.00
O270   O     0.75757   0.18037   0.85637   0.00000  Uiso   1.00
N271   N     0.98768   0.10378   0.24193   0.00000  Uiso   1.00
N272   N     0.91091   0.45095   0.52453   0.00000  Uiso   1.00
N273   N     0.82045   0.09704   0.79584   0.00000  Uiso   1.00
N274   N     0.93119   0.09853   0.14115   0.00000  Uiso   1.00
N275   N     0.85443   0.44571   0.42375   0.00000  Uiso   1.00
N276   N     0.76397   0.09179   0.69505   0.00000  Uiso   1.00
C277   C     0.58310   0.93752   0.52700   0.00000  Uiso   1.00
C278   C     0.57426   0.87620   0.42488   0.00000  Uiso   1.00
C279   C     0.53576   0.82654   0.39648   0.00000  Uiso   1.00
C280   C     0.53414   0.77458   0.29972   0.00000  Uiso   1.00
C281   C     0.51499   0.67974   0.15116   0.00000  Uiso   1.00
C282   C     0.59854   0.05598   0.49747   0.00000  Uiso   1.00
C283   C     0.58046   0.15747   0.53011   0.00000  Uiso   1.00
C284   C     0.59928   0.25685   0.49447   0.00000  Uiso   1.00
C285   C     0.61784   0.44112   0.45865   0.00000  Uiso   1.00
C286   C     0.62145   0.87767   0.57551   0.00000  Uiso   1.00
C287   C     0.62263   0.82926   0.67379   0.00000  Uiso   1.00
C288   C     0.66074   0.77853   0.70387   0.00000  Uiso   1.00
C289   C     0.71486   0.68595   0.78923   0.00000  Uiso   1.00
C290   C     0.64869   0.93354   0.40568   0.00000  Uiso   1.00
C291   C     0.60988   0.87404   0.35898   0.00000  Uiso   1.00
C292   C     0.60832   0.82214   0.26224   0.00000  Uiso   1.00
C293   C     0.56983   0.77241   0.23371   0.00000  Uiso   1.00
C294   C     0.63416   0.05382   0.43157   0.00000  Uiso   1.00
C295   C     0.65302   0.15307   0.39588   0.00000  Uiso   1.00
C296   C     0.63497   0.25469   0.42845   0.00000  Uiso   1.00
C297   C     0.65707   0.87550   0.50961   0.00000  Uiso   1.00
C298   C     0.69519   0.82485   0.53955   0.00000  Uiso   1.00
C299   C     0.69642   0.77637   0.63785   0.00000  Uiso   1.00
H300   H     0.55537   0.93921   0.57831   0.00000  Uiso   1.00
H301   H     0.50820   0.82824   0.44750   0.00000  Uiso   1.00
H302   H     0.55289   0.15912   0.58112   0.00000  Uiso   1.00
H303   H     0.59505   0.83095   0.72477   0.00000  Uiso   1.00
H304   H     0.47161   0.70429   0.27339   0.00000  Uiso   1.00
H305   H     0.56586   0.40197   0.55516   0.00000  Uiso   1.00
H306   H     0.65476   0.70996   0.85808   0.00000  Uiso   1.00
H307   H     0.67642   0.93186   0.35437   0.00000  Uiso   1.00
H308   H     0.63589   0.82048   0.21126   0.00000  Uiso   1.00
H309   H     0.68059   0.15136   0.34488   0.00000  Uiso   1.00
H310   H     0.72275   0.82320   0.48853   0.00000  Uiso   1.00
H311   H     0.57525   0.69800   0.08165   0.00000  Uiso   1.00
H312   H     0.66950   0.39568   0.36343   0.00000  Uiso   1.00
H313   H     0.75840   0.70367   0.66634   0.00000  Uiso   1.00
O314   O     0.49458   0.62804   0.08741   0.00000  Uiso   1.00
O315   O     0.61824   0.54336   0.45710   0.00000  Uiso   1.00
O316   O     0.73487   0.63547   0.85452   0.00000  Uiso   1.00
N317   N     0.50156   0.71807   0.24791   0.00000  Uiso   1.00
N318   N     0.58968   0.37036   0.51134   0.00000  Uiso   1.00
N319   N     0.67280   0.72342   0.79455   0.00000  Uiso   1.00
N320   N     0.55733   0.71469   0.14474   0.00000  Uiso   1.00
N321   N     0.64545   0.36698   0.40816   0.00000  Uiso   1.00
N322   N     0.72857   0.72004   0.69138   0.00000  Uiso   1.00
C323   C     0.08868   0.11555   0.02963   0.00000  Uiso   1.00
C324   C     0.08144   0.05637   0.92572   0.00000  Uiso   1.00
C325   C     0.04389   0.00371   0.89448   0.00000  Uiso   1.00
C326   C     0.04369   0.95445   0.79647   0.00000  Uiso   1.00
C327   C     0.02696   0.86210   0.64490   0.00000  Uiso   1.00
C328   C     0.10259   0.23630   0.00359   0.00000  Uiso   1.00
C329   C     0.08283   0.33491   0.03784   0.00000  Uiso   1.00
C330   C     0.10044   0.43712   0.00539   0.00000  Uiso   1.00
C331   C     0.11656   0.62411   0.97478   0.00000  Uiso   1.00
C332   C     0.12752   0.05822   0.07835   0.00000  Uiso   1.00
C333   C     0.12873   0.00713   0.17548   0.00000  Uiso   1.00
C334   C     0.16733   0.95943   0.20599   0.00000  Uiso   1.00
C335   C     0.22216   0.86993   0.29145   0.00000  Uiso   1.00
C336   C     0.15510   0.12173   0.91110   0.00000  Uiso   1.00
C337   C     0.11752   0.05973   0.86134   0.00000  Uiso   1.00
C338   C     0.11738   0.01053   0.76335   0.00000  Uiso   1.00
C339   C     0.07984   0.95780   0.73198   0.00000  Uiso   1.00
C340   C     0.13867   0.23966   0.93921   0.00000  Uiso   1.00
C341   C     0.15632   0.34174   0.90671   0.00000  Uiso   1.00
C342   C     0.13659   0.44048   0.94090   0.00000  Uiso   1.00
C343   C     0.16360   0.06157   0.01397   0.00000  Uiso   1.00
C344   C     0.20221   0.01396   0.04434   0.00000  Uiso   1.00
C345   C     0.20347   0.96280   0.14150   0.00000  Uiso   1.00
H346   H     0.06059   0.11295   0.07975   0.00000  Uiso   1.00
H347   H     0.01598   0.00114   0.94432   0.00000  Uiso   1.00
H348   H     0.05491   0.33229   0.08767   0.00000  Uiso   1.00
H349   H     0.10080   0.00455   0.22528   0.00000  Uiso   1.00
H350   H     0.98242   0.87869   0.76578   0.00000  Uiso   1.00
H351   H     0.06453   0.57694   0.06806   0.00000  Uiso   1.00
H352   H     0.16129   0.88585   0.35824   0.00000  Uiso   1.00
H353   H     0.18319   0.12434   0.86098   0.00000  Uiso   1.00
H354   H     0.14530   0.01314   0.71355   0.00000  Uiso   1.00
H355   H     0.18424   0.34430   0.85690   0.00000  Uiso   1.00
H356   H     0.23013   0.01657   0.99450   0.00000  Uiso   1.00
H357   H     0.08738   0.88844   0.57847   0.00000  Uiso   1.00
H358   H     0.16949   0.58670   0.88075   0.00000  Uiso   1.00
H359   H     0.26625   0.89560   0.17093   0.00000  Uiso   1.00
O360   O     0.00776   0.81025   0.57907   0.00000  Uiso   1.00
O361   O     0.11549   0.72632   0.97567   0.00000  Uiso   1.00
O362   O     0.24243   0.81963   0.35637   0.00000  Uiso   1.00
N363   N     0.01232   0.89622   0.74193   0.00000  Uiso   1.00
N364   N     0.08909   0.54905   0.02453   0.00000  Uiso   1.00
N365   N     0.17955   0.90296   0.29584   0.00000  Uiso   1.00
N366   N     0.06881   0.90147   0.64115   0.00000  Uiso   1.00
N367   N     0.14557   0.55429   0.92375   0.00000  Uiso   1.00
N368   N     0.23603   0.90821   0.19505   0.00000  Uiso   1.00
