data_job_01783
_audit_creation_date              2018-12-19
_audit_creation_method            'Materials Studio'
_symmetry_space_group_name_H-M    'P1'
_symmetry_Int_Tables_number       1
_symmetry_cell_setting            triclinic
loop_
_symmetry_equiv_pos_as_xyz
  x,y,z
_cell_length_a                    20.6637
_cell_length_b                    21.1039
_cell_length_c                    14.0141
_cell_angle_alpha                 90.0000
_cell_angle_beta                  49.0547
_cell_angle_gamma                 90.0000
loop_
_atom_site_label
_atom_site_type_symbol
_atom_site_fract_x
_atom_site_fract_y
_atom_site_fract_z
_atom_site_U_iso_or_equiv
_atom_site_adp_type
_atom_site_occupancy
C1     C     0.40369   0.35363   0.69064   0.00000  Uiso   1.00
C2     C     0.36538   0.34789   0.62792   0.00000  Uiso   1.00
C3     C     0.29649   0.38245   0.65969   0.00000  Uiso   1.00
C4     C     0.27111   0.37022   0.59107   0.00000  Uiso   1.00
C5     C     0.20521   0.36815   0.50847   0.00000  Uiso   1.00
C6     C     0.40036   0.28731   0.73690   0.00000  Uiso   1.00
C7     C     0.36089   0.27095   0.86029   0.00000  Uiso   1.00
C8     C     0.36496   0.20773   0.88339   0.00000  Uiso   1.00
C9     C     0.35341   0.11162   0.96996   0.00000  Uiso   1.00
C10    C     0.49838   0.36869   0.58487   0.00000  Uiso   1.00
C11    C     0.54133   0.42074   0.58045   0.00000  Uiso   1.00
C12    C     0.62793   0.42603   0.47556   0.00000  Uiso   1.00
C13    C     0.76857   0.45628   0.32608   0.00000  Uiso   1.00
C14    C     0.48112   0.27046   0.51227   0.00000  Uiso   1.00
C15    C     0.40744   0.30271   0.53104   0.00000  Uiso   1.00
C16    C     0.38216   0.29043   0.46235   0.00000  Uiso   1.00
C17    C     0.31325   0.32496   0.49401   0.00000  Uiso   1.00
C18    C     0.44241   0.24214   0.64002   0.00000  Uiso   1.00
C19    C     0.44655   0.17892   0.66294   0.00000  Uiso   1.00
C20    C     0.40709   0.16247   0.78634   0.00000  Uiso   1.00
C21    C     0.54043   0.32351   0.48798   0.00000  Uiso   1.00
C22    C     0.62699   0.32872   0.38309   0.00000  Uiso   1.00
C23    C     0.67007   0.38077   0.37851   0.00000  Uiso   1.00
H24    H     0.37094   0.38880   0.76607   0.00000  Uiso   1.00
H25    H     0.26396   0.41740   0.73469   0.00000  Uiso   1.00
H26    H     0.32835   0.30592   0.93524   0.00000  Uiso   1.00
H27    H     0.50876   0.45569   0.65544   0.00000  Uiso   1.00
H28    H     0.16387   0.42917   0.65719   0.00000  Uiso   1.00
H29    H     0.29967   0.19411   0.08007   0.00000  Uiso   1.00
H30    H     0.68010   0.50993   0.49005   0.00000  Uiso   1.00
H31    H     0.51386   0.23528   0.43684   0.00000  Uiso   1.00
H32    H     0.41472   0.25546   0.38738   0.00000  Uiso   1.00
H33    H     0.47911   0.14398   0.58794   0.00000  Uiso   1.00
H34    H     0.65952   0.29375   0.30814   0.00000  Uiso   1.00
H35    H     0.28623   0.29773   0.37531   0.00000  Uiso   1.00
H36    H     0.42203   0.06267   0.79819   0.00000  Uiso   1.00
H37    H     0.80246   0.37849   0.20817   0.00000  Uiso   1.00
O38    O     0.15723   0.37948   0.48969   0.00000  Uiso   1.00
O39    O     0.33541   0.07109   0.04448   0.00000  Uiso   1.00
O40    O     0.83453   0.48544   0.27039   0.00000  Uiso   1.00
N41    N     0.20629   0.39548   0.59762   0.00000  Uiso   1.00
N42    N     0.33324   0.17571   0.99299   0.00000  Uiso   1.00
N43    N     0.68892   0.47096   0.44139   0.00000  Uiso   1.00
N44    N     0.27213   0.32475   0.44594   0.00000  Uiso   1.00
N45    N     0.39908   0.10498   0.84131   0.00000  Uiso   1.00
N46    N     0.75476   0.40024   0.28971   0.00000  Uiso   1.00
C47    C     0.90369   0.85363   0.69064   0.00000  Uiso   1.00
C48    C     0.86538   0.84789   0.62792   0.00000  Uiso   1.00
C49    C     0.79649   0.88245   0.65969   0.00000  Uiso   1.00
C50    C     0.77111   0.87022   0.59107   0.00000  Uiso   1.00
C51    C     0.70521   0.86815   0.50847   0.00000  Uiso   1.00
C52    C     0.90036   0.78731   0.73690   0.00000  Uiso   1.00
C53    C     0.86089   0.77095   0.86029   0.00000  Uiso   1.00
C54    C     0.86496   0.70773   0.88339   0.00000  Uiso   1.00
C55    C     0.85341   0.61162   0.96996   0.00000  Uiso   1.00
C56    C     0.99838   0.86869   0.58487   0.00000  Uiso   1.00
C57    C     0.04133   0.92074   0.58045   0.00000  Uiso   1.00
C58    C     0.12793   0.92603   0.47556   0.00000  Uiso   1.00
C59    C     0.26857   0.95628   0.32608   0.00000  Uiso   1.00
C60    C     0.98112   0.77046   0.51227   0.00000  Uiso   1.00
C61    C     0.90744   0.80271   0.53104   0.00000  Uiso   1.00
C62    C     0.88216   0.79043   0.46235   0.00000  Uiso   1.00
C63    C     0.81325   0.82496   0.49401   0.00000  Uiso   1.00
C64    C     0.94241   0.74214   0.64002   0.00000  Uiso   1.00
C65    C     0.94655   0.67892   0.66294   0.00000  Uiso   1.00
C66    C     0.90709   0.66247   0.78634   0.00000  Uiso   1.00
C67    C     0.04043   0.82351   0.48798   0.00000  Uiso   1.00
C68    C     0.12699   0.82872   0.38309   0.00000  Uiso   1.00
C69    C     0.17007   0.88077   0.37851   0.00000  Uiso   1.00
H70    H     0.87094   0.88880   0.76607   0.00000  Uiso   1.00
H71    H     0.76396   0.91740   0.73469   0.00000  Uiso   1.00
H72    H     0.82835   0.80592   0.93524   0.00000  Uiso   1.00
H73    H     0.00876   0.95569   0.65544   0.00000  Uiso   1.00
H74    H     0.66387   0.92917   0.65719   0.00000  Uiso   1.00
H75    H     0.79967   0.69411   0.08007   0.00000  Uiso   1.00
H76    H     0.18010   0.00993   0.49005   0.00000  Uiso   1.00
H77    H     0.01386   0.73528   0.43684   0.00000  Uiso   1.00
H78    H     0.91472   0.75546   0.38738   0.00000  Uiso   1.00
H79    H     0.97911   0.64398   0.58794   0.00000  Uiso   1.00
H80    H     0.15952   0.79375   0.30814   0.00000  Uiso   1.00
H81    H     0.78623   0.79773   0.37531   0.00000  Uiso   1.00
H82    H     0.92203   0.56267   0.79819   0.00000  Uiso   1.00
H83    H     0.30246   0.87849   0.20817   0.00000  Uiso   1.00
O84    O     0.65723   0.87948   0.48969   0.00000  Uiso   1.00
O85    O     0.83541   0.57109   0.04448   0.00000  Uiso   1.00
O86    O     0.33453   0.98544   0.27039   0.00000  Uiso   1.00
N87    N     0.70629   0.89548   0.59762   0.00000  Uiso   1.00
N88    N     0.83324   0.67571   0.99299   0.00000  Uiso   1.00
N89    N     0.18892   0.97096   0.44139   0.00000  Uiso   1.00
N90    N     0.77213   0.82475   0.44594   0.00000  Uiso   1.00
N91    N     0.89908   0.60498   0.84131   0.00000  Uiso   1.00
N92    N     0.25476   0.90024   0.28971   0.00000  Uiso   1.00
C93    C     0.59631   0.35363   0.80936   0.00000  Uiso   1.00
C94    C     0.63462   0.34789   0.87208   0.00000  Uiso   1.00
C95    C     0.70351   0.38245   0.84031   0.00000  Uiso   1.00
C96    C     0.72889   0.37022   0.90893   0.00000  Uiso   1.00
C97    C     0.79479   0.36815   0.99153   0.00000  Uiso   1.00
C98    C     0.59964   0.28731   0.76310   0.00000  Uiso   1.00
C99    C     0.63911   0.27095   0.63971   0.00000  Uiso   1.00
C100   C     0.63504   0.20773   0.61661   0.00000  Uiso   1.00
C101   C     0.64659   0.11162   0.53004   0.00000  Uiso   1.00
C102   C     0.50162   0.36869   0.91513   0.00000  Uiso   1.00
C103   C     0.45867   0.42074   0.91955   0.00000  Uiso   1.00
C104   C     0.37207   0.42603   0.02444   0.00000  Uiso   1.00
C105   C     0.23143   0.45628   0.17392   0.00000  Uiso   1.00
C106   C     0.51888   0.27046   0.98773   0.00000  Uiso   1.00
C107   C     0.59256   0.30271   0.96896   0.00000  Uiso   1.00
C108   C     0.61784   0.29043   0.03765   0.00000  Uiso   1.00
C109   C     0.68675   0.32496   0.00599   0.00000  Uiso   1.00
C110   C     0.55759   0.24214   0.85998   0.00000  Uiso   1.00
C111   C     0.55345   0.17892   0.83706   0.00000  Uiso   1.00
C112   C     0.59291   0.16247   0.71366   0.00000  Uiso   1.00
C113   C     0.45957   0.32351   0.01202   0.00000  Uiso   1.00
C114   C     0.37301   0.32872   0.11691   0.00000  Uiso   1.00
C115   C     0.32993   0.38077   0.12149   0.00000  Uiso   1.00
H116   H     0.62906   0.38880   0.73393   0.00000  Uiso   1.00
H117   H     0.73604   0.41740   0.76531   0.00000  Uiso   1.00
H118   H     0.67165   0.30592   0.56476   0.00000  Uiso   1.00
H119   H     0.49124   0.45569   0.84456   0.00000  Uiso   1.00
H120   H     0.83613   0.42917   0.84281   0.00000  Uiso   1.00
H121   H     0.70033   0.19411   0.41993   0.00000  Uiso   1.00
H122   H     0.31990   0.50993   0.00995   0.00000  Uiso   1.00
H123   H     0.48614   0.23528   0.06316   0.00000  Uiso   1.00
H124   H     0.58528   0.25546   0.11262   0.00000  Uiso   1.00
H125   H     0.52089   0.14398   0.91206   0.00000  Uiso   1.00
H126   H     0.34048   0.29375   0.19186   0.00000  Uiso   1.00
H127   H     0.71377   0.29773   0.12469   0.00000  Uiso   1.00
H128   H     0.57797   0.06267   0.70181   0.00000  Uiso   1.00
H129   H     0.19754   0.37849   0.29183   0.00000  Uiso   1.00
O130   O     0.84277   0.37948   0.01031   0.00000  Uiso   1.00
O131   O     0.66459   0.07109   0.45552   0.00000  Uiso   1.00
O132   O     0.16547   0.48544   0.22961   0.00000  Uiso   1.00
N133   N     0.79371   0.39548   0.90238   0.00000  Uiso   1.00
N134   N     0.66676   0.17571   0.50701   0.00000  Uiso   1.00
N135   N     0.31108   0.47096   0.05861   0.00000  Uiso   1.00
N136   N     0.72787   0.32475   0.05406   0.00000  Uiso   1.00
N137   N     0.60092   0.10498   0.65869   0.00000  Uiso   1.00
N138   N     0.24524   0.40024   0.21029   0.00000  Uiso   1.00
C139   C     0.09631   0.85363   0.80936   0.00000  Uiso   1.00
C140   C     0.13462   0.84789   0.87208   0.00000  Uiso   1.00
C141   C     0.20351   0.88245   0.84031   0.00000  Uiso   1.00
C142   C     0.22889   0.87022   0.90893   0.00000  Uiso   1.00
C143   C     0.29479   0.86815   0.99153   0.00000  Uiso   1.00
C144   C     0.09964   0.78731   0.76310   0.00000  Uiso   1.00
C145   C     0.13911   0.77095   0.63971   0.00000  Uiso   1.00
C146   C     0.13504   0.70773   0.61661   0.00000  Uiso   1.00
C147   C     0.14659   0.61162   0.53004   0.00000  Uiso   1.00
C148   C     0.00162   0.86869   0.91513   0.00000  Uiso   1.00
C149   C     0.95867   0.92074   0.91955   0.00000  Uiso   1.00
C150   C     0.87207   0.92603   0.02444   0.00000  Uiso   1.00
C151   C     0.73143   0.95628   0.17392   0.00000  Uiso   1.00
C152   C     0.01888   0.77046   0.98773   0.00000  Uiso   1.00
C153   C     0.09256   0.80271   0.96896   0.00000  Uiso   1.00
C154   C     0.11784   0.79043   0.03765   0.00000  Uiso   1.00
C155   C     0.18675   0.82496   0.00599   0.00000  Uiso   1.00
C156   C     0.05759   0.74214   0.85998   0.00000  Uiso   1.00
C157   C     0.05345   0.67892   0.83706   0.00000  Uiso   1.00
C158   C     0.09291   0.66247   0.71366   0.00000  Uiso   1.00
C159   C     0.95957   0.82351   0.01202   0.00000  Uiso   1.00
C160   C     0.87301   0.82872   0.11691   0.00000  Uiso   1.00
C161   C     0.82993   0.88077   0.12149   0.00000  Uiso   1.00
H162   H     0.12906   0.88880   0.73393   0.00000  Uiso   1.00
H163   H     0.23604   0.91740   0.76531   0.00000  Uiso   1.00
H164   H     0.17165   0.80592   0.56476   0.00000  Uiso   1.00
H165   H     0.99124   0.95569   0.84456   0.00000  Uiso   1.00
H166   H     0.33613   0.92917   0.84281   0.00000  Uiso   1.00
H167   H     0.20033   0.69411   0.41993   0.00000  Uiso   1.00
H168   H     0.81990   0.00993   0.00995   0.00000  Uiso   1.00
H169   H     0.98614   0.73528   0.06316   0.00000  Uiso   1.00
H170   H     0.08528   0.75546   0.11262   0.00000  Uiso   1.00
H171   H     0.02089   0.64398   0.91206   0.00000  Uiso   1.00
H172   H     0.84048   0.79375   0.19186   0.00000  Uiso   1.00
H173   H     0.21377   0.79773   0.12469   0.00000  Uiso   1.00
H174   H     0.07797   0.56267   0.70181   0.00000  Uiso   1.00
H175   H     0.69754   0.87849   0.29183   0.00000  Uiso   1.00
O176   O     0.34277   0.87948   0.01031   0.00000  Uiso   1.00
O177   O     0.16459   0.57109   0.45552   0.00000  Uiso   1.00
O178   O     0.66547   0.98544   0.22961   0.00000  Uiso   1.00
N179   N     0.29371   0.89548   0.90238   0.00000  Uiso   1.00
N180   N     0.16676   0.67571   0.50701   0.00000  Uiso   1.00
N181   N     0.81108   0.97096   0.05861   0.00000  Uiso   1.00
N182   N     0.22787   0.82475   0.05406   0.00000  Uiso   1.00
N183   N     0.10092   0.60498   0.65869   0.00000  Uiso   1.00
N184   N     0.74524   0.90024   0.21029   0.00000  Uiso   1.00
C185   C     0.59631   0.64637   0.30936   0.00000  Uiso   1.00
C186   C     0.63462   0.65211   0.37208   0.00000  Uiso   1.00
C187   C     0.70351   0.61755   0.34031   0.00000  Uiso   1.00
C188   C     0.72889   0.62978   0.40893   0.00000  Uiso   1.00
C189   C     0.79479   0.63185   0.49153   0.00000  Uiso   1.00
C190   C     0.59964   0.71269   0.26310   0.00000  Uiso   1.00
C191   C     0.63911   0.72905   0.13971   0.00000  Uiso   1.00
C192   C     0.63504   0.79227   0.11661   0.00000  Uiso   1.00
C193   C     0.64659   0.88838   0.03004   0.00000  Uiso   1.00
C194   C     0.50162   0.63131   0.41513   0.00000  Uiso   1.00
C195   C     0.45867   0.57926   0.41955   0.00000  Uiso   1.00
C196   C     0.37207   0.57397   0.52444   0.00000  Uiso   1.00
C197   C     0.23143   0.54372   0.67392   0.00000  Uiso   1.00
C198   C     0.51888   0.72954   0.48773   0.00000  Uiso   1.00
C199   C     0.59256   0.69729   0.46896   0.00000  Uiso   1.00
C200   C     0.61784   0.70957   0.53765   0.00000  Uiso   1.00
C201   C     0.68675   0.67504   0.50599   0.00000  Uiso   1.00
C202   C     0.55759   0.75786   0.35998   0.00000  Uiso   1.00
C203   C     0.55345   0.82108   0.33706   0.00000  Uiso   1.00
C204   C     0.59291   0.83753   0.21366   0.00000  Uiso   1.00
C205   C     0.45957   0.67649   0.51202   0.00000  Uiso   1.00
C206   C     0.37301   0.67128   0.61691   0.00000  Uiso   1.00
C207   C     0.32993   0.61923   0.62149   0.00000  Uiso   1.00
H208   H     0.62906   0.61120   0.23393   0.00000  Uiso   1.00
H209   H     0.73604   0.58260   0.26531   0.00000  Uiso   1.00
H210   H     0.67165   0.69408   0.06476   0.00000  Uiso   1.00
H211   H     0.49124   0.54431   0.34456   0.00000  Uiso   1.00
H212   H     0.83613   0.57083   0.34281   0.00000  Uiso   1.00
H213   H     0.70033   0.80589   0.91993   0.00000  Uiso   1.00
H214   H     0.31990   0.49007   0.50995   0.00000  Uiso   1.00
H215   H     0.48614   0.76472   0.56316   0.00000  Uiso   1.00
H216   H     0.58528   0.74454   0.61262   0.00000  Uiso   1.00
H217   H     0.52089   0.85602   0.41206   0.00000  Uiso   1.00
H218   H     0.34048   0.70625   0.69186   0.00000  Uiso   1.00
H219   H     0.71377   0.70227   0.62469   0.00000  Uiso   1.00
H220   H     0.57797   0.93733   0.20181   0.00000  Uiso   1.00
H221   H     0.19754   0.62151   0.79183   0.00000  Uiso   1.00
O222   O     0.84277   0.62052   0.51031   0.00000  Uiso   1.00
O223   O     0.66459   0.92891   0.95552   0.00000  Uiso   1.00
O224   O     0.16547   0.51456   0.72961   0.00000  Uiso   1.00
N225   N     0.79371   0.60452   0.40238   0.00000  Uiso   1.00
N226   N     0.66676   0.82429   0.00701   0.00000  Uiso   1.00
N227   N     0.31108   0.52904   0.55861   0.00000  Uiso   1.00
N228   N     0.72787   0.67525   0.55406   0.00000  Uiso   1.00
N229   N     0.60092   0.89502   0.15869   0.00000  Uiso   1.00
N230   N     0.24524   0.59976   0.71029   0.00000  Uiso   1.00
C231   C     0.09631   0.14637   0.30936   0.00000  Uiso   1.00
C232   C     0.13462   0.15211   0.37208   0.00000  Uiso   1.00
C233   C     0.20351   0.11755   0.34031   0.00000  Uiso   1.00
C234   C     0.22889   0.12978   0.40893   0.00000  Uiso   1.00
C235   C     0.29479   0.13185   0.49153   0.00000  Uiso   1.00
C236   C     0.09964   0.21269   0.26310   0.00000  Uiso   1.00
C237   C     0.13911   0.22905   0.13971   0.00000  Uiso   1.00
C238   C     0.13504   0.29227   0.11661   0.00000  Uiso   1.00
C239   C     0.14659   0.38838   0.03004   0.00000  Uiso   1.00
C240   C     0.00162   0.13131   0.41513   0.00000  Uiso   1.00
C241   C     0.95867   0.07926   0.41955   0.00000  Uiso   1.00
C242   C     0.87207   0.07397   0.52444   0.00000  Uiso   1.00
C243   C     0.73143   0.04372   0.67392   0.00000  Uiso   1.00
C244   C     0.01888   0.22954   0.48773   0.00000  Uiso   1.00
C245   C     0.09256   0.19729   0.46896   0.00000  Uiso   1.00
C246   C     0.11784   0.20957   0.53765   0.00000  Uiso   1.00
C247   C     0.18675   0.17504   0.50599   0.00000  Uiso   1.00
C248   C     0.05759   0.25786   0.35998   0.00000  Uiso   1.00
C249   C     0.05345   0.32108   0.33706   0.00000  Uiso   1.00
C250   C     0.09291   0.33753   0.21366   0.00000  Uiso   1.00
C251   C     0.95957   0.17649   0.51202   0.00000  Uiso   1.00
C252   C     0.87301   0.17128   0.61691   0.00000  Uiso   1.00
C253   C     0.82993   0.11923   0.62149   0.00000  Uiso   1.00
H254   H     0.12906   0.11120   0.23393   0.00000  Uiso   1.00
H255   H     0.23604   0.08260   0.26531   0.00000  Uiso   1.00
H256   H     0.17165   0.19408   0.06476   0.00000  Uiso   1.00
H257   H     0.99124   0.04431   0.34456   0.00000  Uiso   1.00
H258   H     0.33613   0.07083   0.34281   0.00000  Uiso   1.00
H259   H     0.20033   0.30589   0.91993   0.00000  Uiso   1.00
H260   H     0.81990   0.99007   0.50995   0.00000  Uiso   1.00
H261   H     0.98614   0.26472   0.56316   0.00000  Uiso   1.00
H262   H     0.08528   0.24454   0.61262   0.00000  Uiso   1.00
H263   H     0.02089   0.35602   0.41206   0.00000  Uiso   1.00
H264   H     0.84048   0.20625   0.69186   0.00000  Uiso   1.00
H265   H     0.21377   0.20227   0.62469   0.00000  Uiso   1.00
H266   H     0.07797   0.43733   0.20181   0.00000  Uiso   1.00
H267   H     0.69754   0.12151   0.79183   0.00000  Uiso   1.00
O268   O     0.34277   0.12052   0.51031   0.00000  Uiso   1.00
O269   O     0.16459   0.42891   0.95552   0.00000  Uiso   1.00
O270   O     0.66547   0.01456   0.72961   0.00000  Uiso   1.00
N271   N     0.29371   0.10452   0.40238   0.00000  Uiso   1.00
N272   N     0.16676   0.32429   0.00701   0.00000  Uiso   1.00
N273   N     0.81108   0.02904   0.55861   0.00000  Uiso   1.00
N274   N     0.22787   0.17525   0.55406   0.00000  Uiso   1.00
N275   N     0.10092   0.39502   0.15869   0.00000  Uiso   1.00
N276   N     0.74524   0.09976   0.71029   0.00000  Uiso   1.00
C277   C     0.40369   0.64637   0.19064   0.00000  Uiso   1.00
C278   C     0.36538   0.65211   0.12792   0.00000  Uiso   1.00
C279   C     0.29649   0.61755   0.15969   0.00000  Uiso   1.00
C280   C     0.27111   0.62978   0.09107   0.00000  Uiso   1.00
C281   C     0.20521   0.63185   0.00847   0.00000  Uiso   1.00
C282   C     0.40036   0.71269   0.23690   0.00000  Uiso   1.00
C283   C     0.36089   0.72905   0.36029   0.00000  Uiso   1.00
C284   C     0.36496   0.79227   0.38339   0.00000  Uiso   1.00
C285   C     0.35341   0.88838   0.46996   0.00000  Uiso   1.00
C286   C     0.49838   0.63131   0.08487   0.00000  Uiso   1.00
C287   C     0.54133   0.57926   0.08045   0.00000  Uiso   1.00
C288   C     0.62793   0.57397   0.97556   0.00000  Uiso   1.00
C289   C     0.76857   0.54372   0.82608   0.00000  Uiso   1.00
C290   C     0.48112   0.72954   0.01227   0.00000  Uiso   1.00
C291   C     0.40744   0.69729   0.03104   0.00000  Uiso   1.00
C292   C     0.38216   0.70957   0.96235   0.00000  Uiso   1.00
C293   C     0.31325   0.67504   0.99401   0.00000  Uiso   1.00
C294   C     0.44241   0.75786   0.14002   0.00000  Uiso   1.00
C295   C     0.44655   0.82108   0.16294   0.00000  Uiso   1.00
C296   C     0.40709   0.83753   0.28634   0.00000  Uiso   1.00
C297   C     0.54043   0.67649   0.98798   0.00000  Uiso   1.00
C298   C     0.62699   0.67128   0.88309   0.00000  Uiso   1.00
C299   C     0.67007   0.61923   0.87851   0.00000  Uiso   1.00
H300   H     0.37094   0.61120   0.26607   0.00000  Uiso   1.00
H301   H     0.26396   0.58260   0.23469   0.00000  Uiso   1.00
H302   H     0.32835   0.69408   0.43524   0.00000  Uiso   1.00
H303   H     0.50876   0.54431   0.15544   0.00000  Uiso   1.00
H304   H     0.16387   0.57083   0.15719   0.00000  Uiso   1.00
H305   H     0.29967   0.80589   0.58007   0.00000  Uiso   1.00
H306   H     0.68010   0.49007   0.99005   0.00000  Uiso   1.00
H307   H     0.51386   0.76472   0.93684   0.00000  Uiso   1.00
H308   H     0.41472   0.74454   0.88738   0.00000  Uiso   1.00
H309   H     0.47911   0.85602   0.08794   0.00000  Uiso   1.00
H310   H     0.65952   0.70625   0.80814   0.00000  Uiso   1.00
H311   H     0.28623   0.70227   0.87531   0.00000  Uiso   1.00
H312   H     0.42203   0.93733   0.29819   0.00000  Uiso   1.00
H313   H     0.80246   0.62151   0.70817   0.00000  Uiso   1.00
O314   O     0.15723   0.62052   0.98969   0.00000  Uiso   1.00
O315   O     0.33541   0.92891   0.54448   0.00000  Uiso   1.00
O316   O     0.83453   0.51456   0.77039   0.00000  Uiso   1.00
N317   N     0.20629   0.60452   0.09762   0.00000  Uiso   1.00
N318   N     0.33324   0.82429   0.49299   0.00000  Uiso   1.00
N319   N     0.68892   0.52904   0.94139   0.00000  Uiso   1.00
N320   N     0.27213   0.67525   0.94594   0.00000  Uiso   1.00
N321   N     0.39908   0.89502   0.34131   0.00000  Uiso   1.00
N322   N     0.75476   0.59976   0.78971   0.00000  Uiso   1.00
C323   C     0.90369   0.14637   0.19064   0.00000  Uiso   1.00
C324   C     0.86538   0.15211   0.12792   0.00000  Uiso   1.00
C325   C     0.79649   0.11755   0.15969   0.00000  Uiso   1.00
C326   C     0.77111   0.12978   0.09107   0.00000  Uiso   1.00
C327   C     0.70521   0.13185   0.00847   0.00000  Uiso   1.00
C328   C     0.90036   0.21269   0.23690   0.00000  Uiso   1.00
C329   C     0.86089   0.22905   0.36029   0.00000  Uiso   1.00
C330   C     0.86496   0.29227   0.38339   0.00000  Uiso   1.00
C331   C     0.85341   0.38838   0.46996   0.00000  Uiso   1.00
C332   C     0.99838   0.13131   0.08487   0.00000  Uiso   1.00
C333   C     0.04133   0.07926   0.08045   0.00000  Uiso   1.00
C334   C     0.12793   0.07397   0.97556   0.00000  Uiso   1.00
C335   C     0.26857   0.04372   0.82608   0.00000  Uiso   1.00
C336   C     0.98112   0.22954   0.01227   0.00000  Uiso   1.00
C337   C     0.90744   0.19729   0.03104   0.00000  Uiso   1.00
C338   C     0.88216   0.20957   0.96235   0.00000  Uiso   1.00
C339   C     0.81325   0.17504   0.99401   0.00000  Uiso   1.00
C340   C     0.94241   0.25786   0.14002   0.00000  Uiso   1.00
C341   C     0.94655   0.32108   0.16294   0.00000  Uiso   1.00
C342   C     0.90709   0.33753   0.28634   0.00000  Uiso   1.00
C343   C     0.04043   0.17649   0.98798   0.00000  Uiso   1.00
C344   C     0.12699   0.17128   0.88309   0.00000  Uiso   1.00
C345   C     0.17007   0.11923   0.87851   0.00000  Uiso   1.00
H346   H     0.87094   0.11120   0.26607   0.00000  Uiso   1.00
H347   H     0.76396   0.08260   0.23469   0.00000  Uiso   1.00
H348   H     0.82835   0.19408   0.43524   0.00000  Uiso   1.00
H349   H     0.00876   0.04431   0.15544   0.00000  Uiso   1.00
H350   H     0.66387   0.07083   0.15719   0.00000  Uiso   1.00
H351   H     0.79967   0.30589   0.58007   0.00000  Uiso   1.00
H352   H     0.18010   0.99007   0.99005   0.00000  Uiso   1.00
H353   H     0.01386   0.26472   0.93684   0.00000  Uiso   1.00
H354   H     0.91472   0.24454   0.88738   0.00000  Uiso   1.00
H355   H     0.97911   0.35602   0.08794   0.00000  Uiso   1.00
H356   H     0.15952   0.20625   0.80814   0.00000  Uiso   1.00
H357   H     0.78623   0.20227   0.87531   0.00000  Uiso   1.00
H358   H     0.92203   0.43733   0.29819   0.00000  Uiso   1.00
H359   H     0.30246   0.12151   0.70817   0.00000  Uiso   1.00
O360   O     0.65723   0.12052   0.98969   0.00000  Uiso   1.00
O361   O     0.83541   0.42891   0.54448   0.00000  Uiso   1.00
O362   O     0.33453   0.01456   0.77039   0.00000  Uiso   1.00
N363   N     0.70629   0.10452   0.09762   0.00000  Uiso   1.00
N364   N     0.83324   0.32429   0.49299   0.00000  Uiso   1.00
N365   N     0.18892   0.02904   0.94139   0.00000  Uiso   1.00
N366   N     0.77213   0.17525   0.94594   0.00000  Uiso   1.00
N367   N     0.89908   0.39502   0.34131   0.00000  Uiso   1.00
N368   N     0.25476   0.09976   0.78971   0.00000  Uiso   1.00
