data_job_05419
_audit_creation_date              2018-12-19
_audit_creation_method            'Materials Studio'
_symmetry_space_group_name_H-M    'P1'
_symmetry_Int_Tables_number       1
_symmetry_cell_setting            triclinic
loop_
_symmetry_equiv_pos_as_xyz
  x,y,z
_cell_length_a                    18.0240
_cell_length_b                    10.0587
_cell_length_c                    15.5084
_cell_angle_alpha                 90.0000
_cell_angle_beta                  97.0483
_cell_angle_gamma                 90.0000
loop_
_atom_site_label
_atom_site_type_symbol
_atom_site_fract_x
_atom_site_fract_y
_atom_site_fract_z
_atom_site_U_iso_or_equiv
_atom_site_adp_type
_atom_site_occupancy
C1     C     0.18927   0.61905   0.55979   0.00000  Uiso   1.00
C2     C     0.18773   0.51513   0.63114   0.00000  Uiso   1.00
C3     C     0.19355   0.37868   0.62059   0.00000  Uiso   1.00
C4     C     0.19090   0.30039   0.69388   0.00000  Uiso   1.00
C5     C     0.18971   0.13047   0.79236   0.00000  Uiso   1.00
C6     C     0.11718   0.69869   0.55878   0.00000  Uiso   1.00
C7     C     0.06369   0.71659   0.48737   0.00000  Uiso   1.00
C8     C     0.00166   0.79284   0.49975   0.00000  Uiso   1.00
C9     C     0.89097   0.90798   0.48586   0.00000  Uiso   1.00
C10    C     0.25259   0.71433   0.59151   0.00000  Uiso   1.00
C11    C     0.31295   0.74540   0.54761   0.00000  Uiso   1.00
C12    C     0.36492   0.83485   0.58754   0.00000  Uiso   1.00
C13    C     0.46447   0.97427   0.62446   0.00000  Uiso   1.00
C14    C     0.17424   0.72267   0.70871   0.00000  Uiso   1.00
C15    C     0.17956   0.57142   0.71203   0.00000  Uiso   1.00
C16    C     0.17691   0.49332   0.78536   0.00000  Uiso   1.00
C17    C     0.18272   0.35677   0.77492   0.00000  Uiso   1.00
C18    C     0.10901   0.75497   0.63966   0.00000  Uiso   1.00
C19    C     0.04705   0.83123   0.65214   0.00000  Uiso   1.00
C20    C     0.99347   0.84923   0.58078   0.00000  Uiso   1.00
C21    C     0.24443   0.77061   0.67240   0.00000  Uiso   1.00
C22    C     0.29631   0.86004   0.71239   0.00000  Uiso   1.00
C23    C     0.35673   0.89124   0.66857   0.00000  Uiso   1.00
H24    H     0.19563   0.57523   0.49681   0.00000  Uiso   1.00
H25    H     0.19986   0.33516   0.55798   0.00000  Uiso   1.00
H26    H     0.07003   0.67303   0.42478   0.00000  Uiso   1.00
H27    H     0.31925   0.70183   0.48502   0.00000  Uiso   1.00
H28    H     0.20092   0.09381   0.66146   0.00000  Uiso   1.00
H29    H     0.92717   0.80626   0.38060   0.00000  Uiso   1.00
H30    H     0.45271   0.86700   0.50762   0.00000  Uiso   1.00
H31    H     0.16787   0.76649   0.77169   0.00000  Uiso   1.00
H32    H     0.17059   0.53690   0.84795   0.00000  Uiso   1.00
H33    H     0.04075   0.87477   0.71475   0.00000  Uiso   1.00
H34    H     0.28997   0.90357   0.77498   0.00000  Uiso   1.00
H35    H     0.17716   0.25755   0.89681   0.00000  Uiso   1.00
H36    H     0.90341   0.97001   0.61595   0.00000  Uiso   1.00
H37    H     0.42894   0.03074   0.74297   0.00000  Uiso   1.00
O38    O     0.19130   0.02119   0.82433   0.00000  Uiso   1.00
O39    O     0.83216   0.95593   0.45585   0.00000  Uiso   1.00
O40    O     0.52165   0.03561   0.62249   0.00000  Uiso   1.00
N41    N     0.19497   0.16385   0.70639   0.00000  Uiso   1.00
N42    N     0.93903   0.82994   0.44381   0.00000  Uiso   1.00
N43    N     0.43035   0.88675   0.56254   0.00000  Uiso   1.00
N44    N     0.18219   0.25196   0.83303   0.00000  Uiso   1.00
N45    N     0.92624   0.91805   0.57044   0.00000  Uiso   1.00
N46    N     0.41756   0.97486   0.68918   0.00000  Uiso   1.00
C47    C     0.81073   0.61905   0.94021   0.00000  Uiso   1.00
C48    C     0.81227   0.51513   0.86886   0.00000  Uiso   1.00
C49    C     0.80645   0.37868   0.87941   0.00000  Uiso   1.00
C50    C     0.80910   0.30039   0.80612   0.00000  Uiso   1.00
C51    C     0.81029   0.13047   0.70764   0.00000  Uiso   1.00
C52    C     0.88282   0.69869   0.94122   0.00000  Uiso   1.00
C53    C     0.93631   0.71659   0.01263   0.00000  Uiso   1.00
C54    C     0.99834   0.79284   0.00025   0.00000  Uiso   1.00
C55    C     0.10903   0.90798   0.01414   0.00000  Uiso   1.00
C56    C     0.74741   0.71433   0.90849   0.00000  Uiso   1.00
C57    C     0.68705   0.74540   0.95239   0.00000  Uiso   1.00
C58    C     0.63508   0.83485   0.91246   0.00000  Uiso   1.00
C59    C     0.53553   0.97427   0.87554   0.00000  Uiso   1.00
C60    C     0.82576   0.72267   0.79129   0.00000  Uiso   1.00
C61    C     0.82044   0.57142   0.78797   0.00000  Uiso   1.00
C62    C     0.82309   0.49332   0.71464   0.00000  Uiso   1.00
C63    C     0.81728   0.35677   0.72508   0.00000  Uiso   1.00
C64    C     0.89099   0.75497   0.86034   0.00000  Uiso   1.00
C65    C     0.95295   0.83123   0.84786   0.00000  Uiso   1.00
C66    C     0.00653   0.84923   0.91922   0.00000  Uiso   1.00
C67    C     0.75557   0.77061   0.82760   0.00000  Uiso   1.00
C68    C     0.70369   0.86004   0.78761   0.00000  Uiso   1.00
C69    C     0.64327   0.89124   0.83143   0.00000  Uiso   1.00
H70    H     0.80437   0.57523   0.00319   0.00000  Uiso   1.00
H71    H     0.80014   0.33516   0.94202   0.00000  Uiso   1.00
H72    H     0.92997   0.67303   0.07522   0.00000  Uiso   1.00
H73    H     0.68075   0.70183   0.01498   0.00000  Uiso   1.00
H74    H     0.79908   0.09381   0.83854   0.00000  Uiso   1.00
H75    H     0.07283   0.80626   0.11940   0.00000  Uiso   1.00
H76    H     0.54729   0.86700   0.99238   0.00000  Uiso   1.00
H77    H     0.83213   0.76649   0.72831   0.00000  Uiso   1.00
H78    H     0.82941   0.53690   0.65205   0.00000  Uiso   1.00
H79    H     0.95925   0.87477   0.78525   0.00000  Uiso   1.00
H80    H     0.71003   0.90357   0.72502   0.00000  Uiso   1.00
H81    H     0.82284   0.25755   0.60319   0.00000  Uiso   1.00
H82    H     0.09659   0.97001   0.88405   0.00000  Uiso   1.00
H83    H     0.57106   0.03074   0.75703   0.00000  Uiso   1.00
O84    O     0.80870   0.02119   0.67567   0.00000  Uiso   1.00
O85    O     0.16784   0.95593   0.04415   0.00000  Uiso   1.00
O86    O     0.47835   0.03561   0.87751   0.00000  Uiso   1.00
N87    N     0.80503   0.16385   0.79361   0.00000  Uiso   1.00
N88    N     0.06097   0.82994   0.05619   0.00000  Uiso   1.00
N89    N     0.56965   0.88675   0.93746   0.00000  Uiso   1.00
N90    N     0.81781   0.25196   0.66697   0.00000  Uiso   1.00
N91    N     0.07376   0.91805   0.92956   0.00000  Uiso   1.00
N92    N     0.58244   0.97486   0.81082   0.00000  Uiso   1.00
C93    C     0.81073   0.38095   0.44021   0.00000  Uiso   1.00
C94    C     0.81227   0.48487   0.36886   0.00000  Uiso   1.00
C95    C     0.80645   0.62132   0.37941   0.00000  Uiso   1.00
C96    C     0.80910   0.69961   0.30612   0.00000  Uiso   1.00
C97    C     0.81029   0.86953   0.20764   0.00000  Uiso   1.00
C98    C     0.88282   0.30131   0.44122   0.00000  Uiso   1.00
C99    C     0.93631   0.28341   0.51263   0.00000  Uiso   1.00
C100   C     0.99834   0.20716   0.50025   0.00000  Uiso   1.00
C101   C     0.10903   0.09202   0.51414   0.00000  Uiso   1.00
C102   C     0.74741   0.28567   0.40849   0.00000  Uiso   1.00
C103   C     0.68705   0.25460   0.45239   0.00000  Uiso   1.00
C104   C     0.63508   0.16515   0.41246   0.00000  Uiso   1.00
C105   C     0.53553   0.02573   0.37554   0.00000  Uiso   1.00
C106   C     0.82576   0.27733   0.29129   0.00000  Uiso   1.00
C107   C     0.82044   0.42858   0.28797   0.00000  Uiso   1.00
C108   C     0.82309   0.50668   0.21464   0.00000  Uiso   1.00
C109   C     0.81728   0.64323   0.22508   0.00000  Uiso   1.00
C110   C     0.89099   0.24503   0.36034   0.00000  Uiso   1.00
C111   C     0.95295   0.16877   0.34786   0.00000  Uiso   1.00
C112   C     0.00653   0.15077   0.41922   0.00000  Uiso   1.00
C113   C     0.75557   0.22939   0.32760   0.00000  Uiso   1.00
C114   C     0.70369   0.13996   0.28761   0.00000  Uiso   1.00
C115   C     0.64327   0.10876   0.33143   0.00000  Uiso   1.00
H116   H     0.80437   0.42477   0.50319   0.00000  Uiso   1.00
H117   H     0.80014   0.66484   0.44202   0.00000  Uiso   1.00
H118   H     0.92997   0.32697   0.57522   0.00000  Uiso   1.00
H119   H     0.68075   0.29817   0.51498   0.00000  Uiso   1.00
H120   H     0.79908   0.90619   0.33854   0.00000  Uiso   1.00
H121   H     0.07283   0.19374   0.61940   0.00000  Uiso   1.00
H122   H     0.54729   0.13300   0.49238   0.00000  Uiso   1.00
H123   H     0.83213   0.23351   0.22831   0.00000  Uiso   1.00
H124   H     0.82941   0.46310   0.15205   0.00000  Uiso   1.00
H125   H     0.95925   0.12523   0.28525   0.00000  Uiso   1.00
H126   H     0.71003   0.09643   0.22502   0.00000  Uiso   1.00
H127   H     0.82284   0.74245   0.10319   0.00000  Uiso   1.00
H128   H     0.09659   0.02999   0.38405   0.00000  Uiso   1.00
H129   H     0.57106   0.96926   0.25703   0.00000  Uiso   1.00
O130   O     0.80870   0.97881   0.17567   0.00000  Uiso   1.00
O131   O     0.16784   0.04407   0.54415   0.00000  Uiso   1.00
O132   O     0.47835   0.96439   0.37751   0.00000  Uiso   1.00
N133   N     0.80503   0.83615   0.29361   0.00000  Uiso   1.00
N134   N     0.06097   0.17006   0.55619   0.00000  Uiso   1.00
N135   N     0.56965   0.11325   0.43746   0.00000  Uiso   1.00
N136   N     0.81781   0.74804   0.16697   0.00000  Uiso   1.00
N137   N     0.07376   0.08195   0.42956   0.00000  Uiso   1.00
N138   N     0.58244   0.02514   0.31082   0.00000  Uiso   1.00
C139   C     0.18927   0.38095   0.05979   0.00000  Uiso   1.00
C140   C     0.18773   0.48487   0.13114   0.00000  Uiso   1.00
C141   C     0.19355   0.62132   0.12059   0.00000  Uiso   1.00
C142   C     0.19090   0.69961   0.19388   0.00000  Uiso   1.00
C143   C     0.18971   0.86953   0.29236   0.00000  Uiso   1.00
C144   C     0.11718   0.30131   0.05878   0.00000  Uiso   1.00
C145   C     0.06369   0.28341   0.98737   0.00000  Uiso   1.00
C146   C     0.00166   0.20716   0.99975   0.00000  Uiso   1.00
C147   C     0.89097   0.09202   0.98586   0.00000  Uiso   1.00
C148   C     0.25259   0.28567   0.09151   0.00000  Uiso   1.00
C149   C     0.31295   0.25460   0.04761   0.00000  Uiso   1.00
C150   C     0.36492   0.16515   0.08754   0.00000  Uiso   1.00
C151   C     0.46447   0.02573   0.12446   0.00000  Uiso   1.00
C152   C     0.17424   0.27733   0.20871   0.00000  Uiso   1.00
C153   C     0.17956   0.42858   0.21203   0.00000  Uiso   1.00
C154   C     0.17691   0.50668   0.28536   0.00000  Uiso   1.00
C155   C     0.18272   0.64323   0.27492   0.00000  Uiso   1.00
C156   C     0.10901   0.24503   0.13966   0.00000  Uiso   1.00
C157   C     0.04705   0.16877   0.15214   0.00000  Uiso   1.00
C158   C     0.99347   0.15077   0.08078   0.00000  Uiso   1.00
C159   C     0.24443   0.22939   0.17240   0.00000  Uiso   1.00
C160   C     0.29631   0.13996   0.21239   0.00000  Uiso   1.00
C161   C     0.35673   0.10876   0.16857   0.00000  Uiso   1.00
H162   H     0.19563   0.42477   0.99681   0.00000  Uiso   1.00
H163   H     0.19986   0.66484   0.05798   0.00000  Uiso   1.00
H164   H     0.07003   0.32697   0.92478   0.00000  Uiso   1.00
H165   H     0.31925   0.29817   0.98502   0.00000  Uiso   1.00
H166   H     0.20092   0.90619   0.16146   0.00000  Uiso   1.00
H167   H     0.92717   0.19374   0.88060   0.00000  Uiso   1.00
H168   H     0.45271   0.13300   0.00762   0.00000  Uiso   1.00
H169   H     0.16787   0.23351   0.27169   0.00000  Uiso   1.00
H170   H     0.17059   0.46310   0.34795   0.00000  Uiso   1.00
H171   H     0.04075   0.12523   0.21475   0.00000  Uiso   1.00
H172   H     0.28997   0.09643   0.27498   0.00000  Uiso   1.00
H173   H     0.17716   0.74245   0.39681   0.00000  Uiso   1.00
H174   H     0.90341   0.02999   0.11595   0.00000  Uiso   1.00
H175   H     0.42894   0.96926   0.24297   0.00000  Uiso   1.00
O176   O     0.19130   0.97881   0.32433   0.00000  Uiso   1.00
O177   O     0.83216   0.04407   0.95585   0.00000  Uiso   1.00
O178   O     0.52165   0.96439   0.12249   0.00000  Uiso   1.00
N179   N     0.19497   0.83615   0.20639   0.00000  Uiso   1.00
N180   N     0.93903   0.17006   0.94381   0.00000  Uiso   1.00
N181   N     0.43035   0.11325   0.06254   0.00000  Uiso   1.00
N182   N     0.18219   0.74804   0.33303   0.00000  Uiso   1.00
N183   N     0.92624   0.08195   0.07044   0.00000  Uiso   1.00
N184   N     0.41756   0.02514   0.18918   0.00000  Uiso   1.00
