data_job_01438
_audit_creation_date              2018-12-19
_audit_creation_method            'Materials Studio'
_symmetry_space_group_name_H-M    'P1'
_symmetry_Int_Tables_number       1
_symmetry_cell_setting            triclinic
loop_
_symmetry_equiv_pos_as_xyz
  x,y,z
_cell_length_a                    37.1356
_cell_length_b                    14.5740
_cell_length_c                    9.3446
_cell_angle_alpha                 90.0000
_cell_angle_beta                  90.0000
_cell_angle_gamma                 90.0000
loop_
_atom_site_label
_atom_site_type_symbol
_atom_site_fract_x
_atom_site_fract_y
_atom_site_fract_z
_atom_site_U_iso_or_equiv
_atom_site_adp_type
_atom_site_occupancy
C1     C     0.63148   0.84180   0.03661   0.00000  Uiso   1.00
C2     C     0.64541   0.92878   0.10846   0.00000  Uiso   1.00
C3     C     0.64516   0.94637   0.25441   0.00000  Uiso   1.00
C4     C     0.65912   0.03002   0.29887   0.00000  Uiso   1.00
C5     C     0.67866   0.15541   0.42535   0.00000  Uiso   1.00
C6     C     0.60343   0.87312   0.92787   0.00000  Uiso   1.00
C7     C     0.56789   0.84391   0.92198   0.00000  Uiso   1.00
C8     C     0.54653   0.88070   0.81439   0.00000  Uiso   1.00
C9     C     0.50090   0.91963   0.66044   0.00000  Uiso   1.00
C10    C     0.66289   0.80386   0.94974   0.00000  Uiso   1.00
C11    C     0.67733   0.71639   0.96220   0.00000  Uiso   1.00
C12    C     0.70601   0.69485   0.87300   0.00000  Uiso   1.00
C13    C     0.75269   0.62624   0.75300   0.00000  Uiso   1.00
C14    C     0.65672   0.95906   0.85602   0.00000  Uiso   1.00
C15    C     0.65912   0.99247   0.01037   0.00000  Uiso   1.00
C16    C     0.67309   0.07611   0.05461   0.00000  Uiso   1.00
C17    C     0.67286   0.09382   0.20060   0.00000  Uiso   1.00
C18    C     0.61715   0.93681   0.82978   0.00000  Uiso   1.00
C19    C     0.59583   0.97365   0.72217   0.00000  Uiso   1.00
C20    C     0.56027   0.94451   0.71612   0.00000  Uiso   1.00
C21    C     0.67660   0.86755   0.85165   0.00000  Uiso   1.00
C22    C     0.70526   0.84614   0.76240   0.00000  Uiso   1.00
C23    C     0.71975   0.75866   0.77473   0.00000  Uiso   1.00
H24    H     0.62080   0.79221   0.11297   0.00000  Uiso   1.00
H25    H     0.63454   0.89707   0.33029   0.00000  Uiso   1.00
H26    H     0.55729   0.79462   0.99789   0.00000  Uiso   1.00
H27    H     0.66671   0.66712   0.03812   0.00000  Uiso   1.00
H28    H     0.65581   0.04142   0.52796   0.00000  Uiso   1.00
H29    H     0.49293   0.82538   0.82706   0.00000  Uiso   1.00
H30    H     0.72366   0.55653   0.91187   0.00000  Uiso   1.00
H31    H     0.66740   0.00865   0.77965   0.00000  Uiso   1.00
H32    H     0.68370   0.12539   0.97868   0.00000  Uiso   1.00
H33    H     0.60645   0.02293   0.64628   0.00000  Uiso   1.00
H34    H     0.71587   0.89544   0.68651   0.00000  Uiso   1.00
H35    H     0.69571   0.22674   0.24258   0.00000  Uiso   1.00
H36    H     0.53283   0.01068   0.54167   0.00000  Uiso   1.00
H37    H     0.76356   0.74184   0.62649   0.00000  Uiso   1.00
O38    O     0.68563   0.20698   0.52221   0.00000  Uiso   1.00
O39    O     0.47194   0.92352   0.60264   0.00000  Uiso   1.00
O40    O     0.77465   0.57080   0.71392   0.00000  Uiso   1.00
N41    N     0.66297   0.06901   0.43348   0.00000  Uiso   1.00
N42    N     0.51068   0.86703   0.77820   0.00000  Uiso   1.00
N43    N     0.72639   0.61567   0.85747   0.00000  Uiso   1.00
N44    N     0.68444   0.16872   0.27992   0.00000  Uiso   1.00
N45    N     0.53215   0.96674   0.62464   0.00000  Uiso   1.00
N46    N     0.74786   0.71538   0.70390   0.00000  Uiso   1.00
C47    C     0.86852   0.15820   0.53661   0.00000  Uiso   1.00
C48    C     0.85459   0.07122   0.60846   0.00000  Uiso   1.00
C49    C     0.85484   0.05363   0.75441   0.00000  Uiso   1.00
C50    C     0.84088   0.96998   0.79887   0.00000  Uiso   1.00
C51    C     0.82134   0.84459   0.92535   0.00000  Uiso   1.00
C52    C     0.89657   0.12688   0.42787   0.00000  Uiso   1.00
C53    C     0.93211   0.15609   0.42198   0.00000  Uiso   1.00
C54    C     0.95347   0.11930   0.31439   0.00000  Uiso   1.00
C55    C     0.99910   0.08037   0.16044   0.00000  Uiso   1.00
C56    C     0.83711   0.19614   0.44974   0.00000  Uiso   1.00
C57    C     0.82267   0.28361   0.46220   0.00000  Uiso   1.00
C58    C     0.79399   0.30515   0.37300   0.00000  Uiso   1.00
C59    C     0.74731   0.37376   0.25300   0.00000  Uiso   1.00
C60    C     0.84328   0.04094   0.35602   0.00000  Uiso   1.00
C61    C     0.84088   0.00753   0.51037   0.00000  Uiso   1.00
C62    C     0.82691   0.92389   0.55461   0.00000  Uiso   1.00
C63    C     0.82714   0.90618   0.70060   0.00000  Uiso   1.00
C64    C     0.88285   0.06319   0.32978   0.00000  Uiso   1.00
C65    C     0.90417   0.02635   0.22217   0.00000  Uiso   1.00
C66    C     0.93973   0.05549   0.21612   0.00000  Uiso   1.00
C67    C     0.82340   0.13245   0.35165   0.00000  Uiso   1.00
C68    C     0.79474   0.15386   0.26240   0.00000  Uiso   1.00
C69    C     0.78025   0.24134   0.27473   0.00000  Uiso   1.00
H70    H     0.87920   0.20779   0.61297   0.00000  Uiso   1.00
H71    H     0.86546   0.10293   0.83029   0.00000  Uiso   1.00
H72    H     0.94271   0.20538   0.49789   0.00000  Uiso   1.00
H73    H     0.83329   0.33288   0.53812   0.00000  Uiso   1.00
H74    H     0.84419   0.95858   0.02796   0.00000  Uiso   1.00
H75    H     0.00707   0.17462   0.32706   0.00000  Uiso   1.00
H76    H     0.77634   0.44347   0.41187   0.00000  Uiso   1.00
H77    H     0.83260   0.99135   0.27965   0.00000  Uiso   1.00
H78    H     0.81630   0.87461   0.47868   0.00000  Uiso   1.00
H79    H     0.89355   0.97707   0.14628   0.00000  Uiso   1.00
H80    H     0.78413   0.10456   0.18651   0.00000  Uiso   1.00
H81    H     0.80429   0.77326   0.74258   0.00000  Uiso   1.00
H82    H     0.96717   0.98932   0.04167   0.00000  Uiso   1.00
H83    H     0.73644   0.25816   0.12649   0.00000  Uiso   1.00
O84    O     0.81437   0.79302   0.02221   0.00000  Uiso   1.00
O85    O     0.02806   0.07648   0.10264   0.00000  Uiso   1.00
O86    O     0.72535   0.42920   0.21392   0.00000  Uiso   1.00
N87    N     0.83703   0.93099   0.93348   0.00000  Uiso   1.00
N88    N     0.98932   0.13297   0.27820   0.00000  Uiso   1.00
N89    N     0.77361   0.38433   0.35747   0.00000  Uiso   1.00
N90    N     0.81556   0.83128   0.77992   0.00000  Uiso   1.00
N91    N     0.96785   0.03326   0.12464   0.00000  Uiso   1.00
N92    N     0.75214   0.28462   0.20390   0.00000  Uiso   1.00
C93    C     0.36852   0.34180   0.46339   0.00000  Uiso   1.00
C94    C     0.35459   0.42878   0.39154   0.00000  Uiso   1.00
C95    C     0.35484   0.44637   0.24559   0.00000  Uiso   1.00
C96    C     0.34088   0.53002   0.20113   0.00000  Uiso   1.00
C97    C     0.32134   0.65541   0.07465   0.00000  Uiso   1.00
C98    C     0.39657   0.37312   0.57213   0.00000  Uiso   1.00
C99    C     0.43211   0.34391   0.57802   0.00000  Uiso   1.00
C100   C     0.45347   0.38070   0.68561   0.00000  Uiso   1.00
C101   C     0.49910   0.41963   0.83956   0.00000  Uiso   1.00
C102   C     0.33711   0.30386   0.55026   0.00000  Uiso   1.00
C103   C     0.32267   0.21639   0.53780   0.00000  Uiso   1.00
C104   C     0.29399   0.19485   0.62700   0.00000  Uiso   1.00
C105   C     0.24731   0.12624   0.74700   0.00000  Uiso   1.00
C106   C     0.34328   0.45906   0.64398   0.00000  Uiso   1.00
C107   C     0.34088   0.49247   0.48963   0.00000  Uiso   1.00
C108   C     0.32691   0.57611   0.44539   0.00000  Uiso   1.00
C109   C     0.32714   0.59382   0.29940   0.00000  Uiso   1.00
C110   C     0.38285   0.43681   0.67022   0.00000  Uiso   1.00
C111   C     0.40417   0.47365   0.77783   0.00000  Uiso   1.00
C112   C     0.43973   0.44451   0.78388   0.00000  Uiso   1.00
C113   C     0.32340   0.36755   0.64835   0.00000  Uiso   1.00
C114   C     0.29474   0.34614   0.73760   0.00000  Uiso   1.00
C115   C     0.28025   0.25866   0.72527   0.00000  Uiso   1.00
H116   H     0.37920   0.29221   0.38703   0.00000  Uiso   1.00
H117   H     0.36546   0.39707   0.16971   0.00000  Uiso   1.00
H118   H     0.44271   0.29462   0.50211   0.00000  Uiso   1.00
H119   H     0.33329   0.16712   0.46188   0.00000  Uiso   1.00
H120   H     0.34419   0.54142   0.97204   0.00000  Uiso   1.00
H121   H     0.50707   0.32538   0.67294   0.00000  Uiso   1.00
H122   H     0.27634   0.05653   0.58813   0.00000  Uiso   1.00
H123   H     0.33260   0.50865   0.72035   0.00000  Uiso   1.00
H124   H     0.31630   0.62539   0.52132   0.00000  Uiso   1.00
H125   H     0.39355   0.52293   0.85372   0.00000  Uiso   1.00
H126   H     0.28413   0.39544   0.81349   0.00000  Uiso   1.00
H127   H     0.30429   0.72674   0.25742   0.00000  Uiso   1.00
H128   H     0.46717   0.51068   0.95833   0.00000  Uiso   1.00
H129   H     0.23644   0.24184   0.87351   0.00000  Uiso   1.00
O130   O     0.31437   0.70698   0.97779   0.00000  Uiso   1.00
O131   O     0.52806   0.42352   0.89736   0.00000  Uiso   1.00
O132   O     0.22535   0.07080   0.78608   0.00000  Uiso   1.00
N133   N     0.33703   0.56901   0.06652   0.00000  Uiso   1.00
N134   N     0.48932   0.36703   0.72180   0.00000  Uiso   1.00
N135   N     0.27361   0.11567   0.64253   0.00000  Uiso   1.00
N136   N     0.31556   0.66872   0.22008   0.00000  Uiso   1.00
N137   N     0.46785   0.46674   0.87536   0.00000  Uiso   1.00
N138   N     0.25214   0.21538   0.79610   0.00000  Uiso   1.00
C139   C     0.13148   0.65820   0.96339   0.00000  Uiso   1.00
C140   C     0.14541   0.57122   0.89154   0.00000  Uiso   1.00
C141   C     0.14516   0.55363   0.74559   0.00000  Uiso   1.00
C142   C     0.15912   0.46998   0.70113   0.00000  Uiso   1.00
C143   C     0.17866   0.34459   0.57465   0.00000  Uiso   1.00
C144   C     0.10343   0.62688   0.07213   0.00000  Uiso   1.00
C145   C     0.06789   0.65609   0.07802   0.00000  Uiso   1.00
C146   C     0.04653   0.61930   0.18561   0.00000  Uiso   1.00
C147   C     0.00090   0.58037   0.33956   0.00000  Uiso   1.00
C148   C     0.16289   0.69614   0.05026   0.00000  Uiso   1.00
C149   C     0.17733   0.78361   0.03780   0.00000  Uiso   1.00
C150   C     0.20601   0.80515   0.12700   0.00000  Uiso   1.00
C151   C     0.25269   0.87376   0.24700   0.00000  Uiso   1.00
C152   C     0.15672   0.54094   0.14398   0.00000  Uiso   1.00
C153   C     0.15912   0.50753   0.98963   0.00000  Uiso   1.00
C154   C     0.17309   0.42389   0.94539   0.00000  Uiso   1.00
C155   C     0.17286   0.40618   0.79940   0.00000  Uiso   1.00
C156   C     0.11715   0.56319   0.17022   0.00000  Uiso   1.00
C157   C     0.09583   0.52635   0.27783   0.00000  Uiso   1.00
C158   C     0.06027   0.55549   0.28388   0.00000  Uiso   1.00
C159   C     0.17660   0.63245   0.14835   0.00000  Uiso   1.00
C160   C     0.20526   0.65386   0.23760   0.00000  Uiso   1.00
C161   C     0.21975   0.74134   0.22527   0.00000  Uiso   1.00
H162   H     0.12080   0.70779   0.88703   0.00000  Uiso   1.00
H163   H     0.13454   0.60293   0.66971   0.00000  Uiso   1.00
H164   H     0.05729   0.70538   0.00211   0.00000  Uiso   1.00
H165   H     0.16671   0.83288   0.96188   0.00000  Uiso   1.00
H166   H     0.15581   0.45858   0.47204   0.00000  Uiso   1.00
H167   H     0.99293   0.67462   0.17294   0.00000  Uiso   1.00
H168   H     0.22366   0.94347   0.08813   0.00000  Uiso   1.00
H169   H     0.16740   0.49135   0.22035   0.00000  Uiso   1.00
H170   H     0.18370   0.37461   0.02132   0.00000  Uiso   1.00
H171   H     0.10645   0.47707   0.35372   0.00000  Uiso   1.00
H172   H     0.21587   0.60456   0.31349   0.00000  Uiso   1.00
H173   H     0.19571   0.27326   0.75742   0.00000  Uiso   1.00
H174   H     0.03283   0.48932   0.45833   0.00000  Uiso   1.00
H175   H     0.26356   0.75816   0.37351   0.00000  Uiso   1.00
O176   O     0.18563   0.29302   0.47779   0.00000  Uiso   1.00
O177   O     0.97194   0.57648   0.39736   0.00000  Uiso   1.00
O178   O     0.27465   0.92920   0.28608   0.00000  Uiso   1.00
N179   N     0.16297   0.43099   0.56652   0.00000  Uiso   1.00
N180   N     0.01068   0.63297   0.22180   0.00000  Uiso   1.00
N181   N     0.22639   0.88433   0.14253   0.00000  Uiso   1.00
N182   N     0.18444   0.33128   0.72008   0.00000  Uiso   1.00
N183   N     0.03215   0.53326   0.37536   0.00000  Uiso   1.00
N184   N     0.24786   0.78462   0.29610   0.00000  Uiso   1.00
C185   C     0.36852   0.15820   0.96339   0.00000  Uiso   1.00
C186   C     0.35459   0.07122   0.89154   0.00000  Uiso   1.00
C187   C     0.35484   0.05363   0.74559   0.00000  Uiso   1.00
C188   C     0.34088   0.96998   0.70113   0.00000  Uiso   1.00
C189   C     0.32134   0.84459   0.57465   0.00000  Uiso   1.00
C190   C     0.39657   0.12688   0.07213   0.00000  Uiso   1.00
C191   C     0.43211   0.15609   0.07802   0.00000  Uiso   1.00
C192   C     0.45347   0.11930   0.18561   0.00000  Uiso   1.00
C193   C     0.49910   0.08037   0.33956   0.00000  Uiso   1.00
C194   C     0.33711   0.19614   0.05026   0.00000  Uiso   1.00
C195   C     0.32267   0.28361   0.03780   0.00000  Uiso   1.00
C196   C     0.29399   0.30515   0.12700   0.00000  Uiso   1.00
C197   C     0.24731   0.37376   0.24700   0.00000  Uiso   1.00
C198   C     0.34328   0.04094   0.14398   0.00000  Uiso   1.00
C199   C     0.34088   0.00753   0.98963   0.00000  Uiso   1.00
C200   C     0.32691   0.92389   0.94539   0.00000  Uiso   1.00
C201   C     0.32714   0.90618   0.79940   0.00000  Uiso   1.00
C202   C     0.38285   0.06319   0.17022   0.00000  Uiso   1.00
C203   C     0.40417   0.02635   0.27783   0.00000  Uiso   1.00
C204   C     0.43973   0.05549   0.28388   0.00000  Uiso   1.00
C205   C     0.32340   0.13245   0.14835   0.00000  Uiso   1.00
C206   C     0.29474   0.15386   0.23760   0.00000  Uiso   1.00
C207   C     0.28025   0.24134   0.22527   0.00000  Uiso   1.00
H208   H     0.37920   0.20779   0.88703   0.00000  Uiso   1.00
H209   H     0.36546   0.10293   0.66971   0.00000  Uiso   1.00
H210   H     0.44271   0.20538   0.00211   0.00000  Uiso   1.00
H211   H     0.33329   0.33288   0.96188   0.00000  Uiso   1.00
H212   H     0.34419   0.95858   0.47204   0.00000  Uiso   1.00
H213   H     0.50707   0.17462   0.17294   0.00000  Uiso   1.00
H214   H     0.27634   0.44347   0.08813   0.00000  Uiso   1.00
H215   H     0.33260   0.99135   0.22035   0.00000  Uiso   1.00
H216   H     0.31630   0.87461   0.02132   0.00000  Uiso   1.00
H217   H     0.39355   0.97707   0.35372   0.00000  Uiso   1.00
H218   H     0.28413   0.10456   0.31349   0.00000  Uiso   1.00
H219   H     0.30429   0.77326   0.75742   0.00000  Uiso   1.00
H220   H     0.46717   0.98932   0.45833   0.00000  Uiso   1.00
H221   H     0.23644   0.25816   0.37351   0.00000  Uiso   1.00
O222   O     0.31437   0.79302   0.47779   0.00000  Uiso   1.00
O223   O     0.52806   0.07648   0.39736   0.00000  Uiso   1.00
O224   O     0.22535   0.42920   0.28608   0.00000  Uiso   1.00
N225   N     0.33703   0.93099   0.56652   0.00000  Uiso   1.00
N226   N     0.48932   0.13297   0.22180   0.00000  Uiso   1.00
N227   N     0.27361   0.38433   0.14253   0.00000  Uiso   1.00
N228   N     0.31556   0.83128   0.72008   0.00000  Uiso   1.00
N229   N     0.46785   0.03326   0.37536   0.00000  Uiso   1.00
N230   N     0.25214   0.28462   0.29610   0.00000  Uiso   1.00
C231   C     0.13148   0.84180   0.46339   0.00000  Uiso   1.00
C232   C     0.14541   0.92878   0.39154   0.00000  Uiso   1.00
C233   C     0.14516   0.94637   0.24559   0.00000  Uiso   1.00
C234   C     0.15912   0.03002   0.20113   0.00000  Uiso   1.00
C235   C     0.17866   0.15541   0.07465   0.00000  Uiso   1.00
C236   C     0.10343   0.87312   0.57213   0.00000  Uiso   1.00
C237   C     0.06789   0.84391   0.57802   0.00000  Uiso   1.00
C238   C     0.04653   0.88070   0.68561   0.00000  Uiso   1.00
C239   C     0.00090   0.91963   0.83956   0.00000  Uiso   1.00
C240   C     0.16289   0.80386   0.55026   0.00000  Uiso   1.00
C241   C     0.17733   0.71639   0.53780   0.00000  Uiso   1.00
C242   C     0.20601   0.69485   0.62700   0.00000  Uiso   1.00
C243   C     0.25269   0.62624   0.74700   0.00000  Uiso   1.00
C244   C     0.15672   0.95906   0.64398   0.00000  Uiso   1.00
C245   C     0.15912   0.99247   0.48963   0.00000  Uiso   1.00
C246   C     0.17309   0.07611   0.44539   0.00000  Uiso   1.00
C247   C     0.17286   0.09382   0.29940   0.00000  Uiso   1.00
C248   C     0.11715   0.93681   0.67022   0.00000  Uiso   1.00
C249   C     0.09583   0.97365   0.77783   0.00000  Uiso   1.00
C250   C     0.06027   0.94451   0.78388   0.00000  Uiso   1.00
C251   C     0.17660   0.86755   0.64835   0.00000  Uiso   1.00
C252   C     0.20526   0.84614   0.73760   0.00000  Uiso   1.00
C253   C     0.21975   0.75866   0.72527   0.00000  Uiso   1.00
H254   H     0.12080   0.79221   0.38703   0.00000  Uiso   1.00
H255   H     0.13454   0.89707   0.16971   0.00000  Uiso   1.00
H256   H     0.05729   0.79462   0.50211   0.00000  Uiso   1.00
H257   H     0.16671   0.66712   0.46188   0.00000  Uiso   1.00
H258   H     0.15581   0.04142   0.97204   0.00000  Uiso   1.00
H259   H     0.99293   0.82538   0.67294   0.00000  Uiso   1.00
H260   H     0.22366   0.55653   0.58813   0.00000  Uiso   1.00
H261   H     0.16740   0.00865   0.72035   0.00000  Uiso   1.00
H262   H     0.18370   0.12539   0.52132   0.00000  Uiso   1.00
H263   H     0.10645   0.02293   0.85372   0.00000  Uiso   1.00
H264   H     0.21587   0.89544   0.81349   0.00000  Uiso   1.00
H265   H     0.19571   0.22674   0.25742   0.00000  Uiso   1.00
H266   H     0.03283   0.01068   0.95833   0.00000  Uiso   1.00
H267   H     0.26356   0.74184   0.87351   0.00000  Uiso   1.00
O268   O     0.18563   0.20698   0.97779   0.00000  Uiso   1.00
O269   O     0.97194   0.92352   0.89736   0.00000  Uiso   1.00
O270   O     0.27465   0.57080   0.78608   0.00000  Uiso   1.00
N271   N     0.16297   0.06901   0.06652   0.00000  Uiso   1.00
N272   N     0.01068   0.86703   0.72180   0.00000  Uiso   1.00
N273   N     0.22639   0.61567   0.64253   0.00000  Uiso   1.00
N274   N     0.18444   0.16872   0.22008   0.00000  Uiso   1.00
N275   N     0.03215   0.96674   0.87536   0.00000  Uiso   1.00
N276   N     0.24786   0.71538   0.79610   0.00000  Uiso   1.00
C277   C     0.63148   0.65820   0.53661   0.00000  Uiso   1.00
C278   C     0.64541   0.57122   0.60846   0.00000  Uiso   1.00
C279   C     0.64516   0.55363   0.75441   0.00000  Uiso   1.00
C280   C     0.65912   0.46998   0.79887   0.00000  Uiso   1.00
C281   C     0.67866   0.34459   0.92535   0.00000  Uiso   1.00
C282   C     0.60343   0.62688   0.42787   0.00000  Uiso   1.00
C283   C     0.56789   0.65609   0.42198   0.00000  Uiso   1.00
C284   C     0.54653   0.61930   0.31439   0.00000  Uiso   1.00
C285   C     0.50090   0.58037   0.16044   0.00000  Uiso   1.00
C286   C     0.66289   0.69614   0.44974   0.00000  Uiso   1.00
C287   C     0.67733   0.78361   0.46220   0.00000  Uiso   1.00
C288   C     0.70601   0.80515   0.37300   0.00000  Uiso   1.00
C289   C     0.75269   0.87376   0.25300   0.00000  Uiso   1.00
C290   C     0.65672   0.54094   0.35602   0.00000  Uiso   1.00
C291   C     0.65912   0.50753   0.51037   0.00000  Uiso   1.00
C292   C     0.67309   0.42389   0.55461   0.00000  Uiso   1.00
C293   C     0.67286   0.40618   0.70060   0.00000  Uiso   1.00
C294   C     0.61715   0.56319   0.32978   0.00000  Uiso   1.00
C295   C     0.59583   0.52635   0.22217   0.00000  Uiso   1.00
C296   C     0.56027   0.55549   0.21612   0.00000  Uiso   1.00
C297   C     0.67660   0.63245   0.35165   0.00000  Uiso   1.00
C298   C     0.70526   0.65386   0.26240   0.00000  Uiso   1.00
C299   C     0.71975   0.74134   0.27473   0.00000  Uiso   1.00
H300   H     0.62080   0.70779   0.61297   0.00000  Uiso   1.00
H301   H     0.63454   0.60293   0.83029   0.00000  Uiso   1.00
H302   H     0.55729   0.70538   0.49789   0.00000  Uiso   1.00
H303   H     0.66671   0.83288   0.53812   0.00000  Uiso   1.00
H304   H     0.65581   0.45858   0.02796   0.00000  Uiso   1.00
H305   H     0.49293   0.67462   0.32706   0.00000  Uiso   1.00
H306   H     0.72366   0.94347   0.41187   0.00000  Uiso   1.00
H307   H     0.66740   0.49135   0.27965   0.00000  Uiso   1.00
H308   H     0.68370   0.37461   0.47868   0.00000  Uiso   1.00
H309   H     0.60645   0.47707   0.14628   0.00000  Uiso   1.00
H310   H     0.71587   0.60456   0.18651   0.00000  Uiso   1.00
H311   H     0.69571   0.27326   0.74258   0.00000  Uiso   1.00
H312   H     0.53283   0.48932   0.04167   0.00000  Uiso   1.00
H313   H     0.76356   0.75816   0.12649   0.00000  Uiso   1.00
O314   O     0.68563   0.29302   0.02221   0.00000  Uiso   1.00
O315   O     0.47194   0.57648   0.10264   0.00000  Uiso   1.00
O316   O     0.77465   0.92920   0.21392   0.00000  Uiso   1.00
N317   N     0.66297   0.43099   0.93348   0.00000  Uiso   1.00
N318   N     0.51068   0.63297   0.27820   0.00000  Uiso   1.00
N319   N     0.72639   0.88433   0.35747   0.00000  Uiso   1.00
N320   N     0.68444   0.33128   0.77992   0.00000  Uiso   1.00
N321   N     0.53215   0.53326   0.12464   0.00000  Uiso   1.00
N322   N     0.74786   0.78462   0.20390   0.00000  Uiso   1.00
C323   C     0.86852   0.34180   0.03661   0.00000  Uiso   1.00
C324   C     0.85459   0.42878   0.10846   0.00000  Uiso   1.00
C325   C     0.85484   0.44637   0.25441   0.00000  Uiso   1.00
C326   C     0.84088   0.53002   0.29887   0.00000  Uiso   1.00
C327   C     0.82134   0.65541   0.42535   0.00000  Uiso   1.00
C328   C     0.89657   0.37312   0.92787   0.00000  Uiso   1.00
C329   C     0.93211   0.34391   0.92198   0.00000  Uiso   1.00
C330   C     0.95347   0.38070   0.81439   0.00000  Uiso   1.00
C331   C     0.99910   0.41963   0.66044   0.00000  Uiso   1.00
C332   C     0.83711   0.30386   0.94974   0.00000  Uiso   1.00
C333   C     0.82267   0.21639   0.96220   0.00000  Uiso   1.00
C334   C     0.79399   0.19485   0.87300   0.00000  Uiso   1.00
C335   C     0.74731   0.12624   0.75300   0.00000  Uiso   1.00
C336   C     0.84328   0.45906   0.85602   0.00000  Uiso   1.00
C337   C     0.84088   0.49247   0.01037   0.00000  Uiso   1.00
C338   C     0.82691   0.57611   0.05461   0.00000  Uiso   1.00
C339   C     0.82714   0.59382   0.20060   0.00000  Uiso   1.00
C340   C     0.88285   0.43681   0.82978   0.00000  Uiso   1.00
C341   C     0.90417   0.47365   0.72217   0.00000  Uiso   1.00
C342   C     0.93973   0.44451   0.71612   0.00000  Uiso   1.00
C343   C     0.82340   0.36755   0.85165   0.00000  Uiso   1.00
C344   C     0.79474   0.34614   0.76240   0.00000  Uiso   1.00
C345   C     0.78025   0.25866   0.77473   0.00000  Uiso   1.00
H346   H     0.87920   0.29221   0.11297   0.00000  Uiso   1.00
H347   H     0.86546   0.39707   0.33029   0.00000  Uiso   1.00
H348   H     0.94271   0.29462   0.99789   0.00000  Uiso   1.00
H349   H     0.83329   0.16712   0.03812   0.00000  Uiso   1.00
H350   H     0.84419   0.54142   0.52796   0.00000  Uiso   1.00
H351   H     0.00707   0.32538   0.82706   0.00000  Uiso   1.00
H352   H     0.77634   0.05653   0.91187   0.00000  Uiso   1.00
H353   H     0.83260   0.50865   0.77965   0.00000  Uiso   1.00
H354   H     0.81630   0.62539   0.97868   0.00000  Uiso   1.00
H355   H     0.89355   0.52293   0.64628   0.00000  Uiso   1.00
H356   H     0.78413   0.39544   0.68651   0.00000  Uiso   1.00
H357   H     0.80429   0.72674   0.24258   0.00000  Uiso   1.00
H358   H     0.96717   0.51068   0.54167   0.00000  Uiso   1.00
H359   H     0.73644   0.24184   0.62649   0.00000  Uiso   1.00
O360   O     0.81437   0.70698   0.52221   0.00000  Uiso   1.00
O361   O     0.02806   0.42352   0.60264   0.00000  Uiso   1.00
O362   O     0.72535   0.07080   0.71392   0.00000  Uiso   1.00
N363   N     0.83703   0.56901   0.43348   0.00000  Uiso   1.00
N364   N     0.98932   0.36703   0.77820   0.00000  Uiso   1.00
N365   N     0.77361   0.11567   0.85747   0.00000  Uiso   1.00
N366   N     0.81556   0.66872   0.27992   0.00000  Uiso   1.00
N367   N     0.96785   0.46674   0.62464   0.00000  Uiso   1.00
N368   N     0.75214   0.21538   0.70390   0.00000  Uiso   1.00
