data_job_04048
_audit_creation_date              2018-12-19
_audit_creation_method            'Materials Studio'
_symmetry_space_group_name_H-M    'P1'
_symmetry_Int_Tables_number       1
_symmetry_cell_setting            triclinic
loop_
_symmetry_equiv_pos_as_xyz
  x,y,z
_cell_length_a                    11.7895
_cell_length_b                    11.7895
_cell_length_c                    50.2521
_cell_angle_alpha                 90.0000
_cell_angle_beta                  90.0000
_cell_angle_gamma                 90.0000
loop_
_atom_site_label
_atom_site_type_symbol
_atom_site_fract_x
_atom_site_fract_y
_atom_site_fract_z
_atom_site_U_iso_or_equiv
_atom_site_adp_type
_atom_site_occupancy
C1     C     0.66679   0.79504   0.21298   0.00000  Uiso   1.00
C2     C     0.76449   0.81421   0.23235   0.00000  Uiso   1.00
C3     C     0.75606   0.86489   0.25720   0.00000  Uiso   1.00
C4     C     0.85530   0.87457   0.27190   0.00000  Uiso   1.00
C5     C     0.99122   0.91042   0.30347   0.00000  Uiso   1.00
C6     C     0.70146   0.85281   0.18708   0.00000  Uiso   1.00
C7     C     0.64002   0.93592   0.17386   0.00000  Uiso   1.00
C8     C     0.68619   0.97808   0.15045   0.00000  Uiso   1.00
C9     C     0.72421   0.07379   0.11171   0.00000  Uiso   1.00
C10    C     0.66546   0.66814   0.20713   0.00000  Uiso   1.00
C11    C     0.57375   0.59598   0.21076   0.00000  Uiso   1.00
C12    C     0.58961   0.48266   0.20422   0.00000  Uiso   1.00
C13    C     0.57174   0.29164   0.19661   0.00000  Uiso   1.00
C14    C     0.85802   0.72212   0.19491   0.00000  Uiso   1.00
C15    C     0.86836   0.77460   0.22253   0.00000  Uiso   1.00
C16    C     0.96764   0.78421   0.23720   0.00000  Uiso   1.00
C17    C     0.95936   0.83489   0.26207   0.00000  Uiso   1.00
C18    C     0.80533   0.81320   0.17726   0.00000  Uiso   1.00
C19    C     0.85160   0.85524   0.15386   0.00000  Uiso   1.00
C20    C     0.79025   0.93840   0.14061   0.00000  Uiso   1.00
C21    C     0.76934   0.62853   0.19731   0.00000  Uiso   1.00
C22    C     0.78534   0.51530   0.19076   0.00000  Uiso   1.00
C23    C     0.69367   0.44298   0.19438   0.00000  Uiso   1.00
H24    H     0.58592   0.82588   0.22063   0.00000  Uiso   1.00
H25    H     0.67566   0.89554   0.26479   0.00000  Uiso   1.00
H26    H     0.55963   0.96655   0.18146   0.00000  Uiso   1.00
H27    H     0.49338   0.62666   0.21836   0.00000  Uiso   1.00
H28    H     0.82098   0.95534   0.30942   0.00000  Uiso   1.00
H29    H     0.57630   0.10504   0.13371   0.00000  Uiso   1.00
H30    H     0.43660   0.38832   0.21151   0.00000  Uiso   1.00
H31    H     0.93889   0.69128   0.18726   0.00000  Uiso   1.00
H32    H     0.04801   0.75355   0.22960   0.00000  Uiso   1.00
H33    H     0.93198   0.82456   0.14627   0.00000  Uiso   1.00
H34    H     0.86573   0.48468   0.18316   0.00000  Uiso   1.00
H35    H     0.12319   0.84010   0.28086   0.00000  Uiso   1.00
H36    H     0.87851   0.98980   0.10515   0.00000  Uiso   1.00
H37    H     0.73881   0.27308   0.18294   0.00000  Uiso   1.00
O38    O     0.03750   0.94115   0.32359   0.00000  Uiso   1.00
O39    O     0.71649   0.13753   0.09306   0.00000  Uiso   1.00
O40    O     0.53320   0.19722   0.19513   0.00000  Uiso   1.00
N41    N     0.87712   0.91965   0.29689   0.00000  Uiso   1.00
N42    N     0.64838   0.05963   0.13262   0.00000  Uiso   1.00
N43    N     0.51775   0.38956   0.20534   0.00000  Uiso   1.00
N44    N     0.03974   0.85764   0.28152   0.00000  Uiso   1.00
N45    N     0.81100   0.99762   0.11724   0.00000  Uiso   1.00
N46    N     0.68037   0.32755   0.18997   0.00000  Uiso   1.00
C47    C     0.33321   0.20496   0.71298   0.00000  Uiso   1.00
C48    C     0.23551   0.18579   0.73235   0.00000  Uiso   1.00
C49    C     0.24394   0.13511   0.75720   0.00000  Uiso   1.00
C50    C     0.14470   0.12543   0.77190   0.00000  Uiso   1.00
C51    C     0.00878   0.08958   0.80347   0.00000  Uiso   1.00
C52    C     0.29854   0.14719   0.68708   0.00000  Uiso   1.00
C53    C     0.35998   0.06408   0.67386   0.00000  Uiso   1.00
C54    C     0.31381   0.02192   0.65045   0.00000  Uiso   1.00
C55    C     0.27579   0.92621   0.61171   0.00000  Uiso   1.00
C56    C     0.33454   0.33186   0.70713   0.00000  Uiso   1.00
C57    C     0.42625   0.40402   0.71076   0.00000  Uiso   1.00
C58    C     0.41039   0.51734   0.70422   0.00000  Uiso   1.00
C59    C     0.42826   0.70836   0.69661   0.00000  Uiso   1.00
C60    C     0.14198   0.27788   0.69491   0.00000  Uiso   1.00
C61    C     0.13164   0.22540   0.72253   0.00000  Uiso   1.00
C62    C     0.03236   0.21579   0.73720   0.00000  Uiso   1.00
C63    C     0.04064   0.16511   0.76207   0.00000  Uiso   1.00
C64    C     0.19467   0.18680   0.67726   0.00000  Uiso   1.00
C65    C     0.14840   0.14476   0.65386   0.00000  Uiso   1.00
C66    C     0.20975   0.06160   0.64061   0.00000  Uiso   1.00
C67    C     0.23066   0.37147   0.69731   0.00000  Uiso   1.00
C68    C     0.21466   0.48470   0.69076   0.00000  Uiso   1.00
C69    C     0.30633   0.55702   0.69438   0.00000  Uiso   1.00
H70    H     0.41408   0.17412   0.72063   0.00000  Uiso   1.00
H71    H     0.32434   0.10446   0.76479   0.00000  Uiso   1.00
H72    H     0.44037   0.03345   0.68146   0.00000  Uiso   1.00
H73    H     0.50662   0.37334   0.71836   0.00000  Uiso   1.00
H74    H     0.17902   0.04466   0.80942   0.00000  Uiso   1.00
H75    H     0.42370   0.89496   0.63371   0.00000  Uiso   1.00
H76    H     0.56340   0.61168   0.71151   0.00000  Uiso   1.00
H77    H     0.06111   0.30872   0.68726   0.00000  Uiso   1.00
H78    H     0.95199   0.24645   0.72960   0.00000  Uiso   1.00
H79    H     0.06802   0.17544   0.64627   0.00000  Uiso   1.00
H80    H     0.13427   0.51532   0.68316   0.00000  Uiso   1.00
H81    H     0.87681   0.15990   0.78086   0.00000  Uiso   1.00
H82    H     0.12149   0.01020   0.60515   0.00000  Uiso   1.00
H83    H     0.26119   0.72692   0.68294   0.00000  Uiso   1.00
O84    O     0.96250   0.05885   0.82359   0.00000  Uiso   1.00
O85    O     0.28351   0.86247   0.59306   0.00000  Uiso   1.00
O86    O     0.46680   0.80278   0.69513   0.00000  Uiso   1.00
N87    N     0.12288   0.08035   0.79689   0.00000  Uiso   1.00
N88    N     0.35162   0.94037   0.63262   0.00000  Uiso   1.00
N89    N     0.48225   0.61044   0.70534   0.00000  Uiso   1.00
N90    N     0.96026   0.14236   0.78152   0.00000  Uiso   1.00
N91    N     0.18900   0.00238   0.61724   0.00000  Uiso   1.00
N92    N     0.31963   0.67245   0.68997   0.00000  Uiso   1.00
C93    C     0.20496   0.66679   0.46298   0.00000  Uiso   1.00
C94    C     0.18579   0.76449   0.48235   0.00000  Uiso   1.00
C95    C     0.13511   0.75606   0.50720   0.00000  Uiso   1.00
C96    C     0.12543   0.85530   0.52190   0.00000  Uiso   1.00
C97    C     0.08958   0.99122   0.55347   0.00000  Uiso   1.00
C98    C     0.14719   0.70146   0.43708   0.00000  Uiso   1.00
C99    C     0.06408   0.64002   0.42386   0.00000  Uiso   1.00
C100   C     0.02192   0.68619   0.40045   0.00000  Uiso   1.00
C101   C     0.92621   0.72421   0.36171   0.00000  Uiso   1.00
C102   C     0.33186   0.66546   0.45713   0.00000  Uiso   1.00
C103   C     0.40402   0.57375   0.46076   0.00000  Uiso   1.00
C104   C     0.51734   0.58961   0.45422   0.00000  Uiso   1.00
C105   C     0.70836   0.57174   0.44661   0.00000  Uiso   1.00
C106   C     0.27788   0.85802   0.44491   0.00000  Uiso   1.00
C107   C     0.22540   0.86836   0.47253   0.00000  Uiso   1.00
C108   C     0.21579   0.96764   0.48720   0.00000  Uiso   1.00
C109   C     0.16511   0.95936   0.51207   0.00000  Uiso   1.00
C110   C     0.18680   0.80533   0.42726   0.00000  Uiso   1.00
C111   C     0.14476   0.85160   0.40386   0.00000  Uiso   1.00
C112   C     0.06160   0.79025   0.39061   0.00000  Uiso   1.00
C113   C     0.37147   0.76934   0.44731   0.00000  Uiso   1.00
C114   C     0.48470   0.78534   0.44076   0.00000  Uiso   1.00
C115   C     0.55702   0.69367   0.44438   0.00000  Uiso   1.00
H116   H     0.17412   0.58592   0.47063   0.00000  Uiso   1.00
H117   H     0.10446   0.67566   0.51479   0.00000  Uiso   1.00
H118   H     0.03345   0.55963   0.43146   0.00000  Uiso   1.00
H119   H     0.37334   0.49338   0.46836   0.00000  Uiso   1.00
H120   H     0.04466   0.82098   0.55942   0.00000  Uiso   1.00
H121   H     0.89496   0.57630   0.38371   0.00000  Uiso   1.00
H122   H     0.61168   0.43660   0.46151   0.00000  Uiso   1.00
H123   H     0.30872   0.93889   0.43726   0.00000  Uiso   1.00
H124   H     0.24645   0.04801   0.47960   0.00000  Uiso   1.00
H125   H     0.17544   0.93198   0.39627   0.00000  Uiso   1.00
H126   H     0.51532   0.86573   0.43316   0.00000  Uiso   1.00
H127   H     0.15990   0.12319   0.53086   0.00000  Uiso   1.00
H128   H     0.01020   0.87851   0.35515   0.00000  Uiso   1.00
H129   H     0.72692   0.73881   0.43294   0.00000  Uiso   1.00
O130   O     0.05885   0.03750   0.57359   0.00000  Uiso   1.00
O131   O     0.86247   0.71649   0.34306   0.00000  Uiso   1.00
O132   O     0.80278   0.53320   0.44513   0.00000  Uiso   1.00
N133   N     0.08035   0.87712   0.54689   0.00000  Uiso   1.00
N134   N     0.94037   0.64838   0.38262   0.00000  Uiso   1.00
N135   N     0.61044   0.51775   0.45534   0.00000  Uiso   1.00
N136   N     0.14236   0.03974   0.53152   0.00000  Uiso   1.00
N137   N     0.00238   0.81100   0.36724   0.00000  Uiso   1.00
N138   N     0.67245   0.68037   0.43997   0.00000  Uiso   1.00
C139   C     0.79504   0.33321   0.96298   0.00000  Uiso   1.00
C140   C     0.81421   0.23551   0.98235   0.00000  Uiso   1.00
C141   C     0.86489   0.24394   0.00720   0.00000  Uiso   1.00
C142   C     0.87457   0.14470   0.02190   0.00000  Uiso   1.00
C143   C     0.91042   0.00878   0.05347   0.00000  Uiso   1.00
C144   C     0.85281   0.29854   0.93708   0.00000  Uiso   1.00
C145   C     0.93592   0.35998   0.92386   0.00000  Uiso   1.00
C146   C     0.97808   0.31381   0.90045   0.00000  Uiso   1.00
C147   C     0.07379   0.27579   0.86171   0.00000  Uiso   1.00
C148   C     0.66814   0.33454   0.95713   0.00000  Uiso   1.00
C149   C     0.59598   0.42625   0.96076   0.00000  Uiso   1.00
C150   C     0.48266   0.41039   0.95422   0.00000  Uiso   1.00
C151   C     0.29164   0.42826   0.94661   0.00000  Uiso   1.00
C152   C     0.72212   0.14198   0.94491   0.00000  Uiso   1.00
C153   C     0.77460   0.13164   0.97253   0.00000  Uiso   1.00
C154   C     0.78421   0.03236   0.98720   0.00000  Uiso   1.00
C155   C     0.83489   0.04064   0.01207   0.00000  Uiso   1.00
C156   C     0.81320   0.19467   0.92726   0.00000  Uiso   1.00
C157   C     0.85524   0.14840   0.90386   0.00000  Uiso   1.00
C158   C     0.93840   0.20975   0.89061   0.00000  Uiso   1.00
C159   C     0.62853   0.23066   0.94731   0.00000  Uiso   1.00
C160   C     0.51530   0.21466   0.94076   0.00000  Uiso   1.00
C161   C     0.44298   0.30633   0.94438   0.00000  Uiso   1.00
H162   H     0.82588   0.41408   0.97063   0.00000  Uiso   1.00
H163   H     0.89554   0.32434   0.01479   0.00000  Uiso   1.00
H164   H     0.96655   0.44037   0.93146   0.00000  Uiso   1.00
H165   H     0.62666   0.50662   0.96836   0.00000  Uiso   1.00
H166   H     0.95534   0.17902   0.05942   0.00000  Uiso   1.00
H167   H     0.10504   0.42370   0.88371   0.00000  Uiso   1.00
H168   H     0.38832   0.56340   0.96151   0.00000  Uiso   1.00
H169   H     0.69128   0.06111   0.93726   0.00000  Uiso   1.00
H170   H     0.75355   0.95199   0.97960   0.00000  Uiso   1.00
H171   H     0.82456   0.06802   0.89627   0.00000  Uiso   1.00
H172   H     0.48468   0.13427   0.93316   0.00000  Uiso   1.00
H173   H     0.84010   0.87681   0.03086   0.00000  Uiso   1.00
H174   H     0.98980   0.12149   0.85515   0.00000  Uiso   1.00
H175   H     0.27308   0.26119   0.93294   0.00000  Uiso   1.00
O176   O     0.94115   0.96250   0.07359   0.00000  Uiso   1.00
O177   O     0.13753   0.28351   0.84306   0.00000  Uiso   1.00
O178   O     0.19722   0.46680   0.94513   0.00000  Uiso   1.00
N179   N     0.91965   0.12288   0.04689   0.00000  Uiso   1.00
N180   N     0.05963   0.35162   0.88262   0.00000  Uiso   1.00
N181   N     0.38956   0.48225   0.95534   0.00000  Uiso   1.00
N182   N     0.85764   0.96026   0.03152   0.00000  Uiso   1.00
N183   N     0.99762   0.18900   0.86724   0.00000  Uiso   1.00
N184   N     0.32755   0.31963   0.93997   0.00000  Uiso   1.00
C185   C     0.33321   0.79504   0.78702   0.00000  Uiso   1.00
C186   C     0.23551   0.81421   0.76765   0.00000  Uiso   1.00
C187   C     0.24394   0.86489   0.74280   0.00000  Uiso   1.00
C188   C     0.14470   0.87457   0.72810   0.00000  Uiso   1.00
C189   C     0.00878   0.91042   0.69653   0.00000  Uiso   1.00
C190   C     0.29854   0.85281   0.81292   0.00000  Uiso   1.00
C191   C     0.35998   0.93592   0.82614   0.00000  Uiso   1.00
C192   C     0.31381   0.97808   0.84955   0.00000  Uiso   1.00
C193   C     0.27579   0.07379   0.88829   0.00000  Uiso   1.00
C194   C     0.33454   0.66814   0.79287   0.00000  Uiso   1.00
C195   C     0.42625   0.59598   0.78924   0.00000  Uiso   1.00
C196   C     0.41039   0.48266   0.79578   0.00000  Uiso   1.00
C197   C     0.42826   0.29164   0.80339   0.00000  Uiso   1.00
C198   C     0.14198   0.72212   0.80509   0.00000  Uiso   1.00
C199   C     0.13164   0.77460   0.77747   0.00000  Uiso   1.00
C200   C     0.03236   0.78421   0.76280   0.00000  Uiso   1.00
C201   C     0.04064   0.83489   0.73793   0.00000  Uiso   1.00
C202   C     0.19467   0.81320   0.82274   0.00000  Uiso   1.00
C203   C     0.14840   0.85524   0.84614   0.00000  Uiso   1.00
C204   C     0.20975   0.93840   0.85939   0.00000  Uiso   1.00
C205   C     0.23066   0.62853   0.80269   0.00000  Uiso   1.00
C206   C     0.21466   0.51530   0.80924   0.00000  Uiso   1.00
C207   C     0.30633   0.44298   0.80562   0.00000  Uiso   1.00
H208   H     0.41408   0.82588   0.77937   0.00000  Uiso   1.00
H209   H     0.32434   0.89554   0.73521   0.00000  Uiso   1.00
H210   H     0.44037   0.96655   0.81854   0.00000  Uiso   1.00
H211   H     0.50662   0.62666   0.78164   0.00000  Uiso   1.00
H212   H     0.17902   0.95534   0.69058   0.00000  Uiso   1.00
H213   H     0.42370   0.10504   0.86629   0.00000  Uiso   1.00
H214   H     0.56340   0.38832   0.78849   0.00000  Uiso   1.00
H215   H     0.06111   0.69128   0.81274   0.00000  Uiso   1.00
H216   H     0.95199   0.75355   0.77040   0.00000  Uiso   1.00
H217   H     0.06802   0.82456   0.85373   0.00000  Uiso   1.00
H218   H     0.13427   0.48468   0.81684   0.00000  Uiso   1.00
H219   H     0.87681   0.84010   0.71914   0.00000  Uiso   1.00
H220   H     0.12149   0.98980   0.89485   0.00000  Uiso   1.00
H221   H     0.26119   0.27308   0.81706   0.00000  Uiso   1.00
O222   O     0.96250   0.94115   0.67641   0.00000  Uiso   1.00
O223   O     0.28351   0.13753   0.90694   0.00000  Uiso   1.00
O224   O     0.46680   0.19722   0.80487   0.00000  Uiso   1.00
N225   N     0.12288   0.91965   0.70311   0.00000  Uiso   1.00
N226   N     0.35162   0.05963   0.86738   0.00000  Uiso   1.00
N227   N     0.48225   0.38956   0.79466   0.00000  Uiso   1.00
N228   N     0.96026   0.85764   0.71848   0.00000  Uiso   1.00
N229   N     0.18900   0.99762   0.88276   0.00000  Uiso   1.00
N230   N     0.31963   0.32755   0.81003   0.00000  Uiso   1.00
C231   C     0.66679   0.20496   0.28702   0.00000  Uiso   1.00
C232   C     0.76449   0.18579   0.26765   0.00000  Uiso   1.00
C233   C     0.75606   0.13511   0.24280   0.00000  Uiso   1.00
C234   C     0.85530   0.12543   0.22810   0.00000  Uiso   1.00
C235   C     0.99122   0.08958   0.19653   0.00000  Uiso   1.00
C236   C     0.70146   0.14719   0.31292   0.00000  Uiso   1.00
C237   C     0.64002   0.06408   0.32614   0.00000  Uiso   1.00
C238   C     0.68619   0.02192   0.34955   0.00000  Uiso   1.00
C239   C     0.72421   0.92621   0.38829   0.00000  Uiso   1.00
C240   C     0.66546   0.33186   0.29287   0.00000  Uiso   1.00
C241   C     0.57375   0.40402   0.28924   0.00000  Uiso   1.00
C242   C     0.58961   0.51734   0.29578   0.00000  Uiso   1.00
C243   C     0.57174   0.70836   0.30339   0.00000  Uiso   1.00
C244   C     0.85802   0.27788   0.30509   0.00000  Uiso   1.00
C245   C     0.86836   0.22540   0.27747   0.00000  Uiso   1.00
C246   C     0.96764   0.21579   0.26280   0.00000  Uiso   1.00
C247   C     0.95936   0.16511   0.23793   0.00000  Uiso   1.00
C248   C     0.80533   0.18680   0.32274   0.00000  Uiso   1.00
C249   C     0.85160   0.14476   0.34614   0.00000  Uiso   1.00
C250   C     0.79025   0.06160   0.35939   0.00000  Uiso   1.00
C251   C     0.76934   0.37147   0.30269   0.00000  Uiso   1.00
C252   C     0.78534   0.48470   0.30924   0.00000  Uiso   1.00
C253   C     0.69367   0.55702   0.30562   0.00000  Uiso   1.00
H254   H     0.58592   0.17412   0.27937   0.00000  Uiso   1.00
H255   H     0.67566   0.10446   0.23521   0.00000  Uiso   1.00
H256   H     0.55963   0.03345   0.31854   0.00000  Uiso   1.00
H257   H     0.49338   0.37334   0.28164   0.00000  Uiso   1.00
H258   H     0.82098   0.04466   0.19058   0.00000  Uiso   1.00
H259   H     0.57630   0.89496   0.36629   0.00000  Uiso   1.00
H260   H     0.43660   0.61168   0.28849   0.00000  Uiso   1.00
H261   H     0.93889   0.30872   0.31274   0.00000  Uiso   1.00
H262   H     0.04801   0.24645   0.27040   0.00000  Uiso   1.00
H263   H     0.93198   0.17544   0.35373   0.00000  Uiso   1.00
H264   H     0.86573   0.51532   0.31684   0.00000  Uiso   1.00
H265   H     0.12319   0.15990   0.21914   0.00000  Uiso   1.00
H266   H     0.87851   0.01020   0.39485   0.00000  Uiso   1.00
H267   H     0.73881   0.72692   0.31706   0.00000  Uiso   1.00
O268   O     0.03750   0.05885   0.17641   0.00000  Uiso   1.00
O269   O     0.71649   0.86247   0.40694   0.00000  Uiso   1.00
O270   O     0.53320   0.80278   0.30487   0.00000  Uiso   1.00
N271   N     0.87712   0.08035   0.20311   0.00000  Uiso   1.00
N272   N     0.64838   0.94037   0.36738   0.00000  Uiso   1.00
N273   N     0.51775   0.61044   0.29466   0.00000  Uiso   1.00
N274   N     0.03974   0.14236   0.21848   0.00000  Uiso   1.00
N275   N     0.81100   0.00238   0.38276   0.00000  Uiso   1.00
N276   N     0.68037   0.67245   0.31003   0.00000  Uiso   1.00
C277   C     0.79504   0.66679   0.53702   0.00000  Uiso   1.00
C278   C     0.81421   0.76449   0.51765   0.00000  Uiso   1.00
C279   C     0.86489   0.75606   0.49280   0.00000  Uiso   1.00
C280   C     0.87457   0.85530   0.47810   0.00000  Uiso   1.00
C281   C     0.91042   0.99122   0.44653   0.00000  Uiso   1.00
C282   C     0.85281   0.70146   0.56292   0.00000  Uiso   1.00
C283   C     0.93592   0.64002   0.57614   0.00000  Uiso   1.00
C284   C     0.97808   0.68619   0.59955   0.00000  Uiso   1.00
C285   C     0.07379   0.72421   0.63829   0.00000  Uiso   1.00
C286   C     0.66814   0.66546   0.54287   0.00000  Uiso   1.00
C287   C     0.59598   0.57375   0.53924   0.00000  Uiso   1.00
C288   C     0.48266   0.58961   0.54578   0.00000  Uiso   1.00
C289   C     0.29164   0.57174   0.55339   0.00000  Uiso   1.00
C290   C     0.72212   0.85802   0.55509   0.00000  Uiso   1.00
C291   C     0.77460   0.86836   0.52747   0.00000  Uiso   1.00
C292   C     0.78421   0.96764   0.51280   0.00000  Uiso   1.00
C293   C     0.83489   0.95936   0.48793   0.00000  Uiso   1.00
C294   C     0.81320   0.80533   0.57274   0.00000  Uiso   1.00
C295   C     0.85524   0.85160   0.59614   0.00000  Uiso   1.00
C296   C     0.93840   0.79025   0.60939   0.00000  Uiso   1.00
C297   C     0.62853   0.76934   0.55269   0.00000  Uiso   1.00
C298   C     0.51530   0.78534   0.55924   0.00000  Uiso   1.00
C299   C     0.44298   0.69367   0.55562   0.00000  Uiso   1.00
H300   H     0.82588   0.58592   0.52937   0.00000  Uiso   1.00
H301   H     0.89554   0.67566   0.48521   0.00000  Uiso   1.00
H302   H     0.96655   0.55963   0.56854   0.00000  Uiso   1.00
H303   H     0.62666   0.49338   0.53164   0.00000  Uiso   1.00
H304   H     0.95534   0.82098   0.44058   0.00000  Uiso   1.00
H305   H     0.10504   0.57630   0.61629   0.00000  Uiso   1.00
H306   H     0.38832   0.43660   0.53849   0.00000  Uiso   1.00
H307   H     0.69128   0.93889   0.56274   0.00000  Uiso   1.00
H308   H     0.75355   0.04801   0.52040   0.00000  Uiso   1.00
H309   H     0.82456   0.93198   0.60373   0.00000  Uiso   1.00
H310   H     0.48468   0.86573   0.56684   0.00000  Uiso   1.00
H311   H     0.84010   0.12319   0.46914   0.00000  Uiso   1.00
H312   H     0.98980   0.87851   0.64485   0.00000  Uiso   1.00
H313   H     0.27308   0.73881   0.56706   0.00000  Uiso   1.00
O314   O     0.94115   0.03750   0.42641   0.00000  Uiso   1.00
O315   O     0.13753   0.71649   0.65694   0.00000  Uiso   1.00
O316   O     0.19722   0.53320   0.55487   0.00000  Uiso   1.00
N317   N     0.91965   0.87712   0.45311   0.00000  Uiso   1.00
N318   N     0.05963   0.64838   0.61738   0.00000  Uiso   1.00
N319   N     0.38956   0.51775   0.54466   0.00000  Uiso   1.00
N320   N     0.85764   0.03974   0.46848   0.00000  Uiso   1.00
N321   N     0.99762   0.81100   0.63276   0.00000  Uiso   1.00
N322   N     0.32755   0.68037   0.56003   0.00000  Uiso   1.00
C323   C     0.20496   0.33321   0.03702   0.00000  Uiso   1.00
C324   C     0.18579   0.23551   0.01765   0.00000  Uiso   1.00
C325   C     0.13511   0.24394   0.99280   0.00000  Uiso   1.00
C326   C     0.12543   0.14470   0.97810   0.00000  Uiso   1.00
C327   C     0.08958   0.00878   0.94653   0.00000  Uiso   1.00
C328   C     0.14719   0.29854   0.06292   0.00000  Uiso   1.00
C329   C     0.06408   0.35998   0.07614   0.00000  Uiso   1.00
C330   C     0.02192   0.31381   0.09955   0.00000  Uiso   1.00
C331   C     0.92621   0.27579   0.13829   0.00000  Uiso   1.00
C332   C     0.33186   0.33454   0.04287   0.00000  Uiso   1.00
C333   C     0.40402   0.42625   0.03924   0.00000  Uiso   1.00
C334   C     0.51734   0.41039   0.04578   0.00000  Uiso   1.00
C335   C     0.70836   0.42826   0.05339   0.00000  Uiso   1.00
C336   C     0.27788   0.14198   0.05509   0.00000  Uiso   1.00
C337   C     0.22540   0.13164   0.02747   0.00000  Uiso   1.00
C338   C     0.21579   0.03236   0.01280   0.00000  Uiso   1.00
C339   C     0.16511   0.04064   0.98793   0.00000  Uiso   1.00
C340   C     0.18680   0.19467   0.07274   0.00000  Uiso   1.00
C341   C     0.14476   0.14840   0.09614   0.00000  Uiso   1.00
C342   C     0.06160   0.20975   0.10939   0.00000  Uiso   1.00
C343   C     0.37147   0.23066   0.05269   0.00000  Uiso   1.00
C344   C     0.48470   0.21466   0.05924   0.00000  Uiso   1.00
C345   C     0.55702   0.30633   0.05562   0.00000  Uiso   1.00
H346   H     0.17412   0.41408   0.02937   0.00000  Uiso   1.00
H347   H     0.10446   0.32434   0.98521   0.00000  Uiso   1.00
H348   H     0.03345   0.44037   0.06854   0.00000  Uiso   1.00
H349   H     0.37334   0.50662   0.03164   0.00000  Uiso   1.00
H350   H     0.04466   0.17902   0.94058   0.00000  Uiso   1.00
H351   H     0.89496   0.42370   0.11629   0.00000  Uiso   1.00
H352   H     0.61168   0.56340   0.03849   0.00000  Uiso   1.00
H353   H     0.30872   0.06111   0.06274   0.00000  Uiso   1.00
H354   H     0.24645   0.95199   0.02040   0.00000  Uiso   1.00
H355   H     0.17544   0.06802   0.10373   0.00000  Uiso   1.00
H356   H     0.51532   0.13427   0.06684   0.00000  Uiso   1.00
H357   H     0.15990   0.87681   0.96914   0.00000  Uiso   1.00
H358   H     0.01020   0.12149   0.14485   0.00000  Uiso   1.00
H359   H     0.72692   0.26119   0.06706   0.00000  Uiso   1.00
O360   O     0.05885   0.96250   0.92641   0.00000  Uiso   1.00
O361   O     0.86247   0.28351   0.15694   0.00000  Uiso   1.00
O362   O     0.80278   0.46680   0.05487   0.00000  Uiso   1.00
N363   N     0.08035   0.12288   0.95311   0.00000  Uiso   1.00
N364   N     0.94037   0.35162   0.11738   0.00000  Uiso   1.00
N365   N     0.61044   0.48225   0.04466   0.00000  Uiso   1.00
N366   N     0.14236   0.96026   0.96848   0.00000  Uiso   1.00
N367   N     0.00238   0.18900   0.13276   0.00000  Uiso   1.00
N368   N     0.67245   0.31963   0.06003   0.00000  Uiso   1.00
