data_job_05265
_audit_creation_date              2018-12-19
_audit_creation_method            'Materials Studio'
_symmetry_space_group_name_H-M    'P1'
_symmetry_Int_Tables_number       1
_symmetry_cell_setting            triclinic
loop_
_symmetry_equiv_pos_as_xyz
  x,y,z
_cell_length_a                    15.2256
_cell_length_b                    15.2256
_cell_length_c                    23.3956
_cell_angle_alpha                 90.0000
_cell_angle_beta                  90.0000
_cell_angle_gamma                 90.0000
loop_
_atom_site_label
_atom_site_type_symbol
_atom_site_fract_x
_atom_site_fract_y
_atom_site_fract_z
_atom_site_U_iso_or_equiv
_atom_site_adp_type
_atom_site_occupancy
C1     C     0.17410   0.53739   0.82678   0.00000  Uiso   1.00
C2     C     0.17832   0.46133   0.86910   0.00000  Uiso   1.00
C3     C     0.11090   0.43478   0.90508   0.00000  Uiso   1.00
C4     C     0.12775   0.36375   0.94065   0.00000  Uiso   1.00
C5     C     0.12193   0.25221   0.00645   0.00000  Uiso   1.00
C6     C     0.25007   0.59823   0.84215   0.00000  Uiso   1.00
C7     C     0.24299   0.68677   0.85547   0.00000  Uiso   1.00
C8     C     0.32025   0.73098   0.86834   0.00000  Uiso   1.00
C9     C     0.42584   0.83198   0.89226   0.00000  Uiso   1.00
C10    C     0.19659   0.49853   0.76852   0.00000  Uiso   1.00
C11    C     0.14455   0.50326   0.71991   0.00000  Uiso   1.00
C12    C     0.17680   0.46355   0.67078   0.00000  Uiso   1.00
C13    C     0.19936   0.40975   0.58038   0.00000  Uiso   1.00
C14    C     0.32393   0.45847   0.82595   0.00000  Uiso   1.00
C15    C     0.25970   0.41847   0.86865   0.00000  Uiso   1.00
C16    C     0.27666   0.34746   0.90417   0.00000  Uiso   1.00
C17    C     0.20927   0.32081   0.94020   0.00000  Uiso   1.00
C18    C     0.33145   0.55537   0.84170   0.00000  Uiso   1.00
C19    C     0.40874   0.59946   0.85455   0.00000  Uiso   1.00
C20    C     0.40178   0.68804   0.86789   0.00000  Uiso   1.00
C21    C     0.27797   0.45566   0.76807   0.00000  Uiso   1.00
C22    C     0.31031   0.41594   0.71900   0.00000  Uiso   1.00
C23    C     0.25833   0.42061   0.67033   0.00000  Uiso   1.00
H24    H     0.11075   0.57076   0.82713   0.00000  Uiso   1.00
H25    H     0.04793   0.46797   0.90542   0.00000  Uiso   1.00
H26    H     0.18000   0.71992   0.85581   0.00000  Uiso   1.00
H27    H     0.08158   0.53643   0.72028   0.00000  Uiso   1.00
H28    H     0.01418   0.33512   0.99204   0.00000  Uiso   1.00
H29    H     0.29266   0.86639   0.88741   0.00000  Uiso   1.00
H30    H     0.08513   0.47947   0.60161   0.00000  Uiso   1.00
H31    H     0.38728   0.42510   0.82560   0.00000  Uiso   1.00
H32    H     0.33964   0.31431   0.90381   0.00000  Uiso   1.00
H33    H     0.47171   0.56627   0.85420   0.00000  Uiso   1.00
H34    H     0.37329   0.38278   0.71867   0.00000  Uiso   1.00
H35    H     0.25095   0.21041   0.99074   0.00000  Uiso   1.00
H36    H     0.52943   0.74168   0.88610   0.00000  Uiso   1.00
H37    H     0.32189   0.35476   0.60031   0.00000  Uiso   1.00
O38    O     0.09624   0.20253   0.04288   0.00000  Uiso   1.00
O39    O     0.46160   0.89953   0.90559   0.00000  Uiso   1.00
O40    O     0.18931   0.39191   0.53064   0.00000  Uiso   1.00
N41    N     0.07644   0.32096   0.98099   0.00000  Uiso   1.00
N42    N     0.33680   0.81766   0.88318   0.00000  Uiso   1.00
N43    N     0.14278   0.45595   0.61598   0.00000  Uiso   1.00
N44    N     0.20384   0.25386   0.98029   0.00000  Uiso   1.00
N45    N     0.46420   0.75055   0.88247   0.00000  Uiso   1.00
N46    N     0.27018   0.38884   0.61528   0.00000  Uiso   1.00
C47    C     0.82590   0.46261   0.82678   0.00000  Uiso   1.00
C48    C     0.82168   0.53867   0.86910   0.00000  Uiso   1.00
C49    C     0.88910   0.56522   0.90508   0.00000  Uiso   1.00
C50    C     0.87225   0.63625   0.94065   0.00000  Uiso   1.00
C51    C     0.87807   0.74779   0.00645   0.00000  Uiso   1.00
C52    C     0.74993   0.40177   0.84215   0.00000  Uiso   1.00
C53    C     0.75701   0.31323   0.85547   0.00000  Uiso   1.00
C54    C     0.67975   0.26902   0.86834   0.00000  Uiso   1.00
C55    C     0.57416   0.16802   0.89226   0.00000  Uiso   1.00
C56    C     0.80341   0.50147   0.76852   0.00000  Uiso   1.00
C57    C     0.85545   0.49674   0.71991   0.00000  Uiso   1.00
C58    C     0.82320   0.53645   0.67078   0.00000  Uiso   1.00
C59    C     0.80064   0.59025   0.58038   0.00000  Uiso   1.00
C60    C     0.67607   0.54153   0.82595   0.00000  Uiso   1.00
C61    C     0.74030   0.58153   0.86865   0.00000  Uiso   1.00
C62    C     0.72334   0.65254   0.90417   0.00000  Uiso   1.00
C63    C     0.79073   0.67919   0.94020   0.00000  Uiso   1.00
C64    C     0.66855   0.44463   0.84170   0.00000  Uiso   1.00
C65    C     0.59126   0.40054   0.85455   0.00000  Uiso   1.00
C66    C     0.59822   0.31196   0.86789   0.00000  Uiso   1.00
C67    C     0.72203   0.54434   0.76807   0.00000  Uiso   1.00
C68    C     0.68969   0.58406   0.71900   0.00000  Uiso   1.00
C69    C     0.74167   0.57939   0.67033   0.00000  Uiso   1.00
H70    H     0.88925   0.42924   0.82713   0.00000  Uiso   1.00
H71    H     0.95207   0.53203   0.90542   0.00000  Uiso   1.00
H72    H     0.82000   0.28008   0.85581   0.00000  Uiso   1.00
H73    H     0.91842   0.46357   0.72028   0.00000  Uiso   1.00
H74    H     0.98582   0.66488   0.99204   0.00000  Uiso   1.00
H75    H     0.70734   0.13361   0.88741   0.00000  Uiso   1.00
H76    H     0.91487   0.52053   0.60161   0.00000  Uiso   1.00
H77    H     0.61272   0.57490   0.82560   0.00000  Uiso   1.00
H78    H     0.66036   0.68569   0.90381   0.00000  Uiso   1.00
H79    H     0.52829   0.43373   0.85420   0.00000  Uiso   1.00
H80    H     0.62671   0.61722   0.71867   0.00000  Uiso   1.00
H81    H     0.74905   0.78959   0.99074   0.00000  Uiso   1.00
H82    H     0.47057   0.25832   0.88610   0.00000  Uiso   1.00
H83    H     0.67811   0.64524   0.60031   0.00000  Uiso   1.00
O84    O     0.90376   0.79747   0.04288   0.00000  Uiso   1.00
O85    O     0.53840   0.10047   0.90559   0.00000  Uiso   1.00
O86    O     0.81069   0.60809   0.53064   0.00000  Uiso   1.00
N87    N     0.92356   0.67904   0.98099   0.00000  Uiso   1.00
N88    N     0.66320   0.18234   0.88318   0.00000  Uiso   1.00
N89    N     0.85722   0.54405   0.61598   0.00000  Uiso   1.00
N90    N     0.79616   0.74614   0.98029   0.00000  Uiso   1.00
N91    N     0.53580   0.24945   0.88247   0.00000  Uiso   1.00
N92    N     0.72982   0.61116   0.61528   0.00000  Uiso   1.00
C93    C     0.96261   0.67410   0.32678   0.00000  Uiso   1.00
C94    C     0.03867   0.67832   0.36910   0.00000  Uiso   1.00
C95    C     0.06522   0.61090   0.40508   0.00000  Uiso   1.00
C96    C     0.13625   0.62775   0.44065   0.00000  Uiso   1.00
C97    C     0.24779   0.62193   0.50645   0.00000  Uiso   1.00
C98    C     0.90177   0.75007   0.34215   0.00000  Uiso   1.00
C99    C     0.81323   0.74299   0.35547   0.00000  Uiso   1.00
C100   C     0.76902   0.82025   0.36834   0.00000  Uiso   1.00
C101   C     0.66802   0.92584   0.39226   0.00000  Uiso   1.00
C102   C     0.00147   0.69659   0.26852   0.00000  Uiso   1.00
C103   C     0.99674   0.64455   0.21991   0.00000  Uiso   1.00
C104   C     0.03645   0.67680   0.17078   0.00000  Uiso   1.00
C105   C     0.09025   0.69936   0.08038   0.00000  Uiso   1.00
C106   C     0.04153   0.82393   0.32595   0.00000  Uiso   1.00
C107   C     0.08153   0.75970   0.36865   0.00000  Uiso   1.00
C108   C     0.15254   0.77666   0.40417   0.00000  Uiso   1.00
C109   C     0.17919   0.70927   0.44020   0.00000  Uiso   1.00
C110   C     0.94463   0.83145   0.34170   0.00000  Uiso   1.00
C111   C     0.90054   0.90874   0.35455   0.00000  Uiso   1.00
C112   C     0.81196   0.90178   0.36789   0.00000  Uiso   1.00
C113   C     0.04434   0.77797   0.26807   0.00000  Uiso   1.00
C114   C     0.08406   0.81031   0.21900   0.00000  Uiso   1.00
C115   C     0.07939   0.75833   0.17033   0.00000  Uiso   1.00
H116   H     0.92924   0.61075   0.32713   0.00000  Uiso   1.00
H117   H     0.03203   0.54793   0.40542   0.00000  Uiso   1.00
H118   H     0.78008   0.68000   0.35581   0.00000  Uiso   1.00
H119   H     0.96357   0.58158   0.22028   0.00000  Uiso   1.00
H120   H     0.16488   0.51418   0.49204   0.00000  Uiso   1.00
H121   H     0.63361   0.79266   0.38741   0.00000  Uiso   1.00
H122   H     0.02053   0.58513   0.10161   0.00000  Uiso   1.00
H123   H     0.07490   0.88728   0.32560   0.00000  Uiso   1.00
H124   H     0.18569   0.83964   0.40381   0.00000  Uiso   1.00
H125   H     0.93373   0.97171   0.35420   0.00000  Uiso   1.00
H126   H     0.11722   0.87329   0.21867   0.00000  Uiso   1.00
H127   H     0.28959   0.75095   0.49074   0.00000  Uiso   1.00
H128   H     0.75832   0.02943   0.38610   0.00000  Uiso   1.00
H129   H     0.14524   0.82189   0.10031   0.00000  Uiso   1.00
O130   O     0.29747   0.59624   0.54288   0.00000  Uiso   1.00
O131   O     0.60047   0.96160   0.40559   0.00000  Uiso   1.00
O132   O     0.10809   0.68931   0.03064   0.00000  Uiso   1.00
N133   N     0.17904   0.57644   0.48099   0.00000  Uiso   1.00
N134   N     0.68234   0.83680   0.38318   0.00000  Uiso   1.00
N135   N     0.04405   0.64278   0.11598   0.00000  Uiso   1.00
N136   N     0.24614   0.70384   0.48029   0.00000  Uiso   1.00
N137   N     0.74945   0.96420   0.38247   0.00000  Uiso   1.00
N138   N     0.11116   0.77018   0.11528   0.00000  Uiso   1.00
C139   C     0.03739   0.32590   0.32678   0.00000  Uiso   1.00
C140   C     0.96133   0.32168   0.36910   0.00000  Uiso   1.00
C141   C     0.93478   0.38910   0.40508   0.00000  Uiso   1.00
C142   C     0.86375   0.37225   0.44065   0.00000  Uiso   1.00
C143   C     0.75221   0.37807   0.50645   0.00000  Uiso   1.00
C144   C     0.09823   0.24993   0.34215   0.00000  Uiso   1.00
C145   C     0.18677   0.25701   0.35547   0.00000  Uiso   1.00
C146   C     0.23098   0.17975   0.36834   0.00000  Uiso   1.00
C147   C     0.33198   0.07416   0.39226   0.00000  Uiso   1.00
C148   C     0.99853   0.30341   0.26852   0.00000  Uiso   1.00
C149   C     0.00326   0.35545   0.21991   0.00000  Uiso   1.00
C150   C     0.96355   0.32320   0.17078   0.00000  Uiso   1.00
C151   C     0.90975   0.30064   0.08038   0.00000  Uiso   1.00
C152   C     0.95847   0.17607   0.32595   0.00000  Uiso   1.00
C153   C     0.91847   0.24030   0.36865   0.00000  Uiso   1.00
C154   C     0.84746   0.22334   0.40417   0.00000  Uiso   1.00
C155   C     0.82081   0.29073   0.44020   0.00000  Uiso   1.00
C156   C     0.05537   0.16855   0.34170   0.00000  Uiso   1.00
C157   C     0.09946   0.09126   0.35455   0.00000  Uiso   1.00
C158   C     0.18804   0.09822   0.36789   0.00000  Uiso   1.00
C159   C     0.95566   0.22203   0.26807   0.00000  Uiso   1.00
C160   C     0.91594   0.18969   0.21900   0.00000  Uiso   1.00
C161   C     0.92061   0.24167   0.17033   0.00000  Uiso   1.00
H162   H     0.07076   0.38925   0.32713   0.00000  Uiso   1.00
H163   H     0.96797   0.45207   0.40542   0.00000  Uiso   1.00
H164   H     0.21992   0.32000   0.35581   0.00000  Uiso   1.00
H165   H     0.03643   0.41842   0.22028   0.00000  Uiso   1.00
H166   H     0.83512   0.48582   0.49204   0.00000  Uiso   1.00
H167   H     0.36639   0.20734   0.38741   0.00000  Uiso   1.00
H168   H     0.97947   0.41487   0.10161   0.00000  Uiso   1.00
H169   H     0.92510   0.11272   0.32560   0.00000  Uiso   1.00
H170   H     0.81431   0.16036   0.40381   0.00000  Uiso   1.00
H171   H     0.06627   0.02829   0.35420   0.00000  Uiso   1.00
H172   H     0.88278   0.12671   0.21867   0.00000  Uiso   1.00
H173   H     0.71041   0.24905   0.49074   0.00000  Uiso   1.00
H174   H     0.24168   0.97057   0.38610   0.00000  Uiso   1.00
H175   H     0.85476   0.17811   0.10031   0.00000  Uiso   1.00
O176   O     0.70253   0.40376   0.54288   0.00000  Uiso   1.00
O177   O     0.39953   0.03840   0.40559   0.00000  Uiso   1.00
O178   O     0.89191   0.31069   0.03064   0.00000  Uiso   1.00
N179   N     0.82096   0.42356   0.48099   0.00000  Uiso   1.00
N180   N     0.31766   0.16320   0.38318   0.00000  Uiso   1.00
N181   N     0.95595   0.35722   0.11598   0.00000  Uiso   1.00
N182   N     0.75386   0.29616   0.48029   0.00000  Uiso   1.00
N183   N     0.25055   0.03580   0.38247   0.00000  Uiso   1.00
N184   N     0.88884   0.22982   0.11528   0.00000  Uiso   1.00
C185   C     0.32590   0.96261   0.67322   0.00000  Uiso   1.00
C186   C     0.32168   0.03867   0.63090   0.00000  Uiso   1.00
C187   C     0.38910   0.06522   0.59492   0.00000  Uiso   1.00
C188   C     0.37225   0.13625   0.55935   0.00000  Uiso   1.00
C189   C     0.37807   0.24779   0.49355   0.00000  Uiso   1.00
C190   C     0.24993   0.90177   0.65785   0.00000  Uiso   1.00
C191   C     0.25701   0.81323   0.64453   0.00000  Uiso   1.00
C192   C     0.17975   0.76902   0.63166   0.00000  Uiso   1.00
C193   C     0.07416   0.66802   0.60774   0.00000  Uiso   1.00
C194   C     0.30341   0.00147   0.73148   0.00000  Uiso   1.00
C195   C     0.35545   0.99674   0.78009   0.00000  Uiso   1.00
C196   C     0.32320   0.03645   0.82922   0.00000  Uiso   1.00
C197   C     0.30064   0.09025   0.91962   0.00000  Uiso   1.00
C198   C     0.17607   0.04153   0.67405   0.00000  Uiso   1.00
C199   C     0.24030   0.08153   0.63135   0.00000  Uiso   1.00
C200   C     0.22334   0.15254   0.59583   0.00000  Uiso   1.00
C201   C     0.29073   0.17919   0.55980   0.00000  Uiso   1.00
C202   C     0.16855   0.94463   0.65830   0.00000  Uiso   1.00
C203   C     0.09126   0.90054   0.64545   0.00000  Uiso   1.00
C204   C     0.09822   0.81196   0.63211   0.00000  Uiso   1.00
C205   C     0.22203   0.04434   0.73193   0.00000  Uiso   1.00
C206   C     0.18969   0.08406   0.78100   0.00000  Uiso   1.00
C207   C     0.24167   0.07939   0.82967   0.00000  Uiso   1.00
H208   H     0.38925   0.92924   0.67287   0.00000  Uiso   1.00
H209   H     0.45207   0.03203   0.59458   0.00000  Uiso   1.00
H210   H     0.32000   0.78008   0.64419   0.00000  Uiso   1.00
H211   H     0.41842   0.96357   0.77972   0.00000  Uiso   1.00
H212   H     0.48582   0.16488   0.50796   0.00000  Uiso   1.00
H213   H     0.20734   0.63361   0.61259   0.00000  Uiso   1.00
H214   H     0.41487   0.02053   0.89839   0.00000  Uiso   1.00
H215   H     0.11272   0.07490   0.67440   0.00000  Uiso   1.00
H216   H     0.16036   0.18569   0.59619   0.00000  Uiso   1.00
H217   H     0.02829   0.93373   0.64580   0.00000  Uiso   1.00
H218   H     0.12671   0.11722   0.78133   0.00000  Uiso   1.00
H219   H     0.24905   0.28959   0.50926   0.00000  Uiso   1.00
H220   H     0.97057   0.75832   0.61390   0.00000  Uiso   1.00
H221   H     0.17811   0.14524   0.89969   0.00000  Uiso   1.00
O222   O     0.40376   0.29747   0.45712   0.00000  Uiso   1.00
O223   O     0.03840   0.60047   0.59441   0.00000  Uiso   1.00
O224   O     0.31069   0.10809   0.96936   0.00000  Uiso   1.00
N225   N     0.42356   0.17904   0.51901   0.00000  Uiso   1.00
N226   N     0.16320   0.68234   0.61682   0.00000  Uiso   1.00
N227   N     0.35722   0.04405   0.88402   0.00000  Uiso   1.00
N228   N     0.29616   0.24614   0.51971   0.00000  Uiso   1.00
N229   N     0.03580   0.74945   0.61753   0.00000  Uiso   1.00
N230   N     0.22982   0.11116   0.88472   0.00000  Uiso   1.00
C231   C     0.67410   0.03739   0.67322   0.00000  Uiso   1.00
C232   C     0.67832   0.96133   0.63090   0.00000  Uiso   1.00
C233   C     0.61090   0.93478   0.59492   0.00000  Uiso   1.00
C234   C     0.62775   0.86375   0.55935   0.00000  Uiso   1.00
C235   C     0.62193   0.75221   0.49355   0.00000  Uiso   1.00
C236   C     0.75007   0.09823   0.65785   0.00000  Uiso   1.00
C237   C     0.74299   0.18677   0.64453   0.00000  Uiso   1.00
C238   C     0.82025   0.23098   0.63166   0.00000  Uiso   1.00
C239   C     0.92584   0.33198   0.60774   0.00000  Uiso   1.00
C240   C     0.69659   0.99853   0.73148   0.00000  Uiso   1.00
C241   C     0.64455   0.00326   0.78009   0.00000  Uiso   1.00
C242   C     0.67680   0.96355   0.82922   0.00000  Uiso   1.00
C243   C     0.69936   0.90975   0.91962   0.00000  Uiso   1.00
C244   C     0.82393   0.95847   0.67405   0.00000  Uiso   1.00
C245   C     0.75970   0.91847   0.63135   0.00000  Uiso   1.00
C246   C     0.77666   0.84746   0.59583   0.00000  Uiso   1.00
C247   C     0.70927   0.82081   0.55980   0.00000  Uiso   1.00
C248   C     0.83145   0.05537   0.65830   0.00000  Uiso   1.00
C249   C     0.90874   0.09946   0.64545   0.00000  Uiso   1.00
C250   C     0.90178   0.18804   0.63211   0.00000  Uiso   1.00
C251   C     0.77797   0.95566   0.73193   0.00000  Uiso   1.00
C252   C     0.81031   0.91594   0.78100   0.00000  Uiso   1.00
C253   C     0.75833   0.92061   0.82967   0.00000  Uiso   1.00
H254   H     0.61075   0.07076   0.67287   0.00000  Uiso   1.00
H255   H     0.54793   0.96797   0.59458   0.00000  Uiso   1.00
H256   H     0.68000   0.21992   0.64419   0.00000  Uiso   1.00
H257   H     0.58158   0.03643   0.77972   0.00000  Uiso   1.00
H258   H     0.51418   0.83512   0.50796   0.00000  Uiso   1.00
H259   H     0.79266   0.36639   0.61259   0.00000  Uiso   1.00
H260   H     0.58513   0.97947   0.89839   0.00000  Uiso   1.00
H261   H     0.88728   0.92510   0.67440   0.00000  Uiso   1.00
H262   H     0.83964   0.81431   0.59619   0.00000  Uiso   1.00
H263   H     0.97171   0.06627   0.64580   0.00000  Uiso   1.00
H264   H     0.87329   0.88278   0.78133   0.00000  Uiso   1.00
H265   H     0.75095   0.71041   0.50926   0.00000  Uiso   1.00
H266   H     0.02943   0.24168   0.61390   0.00000  Uiso   1.00
H267   H     0.82189   0.85476   0.89969   0.00000  Uiso   1.00
O268   O     0.59624   0.70253   0.45712   0.00000  Uiso   1.00
O269   O     0.96160   0.39953   0.59441   0.00000  Uiso   1.00
O270   O     0.68931   0.89191   0.96936   0.00000  Uiso   1.00
N271   N     0.57644   0.82096   0.51901   0.00000  Uiso   1.00
N272   N     0.83680   0.31766   0.61682   0.00000  Uiso   1.00
N273   N     0.64278   0.95595   0.88402   0.00000  Uiso   1.00
N274   N     0.70384   0.75386   0.51971   0.00000  Uiso   1.00
N275   N     0.96420   0.25055   0.61753   0.00000  Uiso   1.00
N276   N     0.77018   0.88884   0.88472   0.00000  Uiso   1.00
C277   C     0.53739   0.82590   0.17322   0.00000  Uiso   1.00
C278   C     0.46133   0.82168   0.13090   0.00000  Uiso   1.00
C279   C     0.43478   0.88910   0.09492   0.00000  Uiso   1.00
C280   C     0.36375   0.87225   0.05935   0.00000  Uiso   1.00
C281   C     0.25221   0.87807   0.99355   0.00000  Uiso   1.00
C282   C     0.59823   0.74993   0.15785   0.00000  Uiso   1.00
C283   C     0.68677   0.75701   0.14453   0.00000  Uiso   1.00
C284   C     0.73098   0.67975   0.13166   0.00000  Uiso   1.00
C285   C     0.83198   0.57416   0.10774   0.00000  Uiso   1.00
C286   C     0.49853   0.80341   0.23148   0.00000  Uiso   1.00
C287   C     0.50326   0.85545   0.28009   0.00000  Uiso   1.00
C288   C     0.46355   0.82320   0.32922   0.00000  Uiso   1.00
C289   C     0.40975   0.80064   0.41962   0.00000  Uiso   1.00
C290   C     0.45847   0.67607   0.17405   0.00000  Uiso   1.00
C291   C     0.41847   0.74030   0.13135   0.00000  Uiso   1.00
C292   C     0.34746   0.72334   0.09583   0.00000  Uiso   1.00
C293   C     0.32081   0.79073   0.05980   0.00000  Uiso   1.00
C294   C     0.55537   0.66855   0.15830   0.00000  Uiso   1.00
C295   C     0.59946   0.59126   0.14545   0.00000  Uiso   1.00
C296   C     0.68804   0.59822   0.13211   0.00000  Uiso   1.00
C297   C     0.45566   0.72203   0.23193   0.00000  Uiso   1.00
C298   C     0.41594   0.68969   0.28100   0.00000  Uiso   1.00
C299   C     0.42061   0.74167   0.32967   0.00000  Uiso   1.00
H300   H     0.57076   0.88925   0.17287   0.00000  Uiso   1.00
H301   H     0.46797   0.95207   0.09458   0.00000  Uiso   1.00
H302   H     0.71992   0.82000   0.14419   0.00000  Uiso   1.00
H303   H     0.53643   0.91842   0.27972   0.00000  Uiso   1.00
H304   H     0.33512   0.98582   0.00796   0.00000  Uiso   1.00
H305   H     0.86639   0.70734   0.11259   0.00000  Uiso   1.00
H306   H     0.47947   0.91487   0.39839   0.00000  Uiso   1.00
H307   H     0.42510   0.61272   0.17440   0.00000  Uiso   1.00
H308   H     0.31431   0.66036   0.09619   0.00000  Uiso   1.00
H309   H     0.56627   0.52829   0.14580   0.00000  Uiso   1.00
H310   H     0.38278   0.62671   0.28133   0.00000  Uiso   1.00
H311   H     0.21041   0.74905   0.00926   0.00000  Uiso   1.00
H312   H     0.74168   0.47057   0.11390   0.00000  Uiso   1.00
H313   H     0.35476   0.67811   0.39969   0.00000  Uiso   1.00
O314   O     0.20253   0.90376   0.95712   0.00000  Uiso   1.00
O315   O     0.89953   0.53840   0.09441   0.00000  Uiso   1.00
O316   O     0.39191   0.81069   0.46936   0.00000  Uiso   1.00
N317   N     0.32096   0.92356   0.01901   0.00000  Uiso   1.00
N318   N     0.81766   0.66320   0.11682   0.00000  Uiso   1.00
N319   N     0.45595   0.85722   0.38402   0.00000  Uiso   1.00
N320   N     0.25386   0.79616   0.01971   0.00000  Uiso   1.00
N321   N     0.75055   0.53580   0.11753   0.00000  Uiso   1.00
N322   N     0.38884   0.72982   0.38472   0.00000  Uiso   1.00
C323   C     0.46261   0.17410   0.17322   0.00000  Uiso   1.00
C324   C     0.53867   0.17832   0.13090   0.00000  Uiso   1.00
C325   C     0.56522   0.11090   0.09492   0.00000  Uiso   1.00
C326   C     0.63625   0.12775   0.05935   0.00000  Uiso   1.00
C327   C     0.74779   0.12193   0.99355   0.00000  Uiso   1.00
C328   C     0.40177   0.25007   0.15785   0.00000  Uiso   1.00
C329   C     0.31323   0.24299   0.14453   0.00000  Uiso   1.00
C330   C     0.26902   0.32025   0.13166   0.00000  Uiso   1.00
C331   C     0.16802   0.42584   0.10774   0.00000  Uiso   1.00
C332   C     0.50147   0.19659   0.23148   0.00000  Uiso   1.00
C333   C     0.49674   0.14455   0.28009   0.00000  Uiso   1.00
C334   C     0.53645   0.17680   0.32922   0.00000  Uiso   1.00
C335   C     0.59025   0.19936   0.41962   0.00000  Uiso   1.00
C336   C     0.54153   0.32393   0.17405   0.00000  Uiso   1.00
C337   C     0.58153   0.25970   0.13135   0.00000  Uiso   1.00
C338   C     0.65254   0.27666   0.09583   0.00000  Uiso   1.00
C339   C     0.67919   0.20927   0.05980   0.00000  Uiso   1.00
C340   C     0.44463   0.33145   0.15830   0.00000  Uiso   1.00
C341   C     0.40054   0.40874   0.14545   0.00000  Uiso   1.00
C342   C     0.31196   0.40178   0.13211   0.00000  Uiso   1.00
C343   C     0.54434   0.27797   0.23193   0.00000  Uiso   1.00
C344   C     0.58406   0.31031   0.28100   0.00000  Uiso   1.00
C345   C     0.57939   0.25833   0.32967   0.00000  Uiso   1.00
H346   H     0.42924   0.11075   0.17287   0.00000  Uiso   1.00
H347   H     0.53203   0.04793   0.09458   0.00000  Uiso   1.00
H348   H     0.28008   0.18000   0.14419   0.00000  Uiso   1.00
H349   H     0.46357   0.08158   0.27972   0.00000  Uiso   1.00
H350   H     0.66488   0.01418   0.00796   0.00000  Uiso   1.00
H351   H     0.13361   0.29266   0.11259   0.00000  Uiso   1.00
H352   H     0.52053   0.08513   0.39839   0.00000  Uiso   1.00
H353   H     0.57490   0.38728   0.17440   0.00000  Uiso   1.00
H354   H     0.68569   0.33964   0.09619   0.00000  Uiso   1.00
H355   H     0.43373   0.47171   0.14580   0.00000  Uiso   1.00
H356   H     0.61722   0.37329   0.28133   0.00000  Uiso   1.00
H357   H     0.78959   0.25095   0.00926   0.00000  Uiso   1.00
H358   H     0.25832   0.52943   0.11390   0.00000  Uiso   1.00
H359   H     0.64524   0.32189   0.39969   0.00000  Uiso   1.00
O360   O     0.79747   0.09624   0.95712   0.00000  Uiso   1.00
O361   O     0.10047   0.46160   0.09441   0.00000  Uiso   1.00
O362   O     0.60809   0.18931   0.46936   0.00000  Uiso   1.00
N363   N     0.67904   0.07644   0.01901   0.00000  Uiso   1.00
N364   N     0.18234   0.33680   0.11682   0.00000  Uiso   1.00
N365   N     0.54405   0.14278   0.38402   0.00000  Uiso   1.00
N366   N     0.74614   0.20384   0.01971   0.00000  Uiso   1.00
N367   N     0.24945   0.46420   0.11753   0.00000  Uiso   1.00
N368   N     0.61116   0.27018   0.38472   0.00000  Uiso   1.00
