data_job_06227
_audit_creation_date              2018-12-19
_audit_creation_method            'Materials Studio'
_symmetry_space_group_name_H-M    'P1'
_symmetry_Int_Tables_number       1
_symmetry_cell_setting            triclinic
loop_
_symmetry_equiv_pos_as_xyz
  x,y,z
_cell_length_a                    16.9491
_cell_length_b                    16.9382
_cell_length_c                    16.9159
_cell_angle_alpha                 89.8465
_cell_angle_beta                  89.6937
_cell_angle_gamma                 89.5045
loop_
_atom_site_label
_atom_site_type_symbol
_atom_site_fract_x
_atom_site_fract_y
_atom_site_fract_z
_atom_site_U_iso_or_equiv
_atom_site_adp_type
_atom_site_occupancy
C1     C     0.17662   0.77647   0.49147   0.00000  Uiso   1.00
C2     C     0.21944   0.85526   0.48908   0.00000  Uiso   1.00
C3     C     0.30031   0.86536   0.49566   0.00000  Uiso   1.00
C4     C     0.32794   0.94221   0.49205   0.00000  Uiso   1.00
C5     C     0.40225   0.05476   0.48987   0.00000  Uiso   1.00
C6     C     0.11584   0.78326   0.55795   0.00000  Uiso   1.00
C7     C     0.10959   0.73282   0.62243   0.00000  Uiso   1.00
C8     C     0.05000   0.74907   0.67679   0.00000  Uiso   1.00
C9     C     0.96343   0.74980   0.78150   0.00000  Uiso   1.00
C10    C     0.12968   0.77212   0.41498   0.00000  Uiso   1.00
C11    C     0.13505   0.71229   0.35926   0.00000  Uiso   1.00
C12    C     0.08710   0.71915   0.29325   0.00000  Uiso   1.00
C13    C     0.02202   0.70258   0.17599   0.00000  Uiso   1.00
C14    C     0.08191   0.89499   0.47335   0.00000  Uiso   1.00
C15    C     0.16799   0.91963   0.47924   0.00000  Uiso   1.00
C16    C     0.19552   0.99650   0.47561   0.00000  Uiso   1.00
C17    C     0.27641   0.00671   0.48219   0.00000  Uiso   1.00
C18    C     0.06439   0.84764   0.54811   0.00000  Uiso   1.00
C19    C     0.00480   0.86396   0.60238   0.00000  Uiso   1.00
C20    C     0.99847   0.81356   0.66693   0.00000  Uiso   1.00
C21    C     0.07824   0.83649   0.40514   0.00000  Uiso   1.00
C22    C     0.03027   0.84343   0.33921   0.00000  Uiso   1.00
C23    C     0.03556   0.78364   0.28340   0.00000  Uiso   1.00
H24    H     0.21667   0.72635   0.49914   0.00000  Uiso   1.00
H25    H     0.34010   0.81552   0.50328   0.00000  Uiso   1.00
H26    H     0.14940   0.68300   0.63002   0.00000  Uiso   1.00
H27    H     0.17487   0.66248   0.36689   0.00000  Uiso   1.00
H28    H     0.45425   0.94279   0.50357   0.00000  Uiso   1.00
H29    H     0.05215   0.66334   0.77080   0.00000  Uiso   1.00
H30    H     0.10584   0.62007   0.21593   0.00000  Uiso   1.00
H31    H     0.04185   0.94512   0.46569   0.00000  Uiso   1.00
H32    H     0.15569   0.04630   0.46799   0.00000  Uiso   1.00
H33    H     0.96500   0.91378   0.59474   0.00000  Uiso   1.00
H34    H     0.99046   0.89326   0.33161   0.00000  Uiso   1.00
H35    H     0.30458   0.13009   0.47493   0.00000  Uiso   1.00
H36    H     0.90247   0.85065   0.74216   0.00000  Uiso   1.00
H37    H     0.95616   0.80738   0.18730   0.00000  Uiso   1.00
O38    O     0.45745   0.09906   0.49140   0.00000  Uiso   1.00
O39    O     0.92990   0.73243   0.84198   0.00000  Uiso   1.00
O40    O     0.00034   0.67566   0.11402   0.00000  Uiso   1.00
N41    N     0.40340   0.97298   0.49649   0.00000  Uiso   1.00
N42    N     0.02747   0.71173   0.74634   0.00000  Uiso   1.00
N43    N     0.07765   0.67126   0.22761   0.00000  Uiso   1.00
N44    N     0.32287   0.07377   0.48108   0.00000  Uiso   1.00
N45    N     0.94693   0.81252   0.73094   0.00000  Uiso   1.00
N46    N     0.99711   0.77205   0.21220   0.00000  Uiso   1.00
C47    C     0.48976   0.17644   0.77730   0.00000  Uiso   1.00
C48    C     0.48718   0.21953   0.85633   0.00000  Uiso   1.00
C49    C     0.49359   0.30046   0.86668   0.00000  Uiso   1.00
C50    C     0.48982   0.32835   0.94372   0.00000  Uiso   1.00
C51    C     0.48734   0.40305   0.05664   0.00000  Uiso   1.00
C52    C     0.55621   0.11554   0.78384   0.00000  Uiso   1.00
C53    C     0.62065   0.10904   0.73324   0.00000  Uiso   1.00
C54    C     0.67499   0.04938   0.74927   0.00000  Uiso   1.00
C55    C     0.77965   0.96260   0.74962   0.00000  Uiso   1.00
C56    C     0.41351   0.12957   0.77289   0.00000  Uiso   1.00
C57    C     0.35798   0.13485   0.71307   0.00000  Uiso   1.00
C58    C     0.29218   0.08699   0.71987   0.00000  Uiso   1.00
C59    C     0.17528   0.02200   0.70322   0.00000  Uiso   1.00
C60    C     0.47167   0.08205   0.89572   0.00000  Uiso   1.00
C61    C     0.47735   0.16825   0.92064   0.00000  Uiso   1.00
C62    C     0.47357   0.19603   0.99769   0.00000  Uiso   1.00
C63    C     0.47997   0.27699   0.00815   0.00000  Uiso   1.00
C64    C     0.54639   0.06427   0.84816   0.00000  Uiso   1.00
C65    C     0.60064   0.00460   0.86426   0.00000  Uiso   1.00
C66    C     0.66514   0.99802   0.81370   0.00000  Uiso   1.00
C67    C     0.40368   0.07830   0.83721   0.00000  Uiso   1.00
C68    C     0.33796   0.03042   0.84409   0.00000  Uiso   1.00
C69    C     0.28233   0.03563   0.78430   0.00000  Uiso   1.00
H70    H     0.49742   0.21635   0.72723   0.00000  Uiso   1.00
H71    H     0.50120   0.34012   0.81689   0.00000  Uiso   1.00
H72    H     0.62824   0.14872   0.68347   0.00000  Uiso   1.00
H73    H     0.36560   0.17453   0.66331   0.00000  Uiso   1.00
H74    H     0.50108   0.45472   0.94466   0.00000  Uiso   1.00
H75    H     0.76894   0.05113   0.66333   0.00000  Uiso   1.00
H76    H     0.21512   0.10556   0.62081   0.00000  Uiso   1.00
H77    H     0.46402   0.04213   0.94579   0.00000  Uiso   1.00
H78    H     0.46596   0.15634   0.04745   0.00000  Uiso   1.00
H79    H     0.59301   0.96493   0.91403   0.00000  Uiso   1.00
H80    H     0.33037   0.99075   0.89387   0.00000  Uiso   1.00
H81    H     0.47249   0.30556   0.13180   0.00000  Uiso   1.00
H82    H     0.74035   0.90196   0.85045   0.00000  Uiso   1.00
H83    H     0.18653   0.95639   0.80795   0.00000  Uiso   1.00
O84    O     0.48870   0.45841   0.10116   0.00000  Uiso   1.00
O85    O     0.84011   0.92890   0.73205   0.00000  Uiso   1.00
O86    O     0.11351   0.00032   0.67627   0.00000  Uiso   1.00
N87    N     0.49407   0.40395   0.97475   0.00000  Uiso   1.00
N88    N     0.74451   0.02661   0.71172   0.00000  Uiso   1.00
N89    N     0.22675   0.07749   0.67197   0.00000  Uiso   1.00
N90    N     0.47868   0.32368   0.07545   0.00000  Uiso   1.00
N91    N     0.72912   0.94635   0.81242   0.00000  Uiso   1.00
N92    N     0.21136   0.99722   0.77266   0.00000  Uiso   1.00
C93    C     0.77625   0.49089   0.17659   0.00000  Uiso   1.00
C94    C     0.85506   0.48832   0.21963   0.00000  Uiso   1.00
C95    C     0.86525   0.49495   0.30068   0.00000  Uiso   1.00
C96    C     0.94211   0.49115   0.32851   0.00000  Uiso   1.00
C97    C     0.05471   0.48872   0.40316   0.00000  Uiso   1.00
C98    C     0.78275   0.55719   0.11580   0.00000  Uiso   1.00
C99    C     0.73214   0.62173   0.10955   0.00000  Uiso   1.00
C100   C     0.74812   0.67590   0.04996   0.00000  Uiso   1.00
C101   C     0.74842   0.78038   0.96337   0.00000  Uiso   1.00
C102   C     0.77205   0.41446   0.12944   0.00000  Uiso   1.00
C103   C     0.71244   0.35900   0.13462   0.00000  Uiso   1.00
C104   C     0.71941   0.29300   0.08650   0.00000  Uiso   1.00
C105   C     0.70311   0.17586   0.02108   0.00000  Uiso   1.00
C106   C     0.89461   0.47233   0.08188   0.00000  Uiso   1.00
C107   C     0.91934   0.47823   0.16819   0.00000  Uiso   1.00
C108   C     0.99621   0.47441   0.19590   0.00000  Uiso   1.00
C109   C     0.00652   0.48104   0.27697   0.00000  Uiso   1.00
C110   C     0.84703   0.54711   0.06436   0.00000  Uiso   1.00
C111   C     0.86309   0.60119   0.00476   0.00000  Uiso   1.00
C112   C     0.81253   0.66580   0.99842   0.00000  Uiso   1.00
C113   C     0.83634   0.40437   0.07799   0.00000  Uiso   1.00
C114   C     0.84340   0.33846   0.02984   0.00000  Uiso   1.00
C115   C     0.78382   0.28290   0.03496   0.00000  Uiso   1.00
H116   H     0.72619   0.49875   0.21664   0.00000  Uiso   1.00
H117   H     0.81549   0.50276   0.34047   0.00000  Uiso   1.00
H118   H     0.68239   0.62952   0.14936   0.00000  Uiso   1.00
H119   H     0.66270   0.36682   0.17444   0.00000  Uiso   1.00
H120   H     0.94284   0.50280   0.45508   0.00000  Uiso   1.00
H121   H     0.66218   0.77005   0.05209   0.00000  Uiso   1.00
H122   H     0.62066   0.21610   0.10497   0.00000  Uiso   1.00
H123   H     0.94466   0.46448   0.04183   0.00000  Uiso   1.00
H124   H     0.04595   0.46661   0.15607   0.00000  Uiso   1.00
H125   H     0.91285   0.59337   0.96496   0.00000  Uiso   1.00
H126   H     0.89316   0.33067   0.99004   0.00000  Uiso   1.00
H127   H     0.12989   0.47346   0.30541   0.00000  Uiso   1.00
H128   H     0.84922   0.74071   0.90242   0.00000  Uiso   1.00
H129   H     0.80771   0.18677   0.95530   0.00000  Uiso   1.00
O130   O     0.09905   0.49017   0.45855   0.00000  Uiso   1.00
O131   O     0.73082   0.84079   0.92984   0.00000  Uiso   1.00
O132   O     0.67636   0.11403   0.99922   0.00000  Uiso   1.00
N133   N     0.97296   0.49558   0.40418   0.00000  Uiso   1.00
N134   N     0.71056   0.74546   0.02742   0.00000  Uiso   1.00
N135   N     0.67174   0.22757   0.07684   0.00000  Uiso   1.00
N136   N     0.07361   0.47980   0.32364   0.00000  Uiso   1.00
N137   N     0.81121   0.72967   0.94688   0.00000  Uiso   1.00
N138   N     0.77239   0.21178   0.99630   0.00000  Uiso   1.00
C139   C     0.82338   0.22353   0.50853   0.00000  Uiso   1.00
C140   C     0.78056   0.14474   0.51092   0.00000  Uiso   1.00
C141   C     0.69969   0.13464   0.50434   0.00000  Uiso   1.00
C142   C     0.67206   0.05779   0.50795   0.00000  Uiso   1.00
C143   C     0.59775   0.94524   0.51013   0.00000  Uiso   1.00
C144   C     0.88416   0.21674   0.44205   0.00000  Uiso   1.00
C145   C     0.89041   0.26718   0.37757   0.00000  Uiso   1.00
C146   C     0.95000   0.25093   0.32321   0.00000  Uiso   1.00
C147   C     0.03657   0.25020   0.21850   0.00000  Uiso   1.00
C148   C     0.87032   0.22788   0.58502   0.00000  Uiso   1.00
C149   C     0.86495   0.28771   0.64074   0.00000  Uiso   1.00
C150   C     0.91290   0.28085   0.70675   0.00000  Uiso   1.00
C151   C     0.97798   0.29742   0.82401   0.00000  Uiso   1.00
C152   C     0.91809   0.10501   0.52665   0.00000  Uiso   1.00
C153   C     0.83200   0.08037   0.52076   0.00000  Uiso   1.00
C154   C     0.80448   0.00350   0.52439   0.00000  Uiso   1.00
C155   C     0.72359   0.99329   0.51782   0.00000  Uiso   1.00
C156   C     0.93561   0.15236   0.45189   0.00000  Uiso   1.00
C157   C     0.99520   0.13604   0.39762   0.00000  Uiso   1.00
C158   C     0.00153   0.18644   0.33307   0.00000  Uiso   1.00
C159   C     0.92176   0.16351   0.59486   0.00000  Uiso   1.00
C160   C     0.96973   0.15657   0.66079   0.00000  Uiso   1.00
C161   C     0.96443   0.21636   0.71660   0.00000  Uiso   1.00
H162   H     0.78333   0.27365   0.50086   0.00000  Uiso   1.00
H163   H     0.65990   0.18448   0.49672   0.00000  Uiso   1.00
H164   H     0.85060   0.31700   0.36998   0.00000  Uiso   1.00
H165   H     0.82513   0.33752   0.63311   0.00000  Uiso   1.00
H166   H     0.54575   0.05721   0.49643   0.00000  Uiso   1.00
H167   H     0.94785   0.33666   0.22920   0.00000  Uiso   1.00
H168   H     0.89416   0.37993   0.78407   0.00000  Uiso   1.00
H169   H     0.95815   0.05488   0.53431   0.00000  Uiso   1.00
H170   H     0.84431   0.95370   0.53201   0.00000  Uiso   1.00
H171   H     0.03500   0.08622   0.40526   0.00000  Uiso   1.00
H172   H     0.00954   0.10674   0.66839   0.00000  Uiso   1.00
H173   H     0.69542   0.86991   0.52507   0.00000  Uiso   1.00
H174   H     0.09753   0.14935   0.25784   0.00000  Uiso   1.00
H175   H     0.04384   0.19262   0.81270   0.00000  Uiso   1.00
O176   O     0.54255   0.90094   0.50860   0.00000  Uiso   1.00
O177   O     0.07010   0.26757   0.15802   0.00000  Uiso   1.00
O178   O     0.99966   0.32434   0.88598   0.00000  Uiso   1.00
N179   N     0.59660   0.02702   0.50351   0.00000  Uiso   1.00
N180   N     0.97253   0.28827   0.25366   0.00000  Uiso   1.00
N181   N     0.92235   0.32874   0.77239   0.00000  Uiso   1.00
N182   N     0.67713   0.92623   0.51892   0.00000  Uiso   1.00
N183   N     0.05307   0.18748   0.26907   0.00000  Uiso   1.00
N184   N     0.00289   0.22795   0.78780   0.00000  Uiso   1.00
C185   C     0.51024   0.82356   0.22270   0.00000  Uiso   1.00
C186   C     0.51282   0.78047   0.14367   0.00000  Uiso   1.00
C187   C     0.50641   0.69954   0.13332   0.00000  Uiso   1.00
C188   C     0.51018   0.67165   0.05628   0.00000  Uiso   1.00
C189   C     0.51266   0.59695   0.94336   0.00000  Uiso   1.00
C190   C     0.44379   0.88446   0.21616   0.00000  Uiso   1.00
C191   C     0.37935   0.89096   0.26676   0.00000  Uiso   1.00
C192   C     0.32501   0.95062   0.25073   0.00000  Uiso   1.00
C193   C     0.22035   0.03740   0.25038   0.00000  Uiso   1.00
C194   C     0.58649   0.87043   0.22711   0.00000  Uiso   1.00
C195   C     0.64202   0.86515   0.28693   0.00000  Uiso   1.00
C196   C     0.70782   0.91301   0.28013   0.00000  Uiso   1.00
C197   C     0.82472   0.97800   0.29678   0.00000  Uiso   1.00
C198   C     0.52833   0.91795   0.10428   0.00000  Uiso   1.00
C199   C     0.52265   0.83175   0.07936   0.00000  Uiso   1.00
C200   C     0.52643   0.80397   0.00231   0.00000  Uiso   1.00
C201   C     0.52003   0.72301   0.99184   0.00000  Uiso   1.00
C202   C     0.45361   0.93573   0.15184   0.00000  Uiso   1.00
C203   C     0.39936   0.99540   0.13574   0.00000  Uiso   1.00
C204   C     0.33485   0.00198   0.18630   0.00000  Uiso   1.00
C205   C     0.59632   0.92170   0.16279   0.00000  Uiso   1.00
C206   C     0.66204   0.96958   0.15591   0.00000  Uiso   1.00
C207   C     0.71766   0.96437   0.21570   0.00000  Uiso   1.00
H208   H     0.50258   0.78365   0.27277   0.00000  Uiso   1.00
H209   H     0.49880   0.65988   0.18311   0.00000  Uiso   1.00
H210   H     0.37176   0.85128   0.31653   0.00000  Uiso   1.00
H211   H     0.63440   0.82547   0.33669   0.00000  Uiso   1.00
H212   H     0.49892   0.54528   0.05534   0.00000  Uiso   1.00
H213   H     0.23106   0.94887   0.33667   0.00000  Uiso   1.00
H214   H     0.78488   0.89444   0.37919   0.00000  Uiso   1.00
H215   H     0.53598   0.95787   0.05421   0.00000  Uiso   1.00
H216   H     0.53404   0.84366   0.95255   0.00000  Uiso   1.00
H217   H     0.40699   0.03507   0.08597   0.00000  Uiso   1.00
H218   H     0.66963   0.00925   0.10613   0.00000  Uiso   1.00
H219   H     0.52751   0.69444   0.86820   0.00000  Uiso   1.00
H220   H     0.25965   0.09804   0.14955   0.00000  Uiso   1.00
H221   H     0.81347   0.04361   0.19206   0.00000  Uiso   1.00
O222   O     0.51130   0.54159   0.89884   0.00000  Uiso   1.00
O223   O     0.15989   0.07110   0.26795   0.00000  Uiso   1.00
O224   O     0.88649   0.99968   0.32373   0.00000  Uiso   1.00
N225   N     0.50593   0.59605   0.02525   0.00000  Uiso   1.00
N226   N     0.25549   0.97339   0.28828   0.00000  Uiso   1.00
N227   N     0.77325   0.92251   0.32803   0.00000  Uiso   1.00
N228   N     0.52132   0.67632   0.92455   0.00000  Uiso   1.00
N229   N     0.27088   0.05365   0.18758   0.00000  Uiso   1.00
N230   N     0.78864   0.00278   0.22734   0.00000  Uiso   1.00
C231   C     0.22375   0.50911   0.82341   0.00000  Uiso   1.00
C232   C     0.14494   0.51168   0.78037   0.00000  Uiso   1.00
C233   C     0.13475   0.50505   0.69932   0.00000  Uiso   1.00
C234   C     0.05789   0.50885   0.67149   0.00000  Uiso   1.00
C235   C     0.94529   0.51128   0.59684   0.00000  Uiso   1.00
C236   C     0.21725   0.44281   0.88420   0.00000  Uiso   1.00
C237   C     0.26786   0.37827   0.89045   0.00000  Uiso   1.00
C238   C     0.25188   0.32410   0.95004   0.00000  Uiso   1.00
C239   C     0.25158   0.21963   0.03663   0.00000  Uiso   1.00
C240   C     0.22795   0.58554   0.87056   0.00000  Uiso   1.00
C241   C     0.28756   0.64100   0.86538   0.00000  Uiso   1.00
C242   C     0.28059   0.70700   0.91350   0.00000  Uiso   1.00
C243   C     0.29689   0.82414   0.97892   0.00000  Uiso   1.00
C244   C     0.10539   0.52767   0.91812   0.00000  Uiso   1.00
C245   C     0.08066   0.52177   0.83181   0.00000  Uiso   1.00
C246   C     0.00379   0.52559   0.80410   0.00000  Uiso   1.00
C247   C     0.99348   0.51896   0.72303   0.00000  Uiso   1.00
C248   C     0.15297   0.45289   0.93564   0.00000  Uiso   1.00
C249   C     0.13691   0.39881   0.99524   0.00000  Uiso   1.00
C250   C     0.18747   0.33420   0.00158   0.00000  Uiso   1.00
C251   C     0.16366   0.59563   0.92201   0.00000  Uiso   1.00
C252   C     0.15660   0.66154   0.97016   0.00000  Uiso   1.00
C253   C     0.21618   0.71710   0.96504   0.00000  Uiso   1.00
H254   H     0.27381   0.50125   0.78336   0.00000  Uiso   1.00
H255   H     0.18451   0.49724   0.65953   0.00000  Uiso   1.00
H256   H     0.31761   0.37048   0.85064   0.00000  Uiso   1.00
H257   H     0.33730   0.63318   0.82556   0.00000  Uiso   1.00
H258   H     0.05716   0.49720   0.54492   0.00000  Uiso   1.00
H259   H     0.33782   0.22995   0.94791   0.00000  Uiso   1.00
H260   H     0.37934   0.78390   0.89503   0.00000  Uiso   1.00
H261   H     0.05534   0.53552   0.95817   0.00000  Uiso   1.00
H262   H     0.95405   0.53339   0.84393   0.00000  Uiso   1.00
H263   H     0.08715   0.40663   0.03504   0.00000  Uiso   1.00
H264   H     0.10684   0.66933   0.00996   0.00000  Uiso   1.00
H265   H     0.87011   0.52654   0.69459   0.00000  Uiso   1.00
H266   H     0.15078   0.25929   0.09758   0.00000  Uiso   1.00
H267   H     0.19229   0.81324   0.04470   0.00000  Uiso   1.00
O268   O     0.90095   0.50983   0.54145   0.00000  Uiso   1.00
O269   O     0.26918   0.15921   0.07016   0.00000  Uiso   1.00
O270   O     0.32364   0.88597   0.00078   0.00000  Uiso   1.00
N271   N     0.02704   0.50442   0.59582   0.00000  Uiso   1.00
N272   N     0.28944   0.25454   0.97258   0.00000  Uiso   1.00
N273   N     0.32826   0.77243   0.92316   0.00000  Uiso   1.00
N274   N     0.92639   0.52020   0.67636   0.00000  Uiso   1.00
N275   N     0.18879   0.27033   0.05312   0.00000  Uiso   1.00
N276   N     0.22761   0.78822   0.00370   0.00000  Uiso   1.00
