data_job_05384
_audit_creation_date              2018-12-19
_audit_creation_method            'Materials Studio'
_symmetry_space_group_name_H-M    'P1'
_symmetry_Int_Tables_number       1
_symmetry_cell_setting            triclinic
loop_
_symmetry_equiv_pos_as_xyz
  x,y,z
_cell_length_a                    18.5178
_cell_length_b                    12.3869
_cell_length_c                    15.8427
_cell_angle_alpha                 90.0000
_cell_angle_beta                  134.7658
_cell_angle_gamma                 90.0000
loop_
_atom_site_label
_atom_site_type_symbol
_atom_site_fract_x
_atom_site_fract_y
_atom_site_fract_z
_atom_site_U_iso_or_equiv
_atom_site_adp_type
_atom_site_occupancy
C1     C     0.16011   0.86580   0.66565   0.00000  Uiso   1.00
C2     C     0.16928   0.94715   0.74505   0.00000  Uiso   1.00
C3     C     0.11471   0.04260   0.70740   0.00000  Uiso   1.00
C4     C     0.13412   0.10602   0.79382   0.00000  Uiso   1.00
C5     C     0.13754   0.23708   0.89889   0.00000  Uiso   1.00
C6     C     0.26690   0.85311   0.71733   0.00000  Uiso   1.00
C7     C     0.29440   0.86949   0.65637   0.00000  Uiso   1.00
C8     C     0.39599   0.85374   0.71945   0.00000  Uiso   1.00
C9     C     0.55094   0.83873   0.78146   0.00000  Uiso   1.00
C10    C     0.13427   0.75801   0.68563   0.00000  Uiso   1.00
C11    C     0.05027   0.69440   0.59802   0.00000  Uiso   1.00
C12    C     0.04020   0.59856   0.63441   0.00000  Uiso   1.00
C13    C     0.98923   0.43588   0.64721   0.00000  Uiso   1.00
C14    C     0.29161   0.80869   0.88607   0.00000  Uiso   1.00
C15    C     0.24071   0.91612   0.86477   0.00000  Uiso   1.00
C16    C     0.26020   0.97942   0.95126   0.00000  Uiso   1.00
C17    C     0.20567   0.07495   0.91375   0.00000  Uiso   1.00
C18    C     0.33832   0.82210   0.83704   0.00000  Uiso   1.00
C19    C     0.43989   0.80631   0.90023   0.00000  Uiso   1.00
C20    C     0.46755   0.82266   0.83938   0.00000  Uiso   1.00
C21    C     0.20569   0.72699   0.80535   0.00000  Uiso   1.00
C22    C     0.19576   0.63122   0.84188   0.00000  Uiso   1.00
C23    C     0.11176   0.56748   0.75434   0.00000  Uiso   1.00
H24    H     0.10450   0.88995   0.57244   0.00000  Uiso   1.00
H25    H     0.05945   0.06658   0.61474   0.00000  Uiso   1.00
H26    H     0.23911   0.89348   0.56372   0.00000  Uiso   1.00
H27    H     0.99501   0.71843   0.50538   0.00000  Uiso   1.00
H28    H     0.04103   0.24875   0.71444   0.00000  Uiso   1.00
H29    H     0.41984   0.88374   0.60684   0.00000  Uiso   1.00
H30    H     0.90511   0.51459   0.48382   0.00000  Uiso   1.00
H31    H     0.34722   0.78454   0.97928   0.00000  Uiso   1.00
H32    H     0.31548   0.95539   0.04390   0.00000  Uiso   1.00
H33    H     0.49514   0.78230   0.99287   0.00000  Uiso   1.00
H34    H     0.25104   0.60724   0.93454   0.00000  Uiso   1.00
H35    H     0.24883   0.15851   0.06277   0.00000  Uiso   1.00
H36    H     0.62765   0.79349   0.95516   0.00000  Uiso   1.00
H37    H     0.11292   0.42435   0.83214   0.00000  Uiso   1.00
O38    O     0.11970   0.31794   0.92378   0.00000  Uiso   1.00
O39    O     0.61668   0.83904   0.78260   0.00000  Uiso   1.00
O40    O     0.94137   0.35473   0.62120   0.00000  Uiso   1.00
N41    N     0.09428   0.20406   0.78755   0.00000  Uiso   1.00
N42    N     0.44845   0.86281   0.68695   0.00000  Uiso   1.00
N43    N     0.96723   0.51767   0.57193   0.00000  Uiso   1.00
N44    N     0.20609   0.15550   0.97498   0.00000  Uiso   1.00
N45    N     0.56027   0.81425   0.87438   0.00000  Uiso   1.00
N46    N     0.07905   0.46911   0.75936   0.00000  Uiso   1.00
C47    C     0.83989   0.36580   0.83435   0.00000  Uiso   1.00
C48    C     0.83072   0.44715   0.75495   0.00000  Uiso   1.00
C49    C     0.88529   0.54260   0.79260   0.00000  Uiso   1.00
C50    C     0.86588   0.60602   0.70618   0.00000  Uiso   1.00
C51    C     0.86246   0.73708   0.60111   0.00000  Uiso   1.00
C52    C     0.73310   0.35311   0.78267   0.00000  Uiso   1.00
C53    C     0.70560   0.36949   0.84363   0.00000  Uiso   1.00
C54    C     0.60401   0.35374   0.78055   0.00000  Uiso   1.00
C55    C     0.44906   0.33873   0.71854   0.00000  Uiso   1.00
C56    C     0.86573   0.25801   0.81437   0.00000  Uiso   1.00
C57    C     0.94973   0.19440   0.90198   0.00000  Uiso   1.00
C58    C     0.95980   0.09856   0.86559   0.00000  Uiso   1.00
C59    C     0.01077   0.93588   0.85279   0.00000  Uiso   1.00
C60    C     0.70839   0.30869   0.61393   0.00000  Uiso   1.00
C61    C     0.75929   0.41612   0.63523   0.00000  Uiso   1.00
C62    C     0.73980   0.47942   0.54874   0.00000  Uiso   1.00
C63    C     0.79433   0.57495   0.58625   0.00000  Uiso   1.00
C64    C     0.66168   0.32210   0.66296   0.00000  Uiso   1.00
C65    C     0.56011   0.30631   0.59977   0.00000  Uiso   1.00
C66    C     0.53245   0.32266   0.66062   0.00000  Uiso   1.00
C67    C     0.79431   0.22699   0.69465   0.00000  Uiso   1.00
C68    C     0.80424   0.13122   0.65812   0.00000  Uiso   1.00
C69    C     0.88824   0.06748   0.74566   0.00000  Uiso   1.00
H70    H     0.89550   0.38995   0.92756   0.00000  Uiso   1.00
H71    H     0.94055   0.56658   0.88526   0.00000  Uiso   1.00
H72    H     0.76089   0.39348   0.93628   0.00000  Uiso   1.00
H73    H     0.00499   0.21843   0.99462   0.00000  Uiso   1.00
H74    H     0.95897   0.74875   0.78556   0.00000  Uiso   1.00
H75    H     0.58016   0.38374   0.89316   0.00000  Uiso   1.00
H76    H     0.09489   0.01459   0.01618   0.00000  Uiso   1.00
H77    H     0.65278   0.28454   0.52072   0.00000  Uiso   1.00
H78    H     0.68452   0.45539   0.45610   0.00000  Uiso   1.00
H79    H     0.50486   0.28230   0.50713   0.00000  Uiso   1.00
H80    H     0.74896   0.10724   0.56546   0.00000  Uiso   1.00
H81    H     0.75117   0.65851   0.43723   0.00000  Uiso   1.00
H82    H     0.37235   0.29349   0.54484   0.00000  Uiso   1.00
H83    H     0.88708   0.92435   0.66786   0.00000  Uiso   1.00
O84    O     0.88030   0.81794   0.57622   0.00000  Uiso   1.00
O85    O     0.38332   0.33904   0.71740   0.00000  Uiso   1.00
O86    O     0.05863   0.85473   0.87880   0.00000  Uiso   1.00
N87    N     0.90572   0.70406   0.71245   0.00000  Uiso   1.00
N88    N     0.55155   0.36281   0.81305   0.00000  Uiso   1.00
N89    N     0.03277   0.01767   0.92807   0.00000  Uiso   1.00
N90    N     0.79391   0.65550   0.52502   0.00000  Uiso   1.00
N91    N     0.43973   0.31425   0.62562   0.00000  Uiso   1.00
N92    N     0.92095   0.96911   0.74064   0.00000  Uiso   1.00
C93    C     0.83989   0.13420   0.33435   0.00000  Uiso   1.00
C94    C     0.83072   0.05285   0.25495   0.00000  Uiso   1.00
C95    C     0.88529   0.95740   0.29260   0.00000  Uiso   1.00
C96    C     0.86588   0.89398   0.20618   0.00000  Uiso   1.00
C97    C     0.86246   0.76292   0.10111   0.00000  Uiso   1.00
C98    C     0.73310   0.14689   0.28267   0.00000  Uiso   1.00
C99    C     0.70560   0.13051   0.34363   0.00000  Uiso   1.00
C100   C     0.60401   0.14626   0.28055   0.00000  Uiso   1.00
C101   C     0.44906   0.16127   0.21854   0.00000  Uiso   1.00
C102   C     0.86573   0.24199   0.31437   0.00000  Uiso   1.00
C103   C     0.94973   0.30560   0.40198   0.00000  Uiso   1.00
C104   C     0.95980   0.40144   0.36559   0.00000  Uiso   1.00
C105   C     0.01077   0.56412   0.35279   0.00000  Uiso   1.00
C106   C     0.70839   0.19131   0.11393   0.00000  Uiso   1.00
C107   C     0.75929   0.08388   0.13523   0.00000  Uiso   1.00
C108   C     0.73980   0.02058   0.04874   0.00000  Uiso   1.00
C109   C     0.79433   0.92505   0.08625   0.00000  Uiso   1.00
C110   C     0.66168   0.17790   0.16296   0.00000  Uiso   1.00
C111   C     0.56011   0.19369   0.09977   0.00000  Uiso   1.00
C112   C     0.53245   0.17734   0.16062   0.00000  Uiso   1.00
C113   C     0.79431   0.27301   0.19465   0.00000  Uiso   1.00
C114   C     0.80424   0.36878   0.15812   0.00000  Uiso   1.00
C115   C     0.88824   0.43252   0.24566   0.00000  Uiso   1.00
H116   H     0.89550   0.11005   0.42756   0.00000  Uiso   1.00
H117   H     0.94055   0.93342   0.38526   0.00000  Uiso   1.00
H118   H     0.76089   0.10652   0.43628   0.00000  Uiso   1.00
H119   H     0.00499   0.28157   0.49462   0.00000  Uiso   1.00
H120   H     0.95897   0.75125   0.28556   0.00000  Uiso   1.00
H121   H     0.58016   0.11626   0.39316   0.00000  Uiso   1.00
H122   H     0.09489   0.48541   0.51618   0.00000  Uiso   1.00
H123   H     0.65278   0.21546   0.02072   0.00000  Uiso   1.00
H124   H     0.68452   0.04461   0.95610   0.00000  Uiso   1.00
H125   H     0.50486   0.21770   0.00713   0.00000  Uiso   1.00
H126   H     0.74896   0.39276   0.06546   0.00000  Uiso   1.00
H127   H     0.75117   0.84149   0.93723   0.00000  Uiso   1.00
H128   H     0.37235   0.20651   0.04484   0.00000  Uiso   1.00
H129   H     0.88708   0.57565   0.16786   0.00000  Uiso   1.00
O130   O     0.88030   0.68206   0.07622   0.00000  Uiso   1.00
O131   O     0.38332   0.16096   0.21740   0.00000  Uiso   1.00
O132   O     0.05863   0.64527   0.37880   0.00000  Uiso   1.00
N133   N     0.90572   0.79594   0.21245   0.00000  Uiso   1.00
N134   N     0.55155   0.13719   0.31305   0.00000  Uiso   1.00
N135   N     0.03277   0.48233   0.42807   0.00000  Uiso   1.00
N136   N     0.79391   0.84450   0.02502   0.00000  Uiso   1.00
N137   N     0.43973   0.18575   0.12562   0.00000  Uiso   1.00
N138   N     0.92095   0.53089   0.24064   0.00000  Uiso   1.00
C139   C     0.16011   0.63420   0.16565   0.00000  Uiso   1.00
C140   C     0.16928   0.55285   0.24505   0.00000  Uiso   1.00
C141   C     0.11471   0.45740   0.20740   0.00000  Uiso   1.00
C142   C     0.13412   0.39398   0.29382   0.00000  Uiso   1.00
C143   C     0.13754   0.26292   0.39889   0.00000  Uiso   1.00
C144   C     0.26690   0.64689   0.21733   0.00000  Uiso   1.00
C145   C     0.29440   0.63051   0.15637   0.00000  Uiso   1.00
C146   C     0.39599   0.64626   0.21945   0.00000  Uiso   1.00
C147   C     0.55094   0.66127   0.28146   0.00000  Uiso   1.00
C148   C     0.13427   0.74199   0.18563   0.00000  Uiso   1.00
C149   C     0.05027   0.80560   0.09802   0.00000  Uiso   1.00
C150   C     0.04020   0.90144   0.13441   0.00000  Uiso   1.00
C151   C     0.98923   0.06412   0.14721   0.00000  Uiso   1.00
C152   C     0.29161   0.69131   0.38607   0.00000  Uiso   1.00
C153   C     0.24071   0.58388   0.36477   0.00000  Uiso   1.00
C154   C     0.26020   0.52058   0.45126   0.00000  Uiso   1.00
C155   C     0.20567   0.42505   0.41375   0.00000  Uiso   1.00
C156   C     0.33832   0.67790   0.33704   0.00000  Uiso   1.00
C157   C     0.43989   0.69369   0.40023   0.00000  Uiso   1.00
C158   C     0.46755   0.67734   0.33938   0.00000  Uiso   1.00
C159   C     0.20569   0.77301   0.30535   0.00000  Uiso   1.00
C160   C     0.19576   0.86878   0.34188   0.00000  Uiso   1.00
C161   C     0.11176   0.93252   0.25434   0.00000  Uiso   1.00
H162   H     0.10450   0.61005   0.07244   0.00000  Uiso   1.00
H163   H     0.05945   0.43342   0.11474   0.00000  Uiso   1.00
H164   H     0.23911   0.60652   0.06372   0.00000  Uiso   1.00
H165   H     0.99501   0.78157   0.00538   0.00000  Uiso   1.00
H166   H     0.04103   0.25125   0.21444   0.00000  Uiso   1.00
H167   H     0.41984   0.61626   0.10684   0.00000  Uiso   1.00
H168   H     0.90511   0.98541   0.98382   0.00000  Uiso   1.00
H169   H     0.34722   0.71546   0.47928   0.00000  Uiso   1.00
H170   H     0.31548   0.54461   0.54390   0.00000  Uiso   1.00
H171   H     0.49514   0.71770   0.49287   0.00000  Uiso   1.00
H172   H     0.25104   0.89276   0.43454   0.00000  Uiso   1.00
H173   H     0.24883   0.34149   0.56277   0.00000  Uiso   1.00
H174   H     0.62765   0.70651   0.45516   0.00000  Uiso   1.00
H175   H     0.11292   0.07565   0.33214   0.00000  Uiso   1.00
O176   O     0.11970   0.18206   0.42378   0.00000  Uiso   1.00
O177   O     0.61668   0.66096   0.28260   0.00000  Uiso   1.00
O178   O     0.94137   0.14527   0.12120   0.00000  Uiso   1.00
N179   N     0.09428   0.29594   0.28755   0.00000  Uiso   1.00
N180   N     0.44845   0.63719   0.18695   0.00000  Uiso   1.00
N181   N     0.96723   0.98233   0.07193   0.00000  Uiso   1.00
N182   N     0.20609   0.34450   0.47498   0.00000  Uiso   1.00
N183   N     0.56027   0.68575   0.37438   0.00000  Uiso   1.00
N184   N     0.07905   0.03089   0.25936   0.00000  Uiso   1.00
