data_job_03792
_audit_creation_date              2018-12-19
_audit_creation_method            'Materials Studio'
_symmetry_space_group_name_H-M    'P1'
_symmetry_Int_Tables_number       1
_symmetry_cell_setting            triclinic
loop_
_symmetry_equiv_pos_as_xyz
  x,y,z
_cell_length_a                    35.0461
_cell_length_b                    12.1721
_cell_length_c                    32.4716
_cell_angle_alpha                 90.0000
_cell_angle_beta                  163.8753
_cell_angle_gamma                 90.0000
loop_
_atom_site_label
_atom_site_type_symbol
_atom_site_fract_x
_atom_site_fract_y
_atom_site_fract_z
_atom_site_U_iso_or_equiv
_atom_site_adp_type
_atom_site_occupancy
C1     C     0.74582   0.84890   0.06620   0.00000  Uiso   1.00
C2     C     0.79967   0.77514   0.15639   0.00000  Uiso   1.00
C3     C     0.88336   0.68388   0.23795   0.00000  Uiso   1.00
C4     C     0.92147   0.62724   0.31278   0.00000  Uiso   1.00
C5     C     0.01174   0.50758   0.45377   0.00000  Uiso   1.00
C6     C     0.58978   0.84882   0.90863   0.00000  Uiso   1.00
C7     C     0.49700   0.81952   0.78189   0.00000  Uiso   1.00
C8     C     0.35843   0.82493   0.64816   0.00000  Uiso   1.00
C9     C     0.12284   0.81974   0.40449   0.00000  Uiso   1.00
C10    C     0.79240   0.96503   0.12523   0.00000  Uiso   1.00
C11    C     0.86996   0.03346   0.18057   0.00000  Uiso   1.00
C12    C     0.90195   0.13673   0.22917   0.00000  Uiso   1.00
C13    C     0.98095   0.31197   0.32181   0.00000  Uiso   1.00
C14    C     0.66470   0.91061   0.05405   0.00000  Uiso   1.00
C15    C     0.75561   0.80866   0.14978   0.00000  Uiso   1.00
C16    C     0.79361   0.75215   0.22452   0.00000  Uiso   1.00
C17    C     0.87734   0.66083   0.30618   0.00000  Uiso   1.00
C18    C     0.54572   0.88234   0.90203   0.00000  Uiso   1.00
C19    C     0.40725   0.88780   0.76845   0.00000  Uiso   1.00
C20    C     0.31429   0.85851   0.64155   0.00000  Uiso   1.00
C21    C     0.74835   0.99855   0.11864   0.00000  Uiso   1.00
C22    C     0.78021   0.10173   0.16714   0.00000  Uiso   1.00
C23    C     0.85781   0.17031   0.22256   0.00000  Uiso   1.00
H24    H     0.78012   0.82280   0.07132   0.00000  Uiso   1.00
H25    H     0.91742   0.65796   0.24302   0.00000  Uiso   1.00
H26    H     0.53113   0.79360   0.78703   0.00000  Uiso   1.00
H27    H     0.90403   0.00750   0.18566   0.00000  Uiso   1.00
H28    H     0.05018   0.48995   0.43043   0.00000  Uiso   1.00
H29    H     0.23566   0.77599   0.46894   0.00000  Uiso   1.00
H30    H     0.02200   0.22704   0.30953   0.00000  Uiso   1.00
H31    H     0.63039   0.93671   0.04891   0.00000  Uiso   1.00
H32    H     0.75950   0.77811   0.21939   0.00000  Uiso   1.00
H33    H     0.37320   0.91375   0.76339   0.00000  Uiso   1.00
H34    H     0.74610   0.12765   0.16202   0.00000  Uiso   1.00
H35    H     0.92200   0.58747   0.41124   0.00000  Uiso   1.00
H36    H     0.10747   0.87351   0.44975   0.00000  Uiso   1.00
H37    H     0.89381   0.32456   0.29034   0.00000  Uiso   1.00
O38    O     0.07368   0.43230   0.53334   0.00000  Uiso   1.00
O39    O     0.00506   0.80759   0.27191   0.00000  Uiso   1.00
O40    O     0.03672   0.39936   0.37474   0.00000  Uiso   1.00
N41    N     0.00232   0.53468   0.40254   0.00000  Uiso   1.00
N42    N     0.24079   0.80209   0.50361   0.00000  Uiso   1.00
N43    N     0.97592   0.22380   0.28945   0.00000  Uiso   1.00
N44    N     0.93335   0.58716   0.39222   0.00000  Uiso   1.00
N45    N     0.17181   0.85457   0.49329   0.00000  Uiso   1.00
N46    N     0.90694   0.27627   0.27913   0.00000  Uiso   1.00
C47    C     0.25418   0.34890   0.43380   0.00000  Uiso   1.00
C48    C     0.20033   0.27514   0.34361   0.00000  Uiso   1.00
C49    C     0.11664   0.18388   0.26205   0.00000  Uiso   1.00
C50    C     0.07853   0.12724   0.18722   0.00000  Uiso   1.00
C51    C     0.98826   0.00758   0.04623   0.00000  Uiso   1.00
C52    C     0.41022   0.34882   0.59137   0.00000  Uiso   1.00
C53    C     0.50300   0.31952   0.71811   0.00000  Uiso   1.00
C54    C     0.64157   0.32493   0.85184   0.00000  Uiso   1.00
C55    C     0.87716   0.31974   0.09551   0.00000  Uiso   1.00
C56    C     0.20760   0.46503   0.37477   0.00000  Uiso   1.00
C57    C     0.13004   0.53346   0.31943   0.00000  Uiso   1.00
C58    C     0.09805   0.63673   0.27083   0.00000  Uiso   1.00
C59    C     0.01905   0.81197   0.17819   0.00000  Uiso   1.00
C60    C     0.33530   0.41061   0.44595   0.00000  Uiso   1.00
C61    C     0.24439   0.30866   0.35022   0.00000  Uiso   1.00
C62    C     0.20639   0.25215   0.27548   0.00000  Uiso   1.00
C63    C     0.12266   0.16083   0.19382   0.00000  Uiso   1.00
C64    C     0.45428   0.38234   0.59797   0.00000  Uiso   1.00
C65    C     0.59275   0.38780   0.73155   0.00000  Uiso   1.00
C66    C     0.68571   0.35851   0.85845   0.00000  Uiso   1.00
C67    C     0.25165   0.49855   0.38136   0.00000  Uiso   1.00
C68    C     0.21979   0.60173   0.33286   0.00000  Uiso   1.00
C69    C     0.14219   0.67031   0.27744   0.00000  Uiso   1.00
H70    H     0.21988   0.32280   0.42868   0.00000  Uiso   1.00
H71    H     0.08258   0.15796   0.25698   0.00000  Uiso   1.00
H72    H     0.46887   0.29360   0.71297   0.00000  Uiso   1.00
H73    H     0.09597   0.50750   0.31434   0.00000  Uiso   1.00
H74    H     0.94982   0.98995   0.06957   0.00000  Uiso   1.00
H75    H     0.76434   0.27599   0.03106   0.00000  Uiso   1.00
H76    H     0.97800   0.72704   0.19047   0.00000  Uiso   1.00
H77    H     0.36961   0.43671   0.45109   0.00000  Uiso   1.00
H78    H     0.24050   0.27811   0.28061   0.00000  Uiso   1.00
H79    H     0.62680   0.41375   0.73661   0.00000  Uiso   1.00
H80    H     0.25390   0.62765   0.33798   0.00000  Uiso   1.00
H81    H     0.07800   0.08747   0.08876   0.00000  Uiso   1.00
H82    H     0.89253   0.37351   0.05025   0.00000  Uiso   1.00
H83    H     0.10619   0.82456   0.20966   0.00000  Uiso   1.00
O84    O     0.92632   0.93230   0.96666   0.00000  Uiso   1.00
O85    O     0.99494   0.30759   0.22809   0.00000  Uiso   1.00
O86    O     0.96328   0.89936   0.12526   0.00000  Uiso   1.00
N87    N     0.99768   0.03468   0.09746   0.00000  Uiso   1.00
N88    N     0.75921   0.30209   0.99639   0.00000  Uiso   1.00
N89    N     0.02408   0.72380   0.21055   0.00000  Uiso   1.00
N90    N     0.06665   0.08716   0.10778   0.00000  Uiso   1.00
N91    N     0.82819   0.35457   0.00671   0.00000  Uiso   1.00
N92    N     0.09306   0.77627   0.22087   0.00000  Uiso   1.00
C93    C     0.25418   0.15110   0.93380   0.00000  Uiso   1.00
C94    C     0.20033   0.22486   0.84361   0.00000  Uiso   1.00
C95    C     0.11664   0.31612   0.76205   0.00000  Uiso   1.00
C96    C     0.07853   0.37276   0.68722   0.00000  Uiso   1.00
C97    C     0.98826   0.49242   0.54623   0.00000  Uiso   1.00
C98    C     0.41022   0.15118   0.09137   0.00000  Uiso   1.00
C99    C     0.50300   0.18048   0.21811   0.00000  Uiso   1.00
C100   C     0.64157   0.17507   0.35184   0.00000  Uiso   1.00
C101   C     0.87716   0.18026   0.59551   0.00000  Uiso   1.00
C102   C     0.20760   0.03497   0.87477   0.00000  Uiso   1.00
C103   C     0.13004   0.96654   0.81943   0.00000  Uiso   1.00
C104   C     0.09805   0.86327   0.77083   0.00000  Uiso   1.00
C105   C     0.01905   0.68803   0.67819   0.00000  Uiso   1.00
C106   C     0.33530   0.08939   0.94595   0.00000  Uiso   1.00
C107   C     0.24439   0.19134   0.85022   0.00000  Uiso   1.00
C108   C     0.20639   0.24785   0.77548   0.00000  Uiso   1.00
C109   C     0.12266   0.33917   0.69382   0.00000  Uiso   1.00
C110   C     0.45428   0.11766   0.09797   0.00000  Uiso   1.00
C111   C     0.59275   0.11220   0.23155   0.00000  Uiso   1.00
C112   C     0.68571   0.14149   0.35845   0.00000  Uiso   1.00
C113   C     0.25165   0.00145   0.88136   0.00000  Uiso   1.00
C114   C     0.21979   0.89827   0.83286   0.00000  Uiso   1.00
C115   C     0.14219   0.82969   0.77744   0.00000  Uiso   1.00
H116   H     0.21988   0.17720   0.92868   0.00000  Uiso   1.00
H117   H     0.08258   0.34204   0.75698   0.00000  Uiso   1.00
H118   H     0.46887   0.20640   0.21297   0.00000  Uiso   1.00
H119   H     0.09597   0.99250   0.81434   0.00000  Uiso   1.00
H120   H     0.94982   0.51005   0.56957   0.00000  Uiso   1.00
H121   H     0.76434   0.22401   0.53106   0.00000  Uiso   1.00
H122   H     0.97800   0.77296   0.69047   0.00000  Uiso   1.00
H123   H     0.36961   0.06329   0.95109   0.00000  Uiso   1.00
H124   H     0.24050   0.22189   0.78061   0.00000  Uiso   1.00
H125   H     0.62680   0.08625   0.23661   0.00000  Uiso   1.00
H126   H     0.25390   0.87235   0.83798   0.00000  Uiso   1.00
H127   H     0.07800   0.41253   0.58876   0.00000  Uiso   1.00
H128   H     0.89253   0.12649   0.55025   0.00000  Uiso   1.00
H129   H     0.10619   0.67544   0.70966   0.00000  Uiso   1.00
O130   O     0.92632   0.56770   0.46666   0.00000  Uiso   1.00
O131   O     0.99494   0.19241   0.72809   0.00000  Uiso   1.00
O132   O     0.96328   0.60064   0.62526   0.00000  Uiso   1.00
N133   N     0.99768   0.46532   0.59746   0.00000  Uiso   1.00
N134   N     0.75921   0.19791   0.49639   0.00000  Uiso   1.00
N135   N     0.02408   0.77620   0.71055   0.00000  Uiso   1.00
N136   N     0.06665   0.41284   0.60778   0.00000  Uiso   1.00
N137   N     0.82819   0.14543   0.50671   0.00000  Uiso   1.00
N138   N     0.09306   0.72373   0.72087   0.00000  Uiso   1.00
C139   C     0.74582   0.65110   0.56620   0.00000  Uiso   1.00
C140   C     0.79967   0.72486   0.65639   0.00000  Uiso   1.00
C141   C     0.88336   0.81612   0.73795   0.00000  Uiso   1.00
C142   C     0.92147   0.87276   0.81278   0.00000  Uiso   1.00
C143   C     0.01174   0.99242   0.95377   0.00000  Uiso   1.00
C144   C     0.58978   0.65118   0.40863   0.00000  Uiso   1.00
C145   C     0.49700   0.68048   0.28189   0.00000  Uiso   1.00
C146   C     0.35843   0.67507   0.14816   0.00000  Uiso   1.00
C147   C     0.12284   0.68026   0.90449   0.00000  Uiso   1.00
C148   C     0.79240   0.53497   0.62523   0.00000  Uiso   1.00
C149   C     0.86996   0.46654   0.68057   0.00000  Uiso   1.00
C150   C     0.90195   0.36327   0.72917   0.00000  Uiso   1.00
C151   C     0.98095   0.18803   0.82181   0.00000  Uiso   1.00
C152   C     0.66470   0.58939   0.55405   0.00000  Uiso   1.00
C153   C     0.75561   0.69134   0.64978   0.00000  Uiso   1.00
C154   C     0.79361   0.74785   0.72452   0.00000  Uiso   1.00
C155   C     0.87734   0.83917   0.80618   0.00000  Uiso   1.00
C156   C     0.54572   0.61766   0.40203   0.00000  Uiso   1.00
C157   C     0.40725   0.61220   0.26845   0.00000  Uiso   1.00
C158   C     0.31429   0.64149   0.14155   0.00000  Uiso   1.00
C159   C     0.74835   0.50145   0.61864   0.00000  Uiso   1.00
C160   C     0.78021   0.39827   0.66714   0.00000  Uiso   1.00
C161   C     0.85781   0.32969   0.72256   0.00000  Uiso   1.00
H162   H     0.78012   0.67720   0.57132   0.00000  Uiso   1.00
H163   H     0.91742   0.84204   0.74302   0.00000  Uiso   1.00
H164   H     0.53113   0.70640   0.28703   0.00000  Uiso   1.00
H165   H     0.90403   0.49250   0.68566   0.00000  Uiso   1.00
H166   H     0.05018   0.01005   0.93043   0.00000  Uiso   1.00
H167   H     0.23566   0.72401   0.96894   0.00000  Uiso   1.00
H168   H     0.02200   0.27296   0.80953   0.00000  Uiso   1.00
H169   H     0.63039   0.56329   0.54891   0.00000  Uiso   1.00
H170   H     0.75950   0.72189   0.71939   0.00000  Uiso   1.00
H171   H     0.37320   0.58625   0.26339   0.00000  Uiso   1.00
H172   H     0.74610   0.37235   0.66202   0.00000  Uiso   1.00
H173   H     0.92200   0.91253   0.91124   0.00000  Uiso   1.00
H174   H     0.10747   0.62649   0.94975   0.00000  Uiso   1.00
H175   H     0.89381   0.17544   0.79034   0.00000  Uiso   1.00
O176   O     0.07368   0.06770   0.03334   0.00000  Uiso   1.00
O177   O     0.00506   0.69241   0.77191   0.00000  Uiso   1.00
O178   O     0.03672   0.10064   0.87474   0.00000  Uiso   1.00
N179   N     0.00232   0.96532   0.90254   0.00000  Uiso   1.00
N180   N     0.24079   0.69791   0.00361   0.00000  Uiso   1.00
N181   N     0.97592   0.27620   0.78945   0.00000  Uiso   1.00
N182   N     0.93335   0.91284   0.89222   0.00000  Uiso   1.00
N183   N     0.17181   0.64543   0.99329   0.00000  Uiso   1.00
N184   N     0.90694   0.22373   0.77913   0.00000  Uiso   1.00
