data_job_05056
_audit_creation_date              2018-12-19
_audit_creation_method            'Materials Studio'
_symmetry_space_group_name_H-M    'P1'
_symmetry_Int_Tables_number       1
_symmetry_cell_setting            triclinic
loop_
_symmetry_equiv_pos_as_xyz
  x,y,z
_cell_length_a                    20.4867
_cell_length_b                    13.5097
_cell_length_c                    20.6530
_cell_angle_alpha                 90.0000
_cell_angle_beta                  90.0000
_cell_angle_gamma                 90.0000
loop_
_atom_site_label
_atom_site_type_symbol
_atom_site_fract_x
_atom_site_fract_y
_atom_site_fract_z
_atom_site_U_iso_or_equiv
_atom_site_adp_type
_atom_site_occupancy
C1     C     0.21970   0.90651   0.10526   0.00000  Uiso   1.00
C2     C     0.28479   0.95696   0.09132   0.00000  Uiso   1.00
C3     C     0.34587   0.92097   0.10835   0.00000  Uiso   1.00
C4     C     0.39947   0.97815   0.09124   0.00000  Uiso   1.00
C5     C     0.50164   0.04283   0.07463   0.00000  Uiso   1.00
C6     C     0.17911   0.98153   0.14299   0.00000  Uiso   1.00
C7     C     0.15134   0.96618   0.20345   0.00000  Uiso   1.00
C8     C     0.11598   0.04404   0.22983   0.00000  Uiso   1.00
C9     C     0.05406   0.14683   0.29342   0.00000  Uiso   1.00
C10    C     0.18600   0.89450   0.03990   0.00000  Uiso   1.00
C11    C     0.16399   0.80599   0.01369   0.00000  Uiso   1.00
C12    C     0.13442   0.81058   0.95328   0.00000  Uiso   1.00
C13    C     0.08318   0.77826   0.85681   0.00000  Uiso   1.00
C14    C     0.20628   0.07206   0.04459   0.00000  Uiso   1.00
C15    C     0.27749   0.04688   0.05837   0.00000  Uiso   1.00
C16    C     0.33102   0.10413   0.04122   0.00000  Uiso   1.00
C17    C     0.39217   0.06822   0.05822   0.00000  Uiso   1.00
C18    C     0.17183   0.07144   0.11004   0.00000  Uiso   1.00
C19    C     0.13650   0.14934   0.13632   0.00000  Uiso   1.00
C20    C     0.10868   0.13412   0.19681   0.00000  Uiso   1.00
C21    C     0.17871   0.98442   0.00694   0.00000  Uiso   1.00
C22    C     0.14915   0.98915   0.94656   0.00000  Uiso   1.00
C23    C     0.12711   0.90066   0.92026   0.00000  Uiso   1.00
H24    H     0.22537   0.83651   0.13092   0.00000  Uiso   1.00
H25    H     0.35148   0.85138   0.13386   0.00000  Uiso   1.00
H26    H     0.15698   0.89659   0.22894   0.00000  Uiso   1.00
H27    H     0.16964   0.73642   0.03921   0.00000  Uiso   1.00
H28    H     0.48809   0.90755   0.12260   0.00000  Uiso   1.00
H29    H     0.07796   0.00285   0.32308   0.00000  Uiso   1.00
H30    H     0.10464   0.66511   0.92299   0.00000  Uiso   1.00
H31    H     0.20060   0.14207   0.01893   0.00000  Uiso   1.00
H32    H     0.32537   0.17371   0.01572   0.00000  Uiso   1.00
H33    H     0.13086   0.21891   0.11081   0.00000  Uiso   1.00
H34    H     0.14352   0.05875   0.92107   0.00000  Uiso   1.00
H35    H     0.46689   0.16916   0.02672   0.00000  Uiso   1.00
H36    H     0.05676   0.26446   0.22720   0.00000  Uiso   1.00
H37    H     0.08345   0.92672   0.82711   0.00000  Uiso   1.00
O38    O     0.56001   0.05367   0.07459   0.00000  Uiso   1.00
O39    O     0.02192   0.17869   0.33760   0.00000  Uiso   1.00
O40    O     0.05694   0.73559   0.81270   0.00000  Uiso   1.00
N41    N     0.46598   0.96476   0.10046   0.00000  Uiso   1.00
N42    N     0.08254   0.05387   0.28791   0.00000  Uiso   1.00
N43    N     0.10747   0.73811   0.91386   0.00000  Uiso   1.00
N44    N     0.45458   0.10553   0.04887   0.00000  Uiso   1.00
N45    N     0.07113   0.19464   0.23631   0.00000  Uiso   1.00
N46    N     0.09607   0.87889   0.86227   0.00000  Uiso   1.00
C47    C     0.28030   0.59349   0.10526   0.00000  Uiso   1.00
C48    C     0.21521   0.54304   0.09132   0.00000  Uiso   1.00
C49    C     0.15413   0.57903   0.10835   0.00000  Uiso   1.00
C50    C     0.10053   0.52185   0.09124   0.00000  Uiso   1.00
C51    C     0.99836   0.45717   0.07463   0.00000  Uiso   1.00
C52    C     0.32089   0.51847   0.14299   0.00000  Uiso   1.00
C53    C     0.34866   0.53382   0.20345   0.00000  Uiso   1.00
C54    C     0.38402   0.45596   0.22983   0.00000  Uiso   1.00
C55    C     0.44594   0.35317   0.29342   0.00000  Uiso   1.00
C56    C     0.31400   0.60550   0.03990   0.00000  Uiso   1.00
C57    C     0.33601   0.69401   0.01369   0.00000  Uiso   1.00
C58    C     0.36558   0.68942   0.95328   0.00000  Uiso   1.00
C59    C     0.41682   0.72174   0.85681   0.00000  Uiso   1.00
C60    C     0.29372   0.42794   0.04459   0.00000  Uiso   1.00
C61    C     0.22251   0.45312   0.05837   0.00000  Uiso   1.00
C62    C     0.16898   0.39587   0.04122   0.00000  Uiso   1.00
C63    C     0.10783   0.43178   0.05822   0.00000  Uiso   1.00
C64    C     0.32817   0.42856   0.11004   0.00000  Uiso   1.00
C65    C     0.36350   0.35066   0.13632   0.00000  Uiso   1.00
C66    C     0.39132   0.36588   0.19681   0.00000  Uiso   1.00
C67    C     0.32129   0.51558   0.00694   0.00000  Uiso   1.00
C68    C     0.35085   0.51085   0.94656   0.00000  Uiso   1.00
C69    C     0.37289   0.59934   0.92026   0.00000  Uiso   1.00
H70    H     0.27463   0.66349   0.13092   0.00000  Uiso   1.00
H71    H     0.14852   0.64862   0.13386   0.00000  Uiso   1.00
H72    H     0.34302   0.60341   0.22894   0.00000  Uiso   1.00
H73    H     0.33036   0.76358   0.03921   0.00000  Uiso   1.00
H74    H     0.01191   0.59245   0.12260   0.00000  Uiso   1.00
H75    H     0.42204   0.49715   0.32308   0.00000  Uiso   1.00
H76    H     0.39536   0.83489   0.92299   0.00000  Uiso   1.00
H77    H     0.29940   0.35793   0.01893   0.00000  Uiso   1.00
H78    H     0.17463   0.32629   0.01572   0.00000  Uiso   1.00
H79    H     0.36914   0.28109   0.11081   0.00000  Uiso   1.00
H80    H     0.35648   0.44125   0.92107   0.00000  Uiso   1.00
H81    H     0.03311   0.33084   0.02672   0.00000  Uiso   1.00
H82    H     0.44324   0.23554   0.22720   0.00000  Uiso   1.00
H83    H     0.41655   0.57328   0.82711   0.00000  Uiso   1.00
O84    O     0.93999   0.44633   0.07459   0.00000  Uiso   1.00
O85    O     0.47808   0.32131   0.33760   0.00000  Uiso   1.00
O86    O     0.44306   0.76441   0.81270   0.00000  Uiso   1.00
N87    N     0.03402   0.53524   0.10046   0.00000  Uiso   1.00
N88    N     0.41746   0.44613   0.28791   0.00000  Uiso   1.00
N89    N     0.39253   0.76189   0.91386   0.00000  Uiso   1.00
N90    N     0.04542   0.39447   0.04887   0.00000  Uiso   1.00
N91    N     0.42887   0.30536   0.23631   0.00000  Uiso   1.00
N92    N     0.40393   0.62111   0.86227   0.00000  Uiso   1.00
C93    C     0.78030   0.40651   0.39474   0.00000  Uiso   1.00
C94    C     0.71521   0.45696   0.40868   0.00000  Uiso   1.00
C95    C     0.65413   0.42097   0.39165   0.00000  Uiso   1.00
C96    C     0.60053   0.47815   0.40876   0.00000  Uiso   1.00
C97    C     0.49836   0.54283   0.42537   0.00000  Uiso   1.00
C98    C     0.82089   0.48153   0.35701   0.00000  Uiso   1.00
C99    C     0.84866   0.46618   0.29655   0.00000  Uiso   1.00
C100   C     0.88402   0.54404   0.27017   0.00000  Uiso   1.00
C101   C     0.94594   0.64683   0.20658   0.00000  Uiso   1.00
C102   C     0.81400   0.39450   0.46010   0.00000  Uiso   1.00
C103   C     0.83601   0.30599   0.48631   0.00000  Uiso   1.00
C104   C     0.86558   0.31058   0.54672   0.00000  Uiso   1.00
C105   C     0.91682   0.27826   0.64319   0.00000  Uiso   1.00
C106   C     0.79372   0.57206   0.45541   0.00000  Uiso   1.00
C107   C     0.72251   0.54688   0.44163   0.00000  Uiso   1.00
C108   C     0.66898   0.60413   0.45878   0.00000  Uiso   1.00
C109   C     0.60783   0.56822   0.44178   0.00000  Uiso   1.00
C110   C     0.82817   0.57144   0.38996   0.00000  Uiso   1.00
C111   C     0.86350   0.64934   0.36368   0.00000  Uiso   1.00
C112   C     0.89132   0.63412   0.30319   0.00000  Uiso   1.00
C113   C     0.82129   0.48442   0.49306   0.00000  Uiso   1.00
C114   C     0.85085   0.48915   0.55344   0.00000  Uiso   1.00
C115   C     0.87289   0.40066   0.57974   0.00000  Uiso   1.00
H116   H     0.77463   0.33651   0.36908   0.00000  Uiso   1.00
H117   H     0.64852   0.35138   0.36614   0.00000  Uiso   1.00
H118   H     0.84302   0.39659   0.27106   0.00000  Uiso   1.00
H119   H     0.83036   0.23642   0.46079   0.00000  Uiso   1.00
H120   H     0.51191   0.40755   0.37740   0.00000  Uiso   1.00
H121   H     0.92204   0.50285   0.17692   0.00000  Uiso   1.00
H122   H     0.89536   0.16511   0.57701   0.00000  Uiso   1.00
H123   H     0.79940   0.64207   0.48107   0.00000  Uiso   1.00
H124   H     0.67463   0.67371   0.48428   0.00000  Uiso   1.00
H125   H     0.86914   0.71891   0.38919   0.00000  Uiso   1.00
H126   H     0.85648   0.55875   0.57893   0.00000  Uiso   1.00
H127   H     0.53311   0.66916   0.47328   0.00000  Uiso   1.00
H128   H     0.94324   0.76446   0.27280   0.00000  Uiso   1.00
H129   H     0.91655   0.42672   0.67289   0.00000  Uiso   1.00
O130   O     0.43999   0.55367   0.42541   0.00000  Uiso   1.00
O131   O     0.97808   0.67869   0.16240   0.00000  Uiso   1.00
O132   O     0.94306   0.23559   0.68730   0.00000  Uiso   1.00
N133   N     0.53402   0.46476   0.39954   0.00000  Uiso   1.00
N134   N     0.91746   0.55387   0.21209   0.00000  Uiso   1.00
N135   N     0.89253   0.23811   0.58614   0.00000  Uiso   1.00
N136   N     0.54542   0.60553   0.45113   0.00000  Uiso   1.00
N137   N     0.92887   0.69464   0.26369   0.00000  Uiso   1.00
N138   N     0.90393   0.37889   0.63773   0.00000  Uiso   1.00
C139   C     0.71970   0.09349   0.39474   0.00000  Uiso   1.00
C140   C     0.78479   0.04304   0.40868   0.00000  Uiso   1.00
C141   C     0.84587   0.07903   0.39165   0.00000  Uiso   1.00
C142   C     0.89947   0.02185   0.40876   0.00000  Uiso   1.00
C143   C     0.00164   0.95717   0.42537   0.00000  Uiso   1.00
C144   C     0.67911   0.01847   0.35701   0.00000  Uiso   1.00
C145   C     0.65134   0.03382   0.29655   0.00000  Uiso   1.00
C146   C     0.61598   0.95596   0.27017   0.00000  Uiso   1.00
C147   C     0.55406   0.85317   0.20658   0.00000  Uiso   1.00
C148   C     0.68600   0.10550   0.46010   0.00000  Uiso   1.00
C149   C     0.66399   0.19401   0.48631   0.00000  Uiso   1.00
C150   C     0.63442   0.18942   0.54672   0.00000  Uiso   1.00
C151   C     0.58318   0.22174   0.64319   0.00000  Uiso   1.00
C152   C     0.70628   0.92794   0.45541   0.00000  Uiso   1.00
C153   C     0.77749   0.95312   0.44163   0.00000  Uiso   1.00
C154   C     0.83102   0.89587   0.45878   0.00000  Uiso   1.00
C155   C     0.89217   0.93178   0.44178   0.00000  Uiso   1.00
C156   C     0.67183   0.92856   0.38996   0.00000  Uiso   1.00
C157   C     0.63650   0.85066   0.36368   0.00000  Uiso   1.00
C158   C     0.60868   0.86588   0.30319   0.00000  Uiso   1.00
C159   C     0.67871   0.01558   0.49306   0.00000  Uiso   1.00
C160   C     0.64915   0.01085   0.55344   0.00000  Uiso   1.00
C161   C     0.62711   0.09934   0.57974   0.00000  Uiso   1.00
H162   H     0.72537   0.16349   0.36908   0.00000  Uiso   1.00
H163   H     0.85148   0.14862   0.36614   0.00000  Uiso   1.00
H164   H     0.65698   0.10341   0.27106   0.00000  Uiso   1.00
H165   H     0.66964   0.26358   0.46079   0.00000  Uiso   1.00
H166   H     0.98809   0.09245   0.37740   0.00000  Uiso   1.00
H167   H     0.57796   0.99715   0.17692   0.00000  Uiso   1.00
H168   H     0.60464   0.33489   0.57701   0.00000  Uiso   1.00
H169   H     0.70060   0.85793   0.48107   0.00000  Uiso   1.00
H170   H     0.82537   0.82629   0.48428   0.00000  Uiso   1.00
H171   H     0.63086   0.78109   0.38919   0.00000  Uiso   1.00
H172   H     0.64352   0.94125   0.57893   0.00000  Uiso   1.00
H173   H     0.96689   0.83084   0.47328   0.00000  Uiso   1.00
H174   H     0.55676   0.73554   0.27280   0.00000  Uiso   1.00
H175   H     0.58345   0.07328   0.67289   0.00000  Uiso   1.00
O176   O     0.06001   0.94633   0.42541   0.00000  Uiso   1.00
O177   O     0.52192   0.82131   0.16240   0.00000  Uiso   1.00
O178   O     0.55694   0.26441   0.68730   0.00000  Uiso   1.00
N179   N     0.96598   0.03524   0.39954   0.00000  Uiso   1.00
N180   N     0.58254   0.94613   0.21209   0.00000  Uiso   1.00
N181   N     0.60747   0.26189   0.58614   0.00000  Uiso   1.00
N182   N     0.95458   0.89447   0.45113   0.00000  Uiso   1.00
N183   N     0.57113   0.80536   0.26369   0.00000  Uiso   1.00
N184   N     0.59607   0.12111   0.63773   0.00000  Uiso   1.00
C185   C     0.78030   0.09349   0.89474   0.00000  Uiso   1.00
C186   C     0.71521   0.04304   0.90868   0.00000  Uiso   1.00
C187   C     0.65413   0.07903   0.89165   0.00000  Uiso   1.00
C188   C     0.60053   0.02185   0.90876   0.00000  Uiso   1.00
C189   C     0.49836   0.95717   0.92537   0.00000  Uiso   1.00
C190   C     0.82089   0.01847   0.85701   0.00000  Uiso   1.00
C191   C     0.84866   0.03382   0.79655   0.00000  Uiso   1.00
C192   C     0.88402   0.95596   0.77017   0.00000  Uiso   1.00
C193   C     0.94594   0.85317   0.70658   0.00000  Uiso   1.00
C194   C     0.81400   0.10550   0.96010   0.00000  Uiso   1.00
C195   C     0.83601   0.19401   0.98631   0.00000  Uiso   1.00
C196   C     0.86558   0.18942   0.04672   0.00000  Uiso   1.00
C197   C     0.91682   0.22174   0.14319   0.00000  Uiso   1.00
C198   C     0.79372   0.92794   0.95541   0.00000  Uiso   1.00
C199   C     0.72251   0.95312   0.94163   0.00000  Uiso   1.00
C200   C     0.66898   0.89587   0.95878   0.00000  Uiso   1.00
C201   C     0.60783   0.93178   0.94178   0.00000  Uiso   1.00
C202   C     0.82817   0.92856   0.88996   0.00000  Uiso   1.00
C203   C     0.86350   0.85066   0.86368   0.00000  Uiso   1.00
C204   C     0.89132   0.86588   0.80319   0.00000  Uiso   1.00
C205   C     0.82129   0.01558   0.99306   0.00000  Uiso   1.00
C206   C     0.85085   0.01085   0.05344   0.00000  Uiso   1.00
C207   C     0.87289   0.09934   0.07974   0.00000  Uiso   1.00
H208   H     0.77463   0.16349   0.86908   0.00000  Uiso   1.00
H209   H     0.64852   0.14862   0.86614   0.00000  Uiso   1.00
H210   H     0.84302   0.10341   0.77106   0.00000  Uiso   1.00
H211   H     0.83036   0.26358   0.96079   0.00000  Uiso   1.00
H212   H     0.51191   0.09245   0.87740   0.00000  Uiso   1.00
H213   H     0.92204   0.99715   0.67692   0.00000  Uiso   1.00
H214   H     0.89536   0.33489   0.07701   0.00000  Uiso   1.00
H215   H     0.79940   0.85793   0.98107   0.00000  Uiso   1.00
H216   H     0.67463   0.82629   0.98428   0.00000  Uiso   1.00
H217   H     0.86914   0.78109   0.88919   0.00000  Uiso   1.00
H218   H     0.85648   0.94125   0.07893   0.00000  Uiso   1.00
H219   H     0.53311   0.83084   0.97328   0.00000  Uiso   1.00
H220   H     0.94324   0.73554   0.77280   0.00000  Uiso   1.00
H221   H     0.91655   0.07328   0.17289   0.00000  Uiso   1.00
O222   O     0.43999   0.94633   0.92541   0.00000  Uiso   1.00
O223   O     0.97808   0.82131   0.66240   0.00000  Uiso   1.00
O224   O     0.94306   0.26441   0.18730   0.00000  Uiso   1.00
N225   N     0.53402   0.03524   0.89954   0.00000  Uiso   1.00
N226   N     0.91746   0.94613   0.71209   0.00000  Uiso   1.00
N227   N     0.89253   0.26189   0.08614   0.00000  Uiso   1.00
N228   N     0.54542   0.89447   0.95113   0.00000  Uiso   1.00
N229   N     0.92887   0.80536   0.76369   0.00000  Uiso   1.00
N230   N     0.90393   0.12111   0.13773   0.00000  Uiso   1.00
C231   C     0.71970   0.40651   0.89474   0.00000  Uiso   1.00
C232   C     0.78479   0.45696   0.90868   0.00000  Uiso   1.00
C233   C     0.84587   0.42097   0.89165   0.00000  Uiso   1.00
C234   C     0.89947   0.47815   0.90876   0.00000  Uiso   1.00
C235   C     0.00164   0.54283   0.92537   0.00000  Uiso   1.00
C236   C     0.67911   0.48153   0.85701   0.00000  Uiso   1.00
C237   C     0.65134   0.46618   0.79655   0.00000  Uiso   1.00
C238   C     0.61598   0.54404   0.77017   0.00000  Uiso   1.00
C239   C     0.55406   0.64683   0.70658   0.00000  Uiso   1.00
C240   C     0.68600   0.39450   0.96010   0.00000  Uiso   1.00
C241   C     0.66399   0.30599   0.98631   0.00000  Uiso   1.00
C242   C     0.63442   0.31058   0.04672   0.00000  Uiso   1.00
C243   C     0.58318   0.27826   0.14319   0.00000  Uiso   1.00
C244   C     0.70628   0.57206   0.95541   0.00000  Uiso   1.00
C245   C     0.77749   0.54688   0.94163   0.00000  Uiso   1.00
C246   C     0.83102   0.60413   0.95878   0.00000  Uiso   1.00
C247   C     0.89217   0.56822   0.94178   0.00000  Uiso   1.00
C248   C     0.67183   0.57144   0.88996   0.00000  Uiso   1.00
C249   C     0.63650   0.64934   0.86368   0.00000  Uiso   1.00
C250   C     0.60868   0.63412   0.80319   0.00000  Uiso   1.00
C251   C     0.67871   0.48442   0.99306   0.00000  Uiso   1.00
C252   C     0.64915   0.48915   0.05344   0.00000  Uiso   1.00
C253   C     0.62711   0.40066   0.07974   0.00000  Uiso   1.00
H254   H     0.72537   0.33651   0.86908   0.00000  Uiso   1.00
H255   H     0.85148   0.35138   0.86614   0.00000  Uiso   1.00
H256   H     0.65698   0.39659   0.77106   0.00000  Uiso   1.00
H257   H     0.66964   0.23642   0.96079   0.00000  Uiso   1.00
H258   H     0.98809   0.40755   0.87740   0.00000  Uiso   1.00
H259   H     0.57796   0.50285   0.67692   0.00000  Uiso   1.00
H260   H     0.60464   0.16511   0.07701   0.00000  Uiso   1.00
H261   H     0.70060   0.64207   0.98107   0.00000  Uiso   1.00
H262   H     0.82537   0.67371   0.98428   0.00000  Uiso   1.00
H263   H     0.63086   0.71891   0.88919   0.00000  Uiso   1.00
H264   H     0.64352   0.55875   0.07893   0.00000  Uiso   1.00
H265   H     0.96689   0.66916   0.97328   0.00000  Uiso   1.00
H266   H     0.55676   0.76446   0.77280   0.00000  Uiso   1.00
H267   H     0.58345   0.42672   0.17289   0.00000  Uiso   1.00
O268   O     0.06001   0.55367   0.92541   0.00000  Uiso   1.00
O269   O     0.52192   0.67869   0.66240   0.00000  Uiso   1.00
O270   O     0.55694   0.23559   0.18730   0.00000  Uiso   1.00
N271   N     0.96598   0.46476   0.89954   0.00000  Uiso   1.00
N272   N     0.58254   0.55387   0.71209   0.00000  Uiso   1.00
N273   N     0.60747   0.23811   0.08614   0.00000  Uiso   1.00
N274   N     0.95458   0.60553   0.95113   0.00000  Uiso   1.00
N275   N     0.57113   0.69464   0.76369   0.00000  Uiso   1.00
N276   N     0.59607   0.37889   0.13773   0.00000  Uiso   1.00
C277   C     0.21970   0.59349   0.60526   0.00000  Uiso   1.00
C278   C     0.28479   0.54304   0.59132   0.00000  Uiso   1.00
C279   C     0.34587   0.57903   0.60835   0.00000  Uiso   1.00
C280   C     0.39947   0.52185   0.59124   0.00000  Uiso   1.00
C281   C     0.50164   0.45717   0.57463   0.00000  Uiso   1.00
C282   C     0.17911   0.51847   0.64299   0.00000  Uiso   1.00
C283   C     0.15134   0.53382   0.70345   0.00000  Uiso   1.00
C284   C     0.11598   0.45596   0.72983   0.00000  Uiso   1.00
C285   C     0.05406   0.35317   0.79342   0.00000  Uiso   1.00
C286   C     0.18600   0.60550   0.53990   0.00000  Uiso   1.00
C287   C     0.16399   0.69401   0.51369   0.00000  Uiso   1.00
C288   C     0.13442   0.68942   0.45328   0.00000  Uiso   1.00
C289   C     0.08318   0.72174   0.35681   0.00000  Uiso   1.00
C290   C     0.20628   0.42794   0.54459   0.00000  Uiso   1.00
C291   C     0.27749   0.45312   0.55837   0.00000  Uiso   1.00
C292   C     0.33102   0.39587   0.54122   0.00000  Uiso   1.00
C293   C     0.39217   0.43178   0.55822   0.00000  Uiso   1.00
C294   C     0.17183   0.42856   0.61004   0.00000  Uiso   1.00
C295   C     0.13650   0.35066   0.63632   0.00000  Uiso   1.00
C296   C     0.10868   0.36588   0.69681   0.00000  Uiso   1.00
C297   C     0.17871   0.51558   0.50694   0.00000  Uiso   1.00
C298   C     0.14915   0.51085   0.44656   0.00000  Uiso   1.00
C299   C     0.12711   0.59934   0.42026   0.00000  Uiso   1.00
H300   H     0.22537   0.66349   0.63092   0.00000  Uiso   1.00
H301   H     0.35148   0.64862   0.63386   0.00000  Uiso   1.00
H302   H     0.15698   0.60341   0.72894   0.00000  Uiso   1.00
H303   H     0.16964   0.76358   0.53921   0.00000  Uiso   1.00
H304   H     0.48809   0.59245   0.62260   0.00000  Uiso   1.00
H305   H     0.07796   0.49715   0.82308   0.00000  Uiso   1.00
H306   H     0.10464   0.83489   0.42299   0.00000  Uiso   1.00
H307   H     0.20060   0.35793   0.51893   0.00000  Uiso   1.00
H308   H     0.32537   0.32629   0.51572   0.00000  Uiso   1.00
H309   H     0.13086   0.28109   0.61081   0.00000  Uiso   1.00
H310   H     0.14352   0.44125   0.42107   0.00000  Uiso   1.00
H311   H     0.46689   0.33084   0.52672   0.00000  Uiso   1.00
H312   H     0.05676   0.23554   0.72720   0.00000  Uiso   1.00
H313   H     0.08345   0.57328   0.32711   0.00000  Uiso   1.00
O314   O     0.56001   0.44633   0.57459   0.00000  Uiso   1.00
O315   O     0.02192   0.32131   0.83760   0.00000  Uiso   1.00
O316   O     0.05694   0.76441   0.31270   0.00000  Uiso   1.00
N317   N     0.46598   0.53524   0.60046   0.00000  Uiso   1.00
N318   N     0.08254   0.44613   0.78791   0.00000  Uiso   1.00
N319   N     0.10747   0.76189   0.41386   0.00000  Uiso   1.00
N320   N     0.45458   0.39447   0.54887   0.00000  Uiso   1.00
N321   N     0.07113   0.30536   0.73631   0.00000  Uiso   1.00
N322   N     0.09607   0.62111   0.36227   0.00000  Uiso   1.00
C323   C     0.28030   0.90651   0.60526   0.00000  Uiso   1.00
C324   C     0.21521   0.95696   0.59132   0.00000  Uiso   1.00
C325   C     0.15413   0.92097   0.60835   0.00000  Uiso   1.00
C326   C     0.10053   0.97815   0.59124   0.00000  Uiso   1.00
C327   C     0.99836   0.04283   0.57463   0.00000  Uiso   1.00
C328   C     0.32089   0.98153   0.64299   0.00000  Uiso   1.00
C329   C     0.34866   0.96618   0.70345   0.00000  Uiso   1.00
C330   C     0.38402   0.04404   0.72983   0.00000  Uiso   1.00
C331   C     0.44594   0.14683   0.79342   0.00000  Uiso   1.00
C332   C     0.31400   0.89450   0.53990   0.00000  Uiso   1.00
C333   C     0.33601   0.80599   0.51369   0.00000  Uiso   1.00
C334   C     0.36558   0.81058   0.45328   0.00000  Uiso   1.00
C335   C     0.41682   0.77826   0.35681   0.00000  Uiso   1.00
C336   C     0.29372   0.07206   0.54459   0.00000  Uiso   1.00
C337   C     0.22251   0.04688   0.55837   0.00000  Uiso   1.00
C338   C     0.16898   0.10413   0.54122   0.00000  Uiso   1.00
C339   C     0.10783   0.06822   0.55822   0.00000  Uiso   1.00
C340   C     0.32817   0.07144   0.61004   0.00000  Uiso   1.00
C341   C     0.36350   0.14934   0.63632   0.00000  Uiso   1.00
C342   C     0.39132   0.13412   0.69681   0.00000  Uiso   1.00
C343   C     0.32129   0.98442   0.50694   0.00000  Uiso   1.00
C344   C     0.35085   0.98915   0.44656   0.00000  Uiso   1.00
C345   C     0.37289   0.90066   0.42026   0.00000  Uiso   1.00
H346   H     0.27463   0.83651   0.63092   0.00000  Uiso   1.00
H347   H     0.14852   0.85138   0.63386   0.00000  Uiso   1.00
H348   H     0.34302   0.89659   0.72894   0.00000  Uiso   1.00
H349   H     0.33036   0.73642   0.53921   0.00000  Uiso   1.00
H350   H     0.01191   0.90755   0.62260   0.00000  Uiso   1.00
H351   H     0.42204   0.00285   0.82308   0.00000  Uiso   1.00
H352   H     0.39536   0.66511   0.42299   0.00000  Uiso   1.00
H353   H     0.29940   0.14207   0.51893   0.00000  Uiso   1.00
H354   H     0.17463   0.17371   0.51572   0.00000  Uiso   1.00
H355   H     0.36914   0.21891   0.61081   0.00000  Uiso   1.00
H356   H     0.35648   0.05875   0.42107   0.00000  Uiso   1.00
H357   H     0.03311   0.16916   0.52672   0.00000  Uiso   1.00
H358   H     0.44324   0.26446   0.72720   0.00000  Uiso   1.00
H359   H     0.41655   0.92672   0.32711   0.00000  Uiso   1.00
O360   O     0.93999   0.05367   0.57459   0.00000  Uiso   1.00
O361   O     0.47808   0.17869   0.83760   0.00000  Uiso   1.00
O362   O     0.44306   0.73559   0.31270   0.00000  Uiso   1.00
N363   N     0.03402   0.96476   0.60046   0.00000  Uiso   1.00
N364   N     0.41746   0.05387   0.78791   0.00000  Uiso   1.00
N365   N     0.39253   0.73811   0.41386   0.00000  Uiso   1.00
N366   N     0.04542   0.10553   0.54887   0.00000  Uiso   1.00
N367   N     0.42887   0.19464   0.73631   0.00000  Uiso   1.00
N368   N     0.40393   0.87889   0.36227   0.00000  Uiso   1.00
