data_job_05972
_audit_creation_date              2018-12-19
_audit_creation_method            'Materials Studio'
_symmetry_space_group_name_H-M    'P1'
_symmetry_Int_Tables_number       1
_symmetry_cell_setting            triclinic
loop_
_symmetry_equiv_pos_as_xyz
  x,y,z
_cell_length_a                    15.3270
_cell_length_b                    15.2646
_cell_length_c                    15.1947
_cell_angle_alpha                 102.3510
_cell_angle_beta                  102.3400
_cell_angle_gamma                 102.3050
loop_
_atom_site_label
_atom_site_type_symbol
_atom_site_fract_x
_atom_site_fract_y
_atom_site_fract_z
_atom_site_U_iso_or_equiv
_atom_site_adp_type
_atom_site_occupancy
C1     C     0.58463   0.75745   0.07112   0.00000  Uiso   1.00
C2     C     0.62207   0.85566   0.06354   0.00000  Uiso   1.00
C3     C     0.58482   0.92997   0.08644   0.00000  Uiso   1.00
C4     C     0.62921   0.01419   0.07455   0.00000  Uiso   1.00
C5     C     0.67534   0.16523   0.06784   0.00000  Uiso   1.00
C6     C     0.56632   0.69248   0.97381   0.00000  Uiso   1.00
C7     C     0.48219   0.62958   0.92128   0.00000  Uiso   1.00
C8     C     0.47966   0.57644   0.83386   0.00000  Uiso   1.00
C9     C     0.43924   0.47409   0.68787   0.00000  Uiso   1.00
C10    C     0.66493   0.73616   0.13363   0.00000  Uiso   1.00
C11    C     0.66370   0.70996   0.21547   0.00000  Uiso   1.00
C12    C     0.74419   0.69357   0.26259   0.00000  Uiso   1.00
C13    C     0.85688   0.65904   0.36475   0.00000  Uiso   1.00
C14    C     0.72972   0.77489   0.00927   0.00000  Uiso   1.00
C15    C     0.70088   0.86513   0.02994   0.00000  Uiso   1.00
C16    C     0.74535   0.94926   0.01801   0.00000  Uiso   1.00
C17    C     0.70817   0.02368   0.04090   0.00000  Uiso   1.00
C18    C     0.64512   0.70195   0.94021   0.00000  Uiso   1.00
C19    C     0.64272   0.64888   0.85285   0.00000  Uiso   1.00
C20    C     0.55861   0.58592   0.80020   0.00000  Uiso   1.00
C21    C     0.74374   0.74563   0.10004   0.00000  Uiso   1.00
C22    C     0.82424   0.72926   0.14704   0.00000  Uiso   1.00
C23    C     0.82314   0.70305   0.22893   0.00000  Uiso   1.00
H24    H     0.52327   0.75007   0.09727   0.00000  Uiso   1.00
H25    H     0.52382   0.92261   0.11243   0.00000  Uiso   1.00
H26    H     0.42122   0.62227   0.94730   0.00000  Uiso   1.00
H27    H     0.60271   0.70264   0.24144   0.00000  Uiso   1.00
H28    H     0.55917   0.11807   0.11439   0.00000  Uiso   1.00
H29    H     0.34282   0.48475   0.76621   0.00000  Uiso   1.00
H30    H     0.72553   0.65424   0.38647   0.00000  Uiso   1.00
H31    H     0.79108   0.78226   0.98312   0.00000  Uiso   1.00
H32    H     0.80633   0.95657   0.99201   0.00000  Uiso   1.00
H33    H     0.70372   0.65622   0.82688   0.00000  Uiso   1.00
H34    H     0.88521   0.73660   0.12102   0.00000  Uiso   1.00
H35    H     0.78846   0.14563   0.01665   0.00000  Uiso   1.00
H36    H     0.57211   0.51230   0.66847   0.00000  Uiso   1.00
H37    H     0.95482   0.68180   0.28873   0.00000  Uiso   1.00
O38    O     0.67900   0.24592   0.07340   0.00000  Uiso   1.00
O39    O     0.39516   0.41502   0.61662   0.00000  Uiso   1.00
O40    O     0.89726   0.63739   0.43038   0.00000  Uiso   1.00
N41    N     0.61105   0.10064   0.09018   0.00000  Uiso   1.00
N42    N     0.40877   0.50853   0.76465   0.00000  Uiso   1.00
N43    N     0.76657   0.66696   0.34453   0.00000  Uiso   1.00
N44    N     0.73443   0.11547   0.03759   0.00000  Uiso   1.00
N45    N     0.53216   0.52336   0.71206   0.00000  Uiso   1.00
N46    N     0.88995   0.68179   0.29194   0.00000  Uiso   1.00
C47    C     0.07011   0.58415   0.75784   0.00000  Uiso   1.00
C48    C     0.06266   0.62182   0.85655   0.00000  Uiso   1.00
C49    C     0.08539   0.58442   0.93118   0.00000  Uiso   1.00
C50    C     0.07367   0.62907   0.01585   0.00000  Uiso   1.00
C51    C     0.06713   0.67549   0.16765   0.00000  Uiso   1.00
C52    C     0.97363   0.56583   0.69264   0.00000  Uiso   1.00
C53    C     0.92151   0.48136   0.62944   0.00000  Uiso   1.00
C54    C     0.83484   0.47888   0.57612   0.00000  Uiso   1.00
C55    C     0.69010   0.43839   0.47339   0.00000  Uiso   1.00
C56    C     0.13206   0.66471   0.73643   0.00000  Uiso   1.00
C57    C     0.21314   0.66337   0.71003   0.00000  Uiso   1.00
C58    C     0.25986   0.74414   0.69355   0.00000  Uiso   1.00
C59    C     0.36111   0.85718   0.65881   0.00000  Uiso   1.00
C60    C     0.00888   0.72994   0.77550   0.00000  Uiso   1.00
C61    C     0.02940   0.70100   0.86614   0.00000  Uiso   1.00
C62    C     0.01765   0.74573   0.95072   0.00000  Uiso   1.00
C63    C     0.04036   0.70840   0.02546   0.00000  Uiso   1.00
C64    C     0.94037   0.64501   0.70223   0.00000  Uiso   1.00
C65    C     0.85377   0.64266   0.64898   0.00000  Uiso   1.00
C66    C     0.80153   0.55821   0.58572   0.00000  Uiso   1.00
C67    C     0.09881   0.74390   0.74602   0.00000  Uiso   1.00
C68    C     0.14540   0.82468   0.72957   0.00000  Uiso   1.00
C69    C     0.22654   0.82347   0.70315   0.00000  Uiso   1.00
H70    H     0.09599   0.52249   0.75037   0.00000  Uiso   1.00
H71    H     0.11112   0.52313   0.92373   0.00000  Uiso   1.00
H72    H     0.94726   0.42009   0.62203   0.00000  Uiso   1.00
H73    H     0.23885   0.60208   0.70261   0.00000  Uiso   1.00
H74    H     0.11319   0.55874   0.12015   0.00000  Uiso   1.00
H75    H     0.76771   0.34148   0.48398   0.00000  Uiso   1.00
H76    H     0.38258   0.72524   0.65390   0.00000  Uiso   1.00
H77    H     0.98299   0.79159   0.78296   0.00000  Uiso   1.00
H78    H     0.99192   0.80700   0.95811   0.00000  Uiso   1.00
H79    H     0.82806   0.70396   0.65641   0.00000  Uiso   1.00
H80    H     0.11965   0.88595   0.73699   0.00000  Uiso   1.00
H81    H     0.01644   0.78914   0.14806   0.00000  Uiso   1.00
H82    H     0.67095   0.57188   0.51188   0.00000  Uiso   1.00
H83    H     0.28583   0.95564   0.68180   0.00000  Uiso   1.00
O84    O     0.07269   0.67920   0.24873   0.00000  Uiso   1.00
O85    O     0.61945   0.39417   0.41409   0.00000  Uiso   1.00
O86    O     0.42614   0.89765   0.63702   0.00000  Uiso   1.00
N87    N     0.08921   0.61086   0.10269   0.00000  Uiso   1.00
N88    N     0.76620   0.40773   0.50792   0.00000  Uiso   1.00
N89    N     0.34104   0.76651   0.66675   0.00000  Uiso   1.00
N90    N     0.03715   0.73484   0.11770   0.00000  Uiso   1.00
N91    N     0.71414   0.53171   0.52293   0.00000  Uiso   1.00
N92    N     0.28898   0.89048   0.68176   0.00000  Uiso   1.00
C93    C     0.75680   0.07042   0.58364   0.00000  Uiso   1.00
C94    C     0.85463   0.06286   0.62139   0.00000  Uiso   1.00
C95    C     0.92857   0.08558   0.58376   0.00000  Uiso   1.00
C96    C     0.01249   0.07375   0.62854   0.00000  Uiso   1.00
C97    C     0.16294   0.06704   0.67503   0.00000  Uiso   1.00
C98    C     0.69214   0.97359   0.56524   0.00000  Uiso   1.00
C99    C     0.62945   0.92127   0.48040   0.00000  Uiso   1.00
C100   C     0.57657   0.83430   0.47791   0.00000  Uiso   1.00
C101   C     0.47470   0.68902   0.43725   0.00000  Uiso   1.00
C102   C     0.73565   0.13271   0.66464   0.00000  Uiso   1.00
C103   C     0.70951   0.21417   0.66337   0.00000  Uiso   1.00
C104   C     0.69325   0.26115   0.74457   0.00000  Uiso   1.00
C105   C     0.65893   0.36294   0.85824   0.00000  Uiso   1.00
C106   C     0.77435   0.00900   0.73009   0.00000  Uiso   1.00
C107   C     0.86417   0.02950   0.70094   0.00000  Uiso   1.00
C108   C     0.94800   0.01763   0.74579   0.00000  Uiso   1.00
C109   C     0.02205   0.04033   0.70823   0.00000  Uiso   1.00
C110   C     0.70167   0.94023   0.64479   0.00000  Uiso   1.00
C111   C     0.64887   0.85332   0.64243   0.00000  Uiso   1.00
C112   C     0.58612   0.80087   0.55761   0.00000  Uiso   1.00
C113   C     0.74519   0.09936   0.74419   0.00000  Uiso   1.00
C114   C     0.72895   0.14622   0.82541   0.00000  Uiso   1.00
C115   C     0.70280   0.22773   0.82426   0.00000  Uiso   1.00
H116   H     0.74937   0.09639   0.52171   0.00000  Uiso   1.00
H117   H     0.92116   0.11139   0.52219   0.00000  Uiso   1.00
H118   H     0.62208   0.94711   0.41885   0.00000  Uiso   1.00
H119   H     0.70214   0.23996   0.60180   0.00000  Uiso   1.00
H120   H     0.11582   0.11328   0.55779   0.00000  Uiso   1.00
H121   H     0.48516   0.76689   0.33990   0.00000  Uiso   1.00
H122   H     0.65399   0.38443   0.72568   0.00000  Uiso   1.00
H123   H     0.78178   0.98303   0.79203   0.00000  Uiso   1.00
H124   H     0.95536   0.99181   0.80735   0.00000  Uiso   1.00
H125   H     0.65627   0.82753   0.70400   0.00000  Uiso   1.00
H126   H     0.73633   0.12038   0.88695   0.00000  Uiso   1.00
H127   H     0.14357   0.01621   0.78923   0.00000  Uiso   1.00
H128   H     0.51291   0.66983   0.57134   0.00000  Uiso   1.00
H129   H     0.68175   0.28737   0.95712   0.00000  Uiso   1.00
O130   O     0.24329   0.07254   0.67869   0.00000  Uiso   1.00
O131   O     0.41588   0.61811   0.39284   0.00000  Uiso   1.00
O132   O     0.63739   0.42830   0.89896   0.00000  Uiso   1.00
N133   N     0.09854   0.08925   0.61017   0.00000  Uiso   1.00
N134   N     0.50892   0.76539   0.40645   0.00000  Uiso   1.00
N135   N     0.66674   0.34273   0.76711   0.00000  Uiso   1.00
N136   N     0.11347   0.03702   0.73471   0.00000  Uiso   1.00
N137   N     0.52386   0.71316   0.53099   0.00000  Uiso   1.00
N138   N     0.68167   0.29050   0.89165   0.00000  Uiso   1.00
C139   C     0.41537   0.24255   0.92888   0.00000  Uiso   1.00
C140   C     0.37793   0.14434   0.93646   0.00000  Uiso   1.00
C141   C     0.41518   0.07003   0.91356   0.00000  Uiso   1.00
C142   C     0.37079   0.98581   0.92545   0.00000  Uiso   1.00
C143   C     0.32466   0.83477   0.93216   0.00000  Uiso   1.00
C144   C     0.43368   0.30752   0.02619   0.00000  Uiso   1.00
C145   C     0.51781   0.37042   0.07872   0.00000  Uiso   1.00
C146   C     0.52034   0.42356   0.16614   0.00000  Uiso   1.00
C147   C     0.56076   0.52591   0.31213   0.00000  Uiso   1.00
C148   C     0.33507   0.26384   0.86637   0.00000  Uiso   1.00
C149   C     0.33629   0.29004   0.78453   0.00000  Uiso   1.00
C150   C     0.25581   0.30643   0.73741   0.00000  Uiso   1.00
C151   C     0.14312   0.34096   0.63525   0.00000  Uiso   1.00
C152   C     0.27028   0.22511   0.99073   0.00000  Uiso   1.00
C153   C     0.29912   0.13487   0.97006   0.00000  Uiso   1.00
C154   C     0.25465   0.05074   0.98199   0.00000  Uiso   1.00
C155   C     0.29183   0.97632   0.95910   0.00000  Uiso   1.00
C156   C     0.35488   0.29805   0.05979   0.00000  Uiso   1.00
C157   C     0.35728   0.35112   0.14715   0.00000  Uiso   1.00
C158   C     0.44139   0.41408   0.19980   0.00000  Uiso   1.00
C159   C     0.25626   0.25437   0.89996   0.00000  Uiso   1.00
C160   C     0.17576   0.27074   0.85296   0.00000  Uiso   1.00
C161   C     0.17686   0.29695   0.77107   0.00000  Uiso   1.00
H162   H     0.47673   0.24993   0.90273   0.00000  Uiso   1.00
H163   H     0.47618   0.07739   0.88757   0.00000  Uiso   1.00
H164   H     0.57878   0.37773   0.05270   0.00000  Uiso   1.00
H165   H     0.39729   0.29736   0.75856   0.00000  Uiso   1.00
H166   H     0.44083   0.88193   0.88561   0.00000  Uiso   1.00
H167   H     0.65718   0.51525   0.23379   0.00000  Uiso   1.00
H168   H     0.27447   0.34576   0.61353   0.00000  Uiso   1.00
H169   H     0.20892   0.21774   0.01688   0.00000  Uiso   1.00
H170   H     0.19367   0.04343   0.00798   0.00000  Uiso   1.00
H171   H     0.29628   0.34378   0.17312   0.00000  Uiso   1.00
H172   H     0.11479   0.26340   0.87898   0.00000  Uiso   1.00
H173   H     0.21154   0.85437   0.98335   0.00000  Uiso   1.00
H174   H     0.42789   0.48770   0.33153   0.00000  Uiso   1.00
H175   H     0.04518   0.31820   0.71127   0.00000  Uiso   1.00
O176   O     0.32100   0.75408   0.92660   0.00000  Uiso   1.00
O177   O     0.60484   0.58498   0.38338   0.00000  Uiso   1.00
O178   O     0.10274   0.36261   0.56962   0.00000  Uiso   1.00
N179   N     0.38895   0.89936   0.90982   0.00000  Uiso   1.00
N180   N     0.59123   0.49147   0.23535   0.00000  Uiso   1.00
N181   N     0.23343   0.33304   0.65547   0.00000  Uiso   1.00
N182   N     0.26557   0.88453   0.96241   0.00000  Uiso   1.00
N183   N     0.46784   0.47664   0.28794   0.00000  Uiso   1.00
N184   N     0.11005   0.31821   0.70806   0.00000  Uiso   1.00
C185   C     0.92989   0.41585   0.24216   0.00000  Uiso   1.00
C186   C     0.93734   0.37818   0.14345   0.00000  Uiso   1.00
C187   C     0.91461   0.41558   0.06882   0.00000  Uiso   1.00
C188   C     0.92633   0.37093   0.98415   0.00000  Uiso   1.00
C189   C     0.93287   0.32451   0.83235   0.00000  Uiso   1.00
C190   C     0.02637   0.43417   0.30736   0.00000  Uiso   1.00
C191   C     0.07849   0.51864   0.37056   0.00000  Uiso   1.00
C192   C     0.16516   0.52112   0.42388   0.00000  Uiso   1.00
C193   C     0.30990   0.56161   0.52661   0.00000  Uiso   1.00
C194   C     0.86794   0.33529   0.26357   0.00000  Uiso   1.00
C195   C     0.78686   0.33663   0.28997   0.00000  Uiso   1.00
C196   C     0.74014   0.25586   0.30645   0.00000  Uiso   1.00
C197   C     0.63889   0.14282   0.34119   0.00000  Uiso   1.00
C198   C     0.99112   0.27006   0.22450   0.00000  Uiso   1.00
C199   C     0.97060   0.29900   0.13386   0.00000  Uiso   1.00
C200   C     0.98235   0.25427   0.04928   0.00000  Uiso   1.00
C201   C     0.95964   0.29160   0.97454   0.00000  Uiso   1.00
C202   C     0.05963   0.35499   0.29777   0.00000  Uiso   1.00
C203   C     0.14623   0.35734   0.35102   0.00000  Uiso   1.00
C204   C     0.19847   0.44179   0.41428   0.00000  Uiso   1.00
C205   C     0.90119   0.25610   0.25398   0.00000  Uiso   1.00
C206   C     0.85460   0.17532   0.27043   0.00000  Uiso   1.00
C207   C     0.77346   0.17653   0.29685   0.00000  Uiso   1.00
H208   H     0.90401   0.47751   0.24963   0.00000  Uiso   1.00
H209   H     0.88888   0.47687   0.07627   0.00000  Uiso   1.00
H210   H     0.05274   0.57991   0.37797   0.00000  Uiso   1.00
H211   H     0.76115   0.39792   0.29739   0.00000  Uiso   1.00
H212   H     0.88681   0.44126   0.87985   0.00000  Uiso   1.00
H213   H     0.23229   0.65852   0.51602   0.00000  Uiso   1.00
H214   H     0.61742   0.27476   0.34610   0.00000  Uiso   1.00
H215   H     0.01701   0.20840   0.21704   0.00000  Uiso   1.00
H216   H     0.00808   0.19300   0.04189   0.00000  Uiso   1.00
H217   H     0.17194   0.29604   0.34359   0.00000  Uiso   1.00
H218   H     0.88035   0.11405   0.26301   0.00000  Uiso   1.00
H219   H     0.98356   0.21086   0.85194   0.00000  Uiso   1.00
H220   H     0.32904   0.42812   0.48812   0.00000  Uiso   1.00
H221   H     0.71417   0.04436   0.31820   0.00000  Uiso   1.00
O222   O     0.92731   0.32080   0.75127   0.00000  Uiso   1.00
O223   O     0.38055   0.60583   0.58591   0.00000  Uiso   1.00
O224   O     0.57386   0.10235   0.36298   0.00000  Uiso   1.00
N225   N     0.91079   0.38914   0.89731   0.00000  Uiso   1.00
N226   N     0.23380   0.59227   0.49208   0.00000  Uiso   1.00
N227   N     0.65896   0.23349   0.33325   0.00000  Uiso   1.00
N228   N     0.96285   0.26516   0.88230   0.00000  Uiso   1.00
N229   N     0.28586   0.46829   0.47707   0.00000  Uiso   1.00
N230   N     0.71102   0.10952   0.31824   0.00000  Uiso   1.00
C231   C     0.24320   0.92958   0.41636   0.00000  Uiso   1.00
C232   C     0.14537   0.93714   0.37861   0.00000  Uiso   1.00
C233   C     0.07143   0.91442   0.41624   0.00000  Uiso   1.00
C234   C     0.98751   0.92625   0.37146   0.00000  Uiso   1.00
C235   C     0.83706   0.93296   0.32497   0.00000  Uiso   1.00
C236   C     0.30786   0.02641   0.43476   0.00000  Uiso   1.00
C237   C     0.37055   0.07873   0.51960   0.00000  Uiso   1.00
C238   C     0.42343   0.16570   0.52209   0.00000  Uiso   1.00
C239   C     0.52530   0.31098   0.56275   0.00000  Uiso   1.00
C240   C     0.26435   0.86729   0.33536   0.00000  Uiso   1.00
C241   C     0.29049   0.78583   0.33663   0.00000  Uiso   1.00
C242   C     0.30675   0.73885   0.25543   0.00000  Uiso   1.00
C243   C     0.34107   0.63706   0.14176   0.00000  Uiso   1.00
C244   C     0.22565   0.99100   0.26991   0.00000  Uiso   1.00
C245   C     0.13583   0.97050   0.29906   0.00000  Uiso   1.00
C246   C     0.05200   0.98237   0.25421   0.00000  Uiso   1.00
C247   C     0.97795   0.95967   0.29177   0.00000  Uiso   1.00
C248   C     0.29833   0.05977   0.35521   0.00000  Uiso   1.00
C249   C     0.35113   0.14668   0.35757   0.00000  Uiso   1.00
C250   C     0.41388   0.19913   0.44239   0.00000  Uiso   1.00
C251   C     0.25481   0.90064   0.25581   0.00000  Uiso   1.00
C252   C     0.27105   0.85378   0.17459   0.00000  Uiso   1.00
C253   C     0.29720   0.77227   0.17574   0.00000  Uiso   1.00
H254   H     0.25063   0.90361   0.47829   0.00000  Uiso   1.00
H255   H     0.07884   0.88861   0.47781   0.00000  Uiso   1.00
H256   H     0.37792   0.05289   0.58115   0.00000  Uiso   1.00
H257   H     0.29786   0.76004   0.39820   0.00000  Uiso   1.00
H258   H     0.88418   0.88672   0.44221   0.00000  Uiso   1.00
H259   H     0.51484   0.23311   0.66010   0.00000  Uiso   1.00
H260   H     0.34601   0.61557   0.27432   0.00000  Uiso   1.00
H261   H     0.21822   0.01697   0.20797   0.00000  Uiso   1.00
H262   H     0.04464   0.00819   0.19265   0.00000  Uiso   1.00
H263   H     0.34373   0.17247   0.29599   0.00000  Uiso   1.00
H264   H     0.26366   0.87962   0.11305   0.00000  Uiso   1.00
H265   H     0.85642   0.98379   0.21077   0.00000  Uiso   1.00
H266   H     0.48709   0.33017   0.42866   0.00000  Uiso   1.00
H267   H     0.31825   0.71263   0.04288   0.00000  Uiso   1.00
O268   O     0.75671   0.92746   0.32131   0.00000  Uiso   1.00
O269   O     0.58412   0.38189   0.60716   0.00000  Uiso   1.00
O270   O     0.36261   0.57170   0.10104   0.00000  Uiso   1.00
N271   N     0.90146   0.91075   0.38983   0.00000  Uiso   1.00
N272   N     0.49108   0.23461   0.59355   0.00000  Uiso   1.00
N273   N     0.33326   0.65727   0.23289   0.00000  Uiso   1.00
N274   N     0.88653   0.96298   0.26529   0.00000  Uiso   1.00
N275   N     0.47614   0.28684   0.46901   0.00000  Uiso   1.00
N276   N     0.31833   0.70950   0.10835   0.00000  Uiso   1.00
