data_job_06361
_audit_creation_date              2018-12-19
_audit_creation_method            'Materials Studio'
_symmetry_space_group_name_H-M    'P1'
_symmetry_Int_Tables_number       1
_symmetry_cell_setting            triclinic
loop_
_symmetry_equiv_pos_as_xyz
  x,y,z
_cell_length_a                    21.9784
_cell_length_b                    23.7015
_cell_length_c                    24.6084
_cell_angle_alpha                 68.6380
_cell_angle_beta                  72.1813
_cell_angle_gamma                 104.2066
loop_
_atom_site_label
_atom_site_type_symbol
_atom_site_fract_x
_atom_site_fract_y
_atom_site_fract_z
_atom_site_U_iso_or_equiv
_atom_site_adp_type
_atom_site_occupancy
C1     C     0.26251   0.66422   0.66810   0.00000  Uiso   1.00
C2     C     0.23667   0.62982   0.63290   0.00000  Uiso   1.00
C3     C     0.26924   0.59781   0.60443   0.00000  Uiso   1.00
C4     C     0.23732   0.56944   0.57458   0.00000  Uiso   1.00
C5     C     0.20668   0.51552   0.52010   0.00000  Uiso   1.00
C6     C     0.26951   0.73523   0.63394   0.00000  Uiso   1.00
C7     C     0.32969   0.79183   0.60635   0.00000  Uiso   1.00
C8     C     0.32541   0.85219   0.57739   0.00000  Uiso   1.00
C9     C     0.34576   0.96191   0.52457   0.00000  Uiso   1.00
C10    C     0.20281   0.63211   0.73581   0.00000  Uiso   1.00
C11    C     0.20690   0.60203   0.79387   0.00000  Uiso   1.00
C12    C     0.14646   0.57559   0.85067   0.00000  Uiso   1.00
C13    C     0.06323   0.52520   0.95601   0.00000  Uiso   1.00
C14    C     0.14790   0.67077   0.66572   0.00000  Uiso   1.00
C15    C     0.17442   0.63338   0.63161   0.00000  Uiso   1.00
C16    C     0.14244   0.60505   0.60180   0.00000  Uiso   1.00
C17    C     0.17495   0.57300   0.57329   0.00000  Uiso   1.00
C18    C     0.20727   0.73878   0.63265   0.00000  Uiso   1.00
C19    C     0.20290   0.79907   0.60372   0.00000  Uiso   1.00
C20    C     0.26305   0.85575   0.57609   0.00000  Uiso   1.00
C21    C     0.14056   0.63566   0.73452   0.00000  Uiso   1.00
C22    C     0.08010   0.60927   0.79123   0.00000  Uiso   1.00
C23    C     0.08410   0.57915   0.84937   0.00000  Uiso   1.00
H24    H     0.31097   0.66146   0.66910   0.00000  Uiso   1.00
H25    H     0.31741   0.59508   0.60544   0.00000  Uiso   1.00
H26    H     0.37785   0.78906   0.60737   0.00000  Uiso   1.00
H27    H     0.25508   0.59929   0.79485   0.00000  Uiso   1.00
H28    H     0.29712   0.52306   0.53426   0.00000  Uiso   1.00
H29    H     0.42455   0.93210   0.53835   0.00000  Uiso   1.00
H30    H     0.16565   0.53192   0.93371   0.00000  Uiso   1.00
H31    H     0.09944   0.67354   0.66471   0.00000  Uiso   1.00
H32    H     0.09427   0.60781   0.60080   0.00000  Uiso   1.00
H33    H     0.15472   0.80181   0.60273   0.00000  Uiso   1.00
H34    H     0.03194   0.61203   0.79022   0.00000  Uiso   1.00
H35    H     0.11601   0.53341   0.53050   0.00000  Uiso   1.00
H36    H     0.24345   0.94245   0.53459   0.00000  Uiso   1.00
H37    H     0.98455   0.54226   0.92994   0.00000  Uiso   1.00
O38    O     0.20699   0.48480   0.49040   0.00000  Uiso   1.00
O39    O     0.37418   0.02144   0.49578   0.00000  Uiso   1.00
O40    O     0.03451   0.49641   0.01447   0.00000  Uiso   1.00
N41    N     0.25519   0.53450   0.54216   0.00000  Uiso   1.00
N42    N     0.37434   0.91693   0.54597   0.00000  Uiso   1.00
N43    N     0.13230   0.54281   0.91559   0.00000  Uiso   1.00
N44    N     0.15774   0.54007   0.54013   0.00000  Uiso   1.00
N45    N     0.27689   0.92250   0.54395   0.00000  Uiso   1.00
N46    N     0.03485   0.54838   0.91357   0.00000  Uiso   1.00
C47    C     0.59748   0.66342   0.66706   0.00000  Uiso   1.00
C48    C     0.60447   0.73442   0.63292   0.00000  Uiso   1.00
C49    C     0.66464   0.79103   0.60533   0.00000  Uiso   1.00
C50    C     0.66035   0.85139   0.57638   0.00000  Uiso   1.00
C51    C     0.68067   0.96109   0.52359   0.00000  Uiso   1.00
C52    C     0.53778   0.63130   0.73478   0.00000  Uiso   1.00
C53    C     0.54187   0.60120   0.79284   0.00000  Uiso   1.00
C54    C     0.48143   0.57473   0.84964   0.00000  Uiso   1.00
C55    C     0.39820   0.52430   0.95499   0.00000  Uiso   1.00
C56    C     0.57163   0.62902   0.63188   0.00000  Uiso   1.00
C57    C     0.60418   0.59697   0.60344   0.00000  Uiso   1.00
C58    C     0.57223   0.56857   0.57362   0.00000  Uiso   1.00
C59    C     0.54156   0.51458   0.51920   0.00000  Uiso   1.00
C60    C     0.48286   0.66995   0.66470   0.00000  Uiso   1.00
C61    C     0.54221   0.73797   0.63164   0.00000  Uiso   1.00
C62    C     0.53783   0.79825   0.60272   0.00000  Uiso   1.00
C63    C     0.59798   0.85494   0.57510   0.00000  Uiso   1.00
C64    C     0.47552   0.63484   0.73350   0.00000  Uiso   1.00
C65    C     0.41506   0.60842   0.79023   0.00000  Uiso   1.00
C66    C     0.41907   0.57828   0.84836   0.00000  Uiso   1.00
C67    C     0.50938   0.63256   0.63060   0.00000  Uiso   1.00
C68    C     0.47737   0.60420   0.60082   0.00000  Uiso   1.00
C69    C     0.50987   0.57212   0.57234   0.00000  Uiso   1.00
H70    H     0.64594   0.66066   0.66807   0.00000  Uiso   1.00
H71    H     0.71281   0.78827   0.60634   0.00000  Uiso   1.00
H72    H     0.59006   0.59846   0.79382   0.00000  Uiso   1.00
H73    H     0.65236   0.59424   0.60444   0.00000  Uiso   1.00
H74    H     0.75948   0.93131   0.53736   0.00000  Uiso   1.00
H75    H     0.50064   0.53106   0.93267   0.00000  Uiso   1.00
H76    H     0.63201   0.52216   0.53333   0.00000  Uiso   1.00
H77    H     0.43439   0.67271   0.66371   0.00000  Uiso   1.00
H78    H     0.48965   0.80098   0.60174   0.00000  Uiso   1.00
H79    H     0.36690   0.61116   0.78922   0.00000  Uiso   1.00
H80    H     0.42919   0.60695   0.59984   0.00000  Uiso   1.00
H81    H     0.57835   0.94162   0.53363   0.00000  Uiso   1.00
H82    H     0.31952   0.54137   0.92894   0.00000  Uiso   1.00
H83    H     0.45089   0.53247   0.52960   0.00000  Uiso   1.00
O84    O     0.70908   0.02063   0.49483   0.00000  Uiso   1.00
O85    O     0.36949   0.49551   0.01346   0.00000  Uiso   1.00
O86    O     0.54185   0.48384   0.48953   0.00000  Uiso   1.00
N87    N     0.70927   0.91613   0.54497   0.00000  Uiso   1.00
N88    N     0.46728   0.54193   0.91457   0.00000  Uiso   1.00
N89    N     0.59009   0.53360   0.54123   0.00000  Uiso   1.00
N90    N     0.61181   0.92168   0.54296   0.00000  Uiso   1.00
N91    N     0.36982   0.54748   0.91256   0.00000  Uiso   1.00
N92    N     0.49263   0.53915   0.53922   0.00000  Uiso   1.00
C93    C     0.92949   0.66256   0.66840   0.00000  Uiso   1.00
C94    C     0.86978   0.63043   0.73611   0.00000  Uiso   1.00
C95    C     0.87386   0.60032   0.79418   0.00000  Uiso   1.00
C96    C     0.81342   0.57384   0.85097   0.00000  Uiso   1.00
C97    C     0.73017   0.52339   0.95631   0.00000  Uiso   1.00
C98    C     0.90365   0.62815   0.63321   0.00000  Uiso   1.00
C99    C     0.93623   0.59613   0.60474   0.00000  Uiso   1.00
C100   C     0.90430   0.56774   0.57491   0.00000  Uiso   1.00
C101   C     0.87367   0.51379   0.52045   0.00000  Uiso   1.00
C102   C     0.93648   0.73355   0.63424   0.00000  Uiso   1.00
C103   C     0.99666   0.79016   0.60663   0.00000  Uiso   1.00
C104   C     0.99238   0.85052   0.57765   0.00000  Uiso   1.00
C105   C     0.01272   0.96022   0.52479   0.00000  Uiso   1.00
C106   C     0.81488   0.66908   0.66602   0.00000  Uiso   1.00
C107   C     0.80753   0.63397   0.73482   0.00000  Uiso   1.00
C108   C     0.74706   0.60754   0.79154   0.00000  Uiso   1.00
C109   C     0.75105   0.57740   0.84968   0.00000  Uiso   1.00
C110   C     0.84140   0.63169   0.63192   0.00000  Uiso   1.00
C111   C     0.80942   0.60335   0.60211   0.00000  Uiso   1.00
C112   C     0.84193   0.57129   0.57361   0.00000  Uiso   1.00
C113   C     0.87423   0.73710   0.63295   0.00000  Uiso   1.00
C114   C     0.86986   0.79738   0.60400   0.00000  Uiso   1.00
C115   C     0.93001   0.85407   0.57635   0.00000  Uiso   1.00
H116   H     0.97795   0.65980   0.66941   0.00000  Uiso   1.00
H117   H     0.92205   0.59758   0.79516   0.00000  Uiso   1.00
H118   H     0.98440   0.59340   0.60575   0.00000  Uiso   1.00
H119   H     0.04483   0.78740   0.60764   0.00000  Uiso   1.00
H120   H     0.83261   0.53015   0.93401   0.00000  Uiso   1.00
H121   H     0.96410   0.52135   0.53461   0.00000  Uiso   1.00
H122   H     0.09152   0.93044   0.53859   0.00000  Uiso   1.00
H123   H     0.76641   0.67184   0.66501   0.00000  Uiso   1.00
H124   H     0.69889   0.61029   0.79052   0.00000  Uiso   1.00
H125   H     0.76125   0.60611   0.60111   0.00000  Uiso   1.00
H126   H     0.82167   0.80010   0.60300   0.00000  Uiso   1.00
H127   H     0.65149   0.54046   0.93024   0.00000  Uiso   1.00
H128   H     0.78298   0.53166   0.53084   0.00000  Uiso   1.00
H129   H     0.91040   0.94075   0.53483   0.00000  Uiso   1.00
O130   O     0.70144   0.49458   0.01477   0.00000  Uiso   1.00
O131   O     0.87397   0.48305   0.49077   0.00000  Uiso   1.00
O132   O     0.04113   0.01976   0.49600   0.00000  Uiso   1.00
N133   N     0.79925   0.54104   0.91590   0.00000  Uiso   1.00
N134   N     0.92218   0.53280   0.54249   0.00000  Uiso   1.00
N135   N     0.04131   0.91526   0.54620   0.00000  Uiso   1.00
N136   N     0.70179   0.54658   0.91387   0.00000  Uiso   1.00
N137   N     0.82472   0.53835   0.54047   0.00000  Uiso   1.00
N138   N     0.94385   0.92081   0.54418   0.00000  Uiso   1.00
C139   C     0.76294   0.32910   0.33470   0.00000  Uiso   1.00
C140   C     0.73642   0.36650   0.36879   0.00000  Uiso   1.00
C141   C     0.76841   0.39485   0.39858   0.00000  Uiso   1.00
C142   C     0.73591   0.42692   0.42707   0.00000  Uiso   1.00
C143   C     0.70422   0.48448   0.48018   0.00000  Uiso   1.00
C144   C     0.77028   0.36421   0.26589   0.00000  Uiso   1.00
C145   C     0.83075   0.39062   0.20917   0.00000  Uiso   1.00
C146   C     0.82676   0.42076   0.15103   0.00000  Uiso   1.00
C147   C     0.84764   0.47471   0.04439   0.00000  Uiso   1.00
C148   C     0.70358   0.26109   0.36776   0.00000  Uiso   1.00
C149   C     0.70796   0.20080   0.39667   0.00000  Uiso   1.00
C150   C     0.64780   0.14412   0.42428   0.00000  Uiso   1.00
C151   C     0.56511   0.03797   0.47580   0.00000  Uiso   1.00
C152   C     0.64833   0.33564   0.33231   0.00000  Uiso   1.00
C153   C     0.67417   0.37005   0.36749   0.00000  Uiso   1.00
C154   C     0.64161   0.40209   0.39594   0.00000  Uiso   1.00
C155   C     0.67355   0.43048   0.42577   0.00000  Uiso   1.00
C156   C     0.70804   0.36776   0.26459   0.00000  Uiso   1.00
C157   C     0.70396   0.39786   0.20653   0.00000  Uiso   1.00
C158   C     0.76440   0.42432   0.14973   0.00000  Uiso   1.00
C159   C     0.64133   0.26464   0.36646   0.00000  Uiso   1.00
C160   C     0.58116   0.20804   0.39403   0.00000  Uiso   1.00
C161   C     0.58544   0.14767   0.42298   0.00000  Uiso   1.00
H162   H     0.81140   0.32634   0.33570   0.00000  Uiso   1.00
H163   H     0.81658   0.39210   0.39957   0.00000  Uiso   1.00
H164   H     0.87891   0.38786   0.21019   0.00000  Uiso   1.00
H165   H     0.75613   0.19807   0.39767   0.00000  Uiso   1.00
H166   H     0.79489   0.46659   0.46979   0.00000  Uiso   1.00
H167   H     0.92631   0.45764   0.07047   0.00000  Uiso   1.00
H168   H     0.66741   0.05743   0.46579   0.00000  Uiso   1.00
H169   H     0.59987   0.33841   0.33129   0.00000  Uiso   1.00
H170   H     0.59344   0.40483   0.39493   0.00000  Uiso   1.00
H171   H     0.65578   0.40059   0.20554   0.00000  Uiso   1.00
H172   H     0.53300   0.21080   0.39302   0.00000  Uiso   1.00
H173   H     0.61378   0.47692   0.46602   0.00000  Uiso   1.00
H174   H     0.74520   0.46797   0.06669   0.00000  Uiso   1.00
H175   H     0.48630   0.06776   0.46202   0.00000  Uiso   1.00
O176   O     0.70394   0.51525   0.50982   0.00000  Uiso   1.00
O177   O     0.87635   0.50350   0.98593   0.00000  Uiso   1.00
O178   O     0.53668   0.97844   0.50459   0.00000  Uiso   1.00
N179   N     0.75314   0.45990   0.46018   0.00000  Uiso   1.00
N180   N     0.87602   0.45154   0.08684   0.00000  Uiso   1.00
N181   N     0.63397   0.07737   0.45642   0.00000  Uiso   1.00
N182   N     0.65569   0.46546   0.45815   0.00000  Uiso   1.00
N183   N     0.77856   0.45710   0.08481   0.00000  Uiso   1.00
N184   N     0.53652   0.08293   0.45439   0.00000  Uiso   1.00
C185   C     0.09761   0.33058   0.33378   0.00000  Uiso   1.00
C186   C     0.10495   0.36568   0.26498   0.00000  Uiso   1.00
C187   C     0.16540   0.39209   0.20825   0.00000  Uiso   1.00
C188   C     0.16140   0.42221   0.15012   0.00000  Uiso   1.00
C189   C     0.18225   0.47614   0.04349   0.00000  Uiso   1.00
C190   C     0.03825   0.26256   0.36685   0.00000  Uiso   1.00
C191   C     0.04263   0.20228   0.39578   0.00000  Uiso   1.00
C192   C     0.98248   0.14559   0.42341   0.00000  Uiso   1.00
C193   C     0.89978   0.03943   0.47498   0.00000  Uiso   1.00
C194   C     0.07108   0.36796   0.36788   0.00000  Uiso   1.00
C195   C     0.10305   0.39629   0.39770   0.00000  Uiso   1.00
C196   C     0.07053   0.42833   0.42622   0.00000  Uiso   1.00
C197   C     0.03880   0.48582   0.47939   0.00000  Uiso   1.00
C198   C     0.98299   0.33710   0.33141   0.00000  Uiso   1.00
C199   C     0.04269   0.36922   0.26369   0.00000  Uiso   1.00
C200   C     0.03859   0.39930   0.20563   0.00000  Uiso   1.00
C201   C     0.09903   0.42576   0.14883   0.00000  Uiso   1.00
C202   C     0.97600   0.26610   0.36556   0.00000  Uiso   1.00
C203   C     0.91582   0.20949   0.39316   0.00000  Uiso   1.00
C204   C     0.92011   0.14913   0.42213   0.00000  Uiso   1.00
C205   C     0.00883   0.37151   0.36659   0.00000  Uiso   1.00
C206   C     0.97624   0.40350   0.39508   0.00000  Uiso   1.00
C207   C     0.00816   0.43188   0.42493   0.00000  Uiso   1.00
H208   H     0.14608   0.32782   0.33478   0.00000  Uiso   1.00
H209   H     0.21357   0.38934   0.20927   0.00000  Uiso   1.00
H210   H     0.09082   0.19955   0.39677   0.00000  Uiso   1.00
H211   H     0.15123   0.39354   0.39869   0.00000  Uiso   1.00
H212   H     0.26094   0.45908   0.06955   0.00000  Uiso   1.00
H213   H     0.00210   0.05891   0.46493   0.00000  Uiso   1.00
H214   H     0.12949   0.46797   0.46898   0.00000  Uiso   1.00
H215   H     0.93452   0.33985   0.33041   0.00000  Uiso   1.00
H216   H     0.99041   0.40203   0.20465   0.00000  Uiso   1.00
H217   H     0.86766   0.21225   0.39216   0.00000  Uiso   1.00
H218   H     0.92807   0.40623   0.39407   0.00000  Uiso   1.00
H219   H     0.07981   0.46938   0.06580   0.00000  Uiso   1.00
H220   H     0.82097   0.06921   0.46119   0.00000  Uiso   1.00
H221   H     0.94836   0.47827   0.46523   0.00000  Uiso   1.00
O222   O     0.21095   0.50490   0.98503   0.00000  Uiso   1.00
O223   O     0.87137   0.97989   0.50377   0.00000  Uiso   1.00
O224   O     0.03850   0.51657   0.50907   0.00000  Uiso   1.00
N225   N     0.21064   0.45298   0.08593   0.00000  Uiso   1.00
N226   N     0.96865   0.07885   0.45558   0.00000  Uiso   1.00
N227   N     0.08774   0.46127   0.45937   0.00000  Uiso   1.00
N228   N     0.11318   0.45853   0.08391   0.00000  Uiso   1.00
N229   N     0.87119   0.08439   0.45356   0.00000  Uiso   1.00
N230   N     0.99027   0.46681   0.45736   0.00000  Uiso   1.00
C231   C     0.42893   0.33052   0.33509   0.00000  Uiso   1.00
C232   C     0.36956   0.26250   0.36817   0.00000  Uiso   1.00
C233   C     0.37393   0.20222   0.39710   0.00000  Uiso   1.00
C234   C     0.31377   0.14554   0.42475   0.00000  Uiso   1.00
C235   C     0.23106   0.03939   0.47633   0.00000  Uiso   1.00
C236   C     0.40241   0.36791   0.36919   0.00000  Uiso   1.00
C237   C     0.43441   0.39626   0.39899   0.00000  Uiso   1.00
C238   C     0.40190   0.42832   0.42749   0.00000  Uiso   1.00
C239   C     0.37021   0.48586   0.48063   0.00000  Uiso   1.00
C240   C     0.43626   0.36563   0.26629   0.00000  Uiso   1.00
C241   C     0.49673   0.39207   0.20957   0.00000  Uiso   1.00
C242   C     0.49273   0.42222   0.15144   0.00000  Uiso   1.00
C243   C     0.51361   0.47621   0.04480   0.00000  Uiso   1.00
C244   C     0.31432   0.33706   0.33272   0.00000  Uiso   1.00
C245   C     0.30731   0.26606   0.36688   0.00000  Uiso   1.00
C246   C     0.24713   0.20945   0.39448   0.00000  Uiso   1.00
C247   C     0.25141   0.14909   0.42346   0.00000  Uiso   1.00
C248   C     0.34016   0.37146   0.36791   0.00000  Uiso   1.00
C249   C     0.30760   0.40349   0.39637   0.00000  Uiso   1.00
C250   C     0.33954   0.43188   0.42620   0.00000  Uiso   1.00
C251   C     0.37401   0.36918   0.26501   0.00000  Uiso   1.00
C252   C     0.36993   0.39930   0.20695   0.00000  Uiso   1.00
C253   C     0.43037   0.42578   0.15015   0.00000  Uiso   1.00
H254   H     0.47739   0.32776   0.33609   0.00000  Uiso   1.00
H255   H     0.42212   0.19949   0.39809   0.00000  Uiso   1.00
H256   H     0.48258   0.39351   0.39997   0.00000  Uiso   1.00
H257   H     0.54490   0.38931   0.21058   0.00000  Uiso   1.00
H258   H     0.33337   0.05885   0.46629   0.00000  Uiso   1.00
H259   H     0.46088   0.46796   0.47023   0.00000  Uiso   1.00
H260   H     0.59228   0.45912   0.07086   0.00000  Uiso   1.00
H261   H     0.26585   0.33983   0.33172   0.00000  Uiso   1.00
H262   H     0.19896   0.21222   0.39348   0.00000  Uiso   1.00
H263   H     0.25943   0.40623   0.39536   0.00000  Uiso   1.00
H264   H     0.32174   0.40204   0.20597   0.00000  Uiso   1.00
H265   H     0.15225   0.06918   0.46255   0.00000  Uiso   1.00
H266   H     0.27977   0.47830   0.46648   0.00000  Uiso   1.00
H267   H     0.41116   0.46945   0.06712   0.00000  Uiso   1.00
O268   O     0.20262   0.97985   0.50514   0.00000  Uiso   1.00
O269   O     0.36992   0.51660   0.51030   0.00000  Uiso   1.00
O270   O     0.54231   0.50500   0.98634   0.00000  Uiso   1.00
N271   N     0.29993   0.07879   0.45692   0.00000  Uiso   1.00
N272   N     0.41914   0.46128   0.46061   0.00000  Uiso   1.00
N273   N     0.54199   0.45303   0.08724   0.00000  Uiso   1.00
N274   N     0.20247   0.08435   0.45491   0.00000  Uiso   1.00
N275   N     0.32168   0.46684   0.45860   0.00000  Uiso   1.00
N276   N     0.44453   0.45859   0.08523   0.00000  Uiso   1.00
